#------------------------------------------------------------------------------
#$Date: 2019-11-23 06:21:54 +0200 (Sat, 23 Nov 2019) $
#$Revision: 232319 $
#$URL: file:///home/coder/svn-repositories/cod/cif/4/34/74/4347442.cif $
#------------------------------------------------------------------------------
#
# This file is available in the Crystallography Open Database (COD),
# http://www.crystallography.net/
#
# All data on this site have been placed in the public domain by the
# contributors.
#
data_4347442
loop_
_publ_author_name
'He, Mingrui'
'Li, Xiangjun'
'Liu, Yanhong'
'Li, Jianfeng'
_publ_section_title
;
 Axial Mn-CCN Bonds of Cyano Manganese(II) Porphyrin Complexes: Flexible
 and Weak?
;
_journal_issue                   12
_journal_name_full               'Inorganic chemistry'
_journal_page_first              5871
_journal_page_last               5879
_journal_paper_doi               10.1021/acs.inorgchem.6b00173
_journal_volume                  55
_journal_year                    2016
_chemical_formula_moiety         'C45 H28 Mn N5, C18 H36 K N2 O6'
_chemical_formula_sum            'C63 H64 K Mn N7 O6'
_chemical_formula_weight         1109.25
_chemical_name_common            '[K(222)][Mn(TPP)(CN)]'
_space_group_crystal_system      monoclinic
_space_group_IT_number           9
_space_group_name_Hall           'C -2yc'
_space_group_name_H-M_alt        'C 1 c 1'
_atom_sites_solution_hydrogens   geom
_atom_sites_solution_primary     direct
_atom_sites_solution_secondary   difmap
_audit_creation_method           SHELXL-2014/6
_cell_angle_alpha                90
_cell_angle_beta                 103.628(4)
_cell_angle_gamma                90
_cell_formula_units_Z            4
_cell_length_a                   14.1096(6)
_cell_length_b                   20.8624(8)
_cell_length_c                   20.7312(8)
_cell_measurement_reflns_used    3197
_cell_measurement_temperature    150(2)
_cell_measurement_theta_max      29.0599
_cell_measurement_theta_min      3.1695
_cell_volume                     5930.6(4)
_computing_cell_refinement
'CrysAlisPro, Oxford Diffraction Ltd.,Version 1.171.35.19'
_computing_data_collection
'CrysAlisPro, Oxford Diffraction Ltd.,Version 1.171.35.19'
_computing_data_reduction
'CrysAlisPro, Oxford Diffraction Ltd.,Version 1.171.35.19'
_computing_molecular_graphics    'SHELXP-2014/6 (Sheldrick, 2014)'
_computing_publication_material
'SHELXCIF-2014/6 (Sheldrick, 2014)/enCEFer(CCDC, 2014)'
_computing_structure_refinement  'SHELXL-2014/6 (Sheldrick, 2014)'
_computing_structure_solution    'SHELXS-2014/6 (Sheldrick, 2014)'
_diffrn_ambient_temperature      150(2)
_diffrn_measured_fraction_theta_full 0.996
_diffrn_measured_fraction_theta_max 0.996
_diffrn_measurement_device_type  'Xcalibur, Eos, Gemini'
_diffrn_measurement_method       '\w scans'
_diffrn_radiation_type           MoK\a
_diffrn_radiation_wavelength     0.71073
_diffrn_reflns_av_R_equivalents  0.0324
_diffrn_reflns_av_unetI/netI     0.0614
_diffrn_reflns_Laue_measured_fraction_full 0.996
_diffrn_reflns_Laue_measured_fraction_max 0.996
_diffrn_reflns_limit_h_max       17
_diffrn_reflns_limit_h_min       -16
_diffrn_reflns_limit_k_max       23
_diffrn_reflns_limit_k_min       -25
_diffrn_reflns_limit_l_max       20
_diffrn_reflns_limit_l_min       -25
_diffrn_reflns_number            11644
_diffrn_reflns_point_group_measured_fraction_full 0.997
_diffrn_reflns_point_group_measured_fraction_max 0.996
_diffrn_reflns_theta_full        25.242
_diffrn_reflns_theta_max         25.998
_diffrn_reflns_theta_min         3.176
_diffrn_source                   'Enhance (Mo) X-ray Source'
_exptl_absorpt_coefficient_mu    0.348
_exptl_absorpt_correction_T_max  0.917
_exptl_absorpt_correction_T_min  0.825
_exptl_absorpt_correction_type   multi-scan
_exptl_absorpt_process_details
;
CrysAlisPro, Oxford Diffraction Ltd.,
Version 1.171.34.44 (release 25-10-2010 CrysAlis171 .NET)
(compiled Oct 25 2010,18:11:34)
Empirical absorption correction using spherical harmonics,
 implemented in SCALE3 ABSPACK scaling algorithm. 
;
_exptl_crystal_colour            'dark green'
_exptl_crystal_density_diffrn    1.242
_exptl_crystal_density_method    'not measured'
_exptl_crystal_description       block
_exptl_crystal_F_000             2332
_exptl_crystal_size_max          0.860
_exptl_crystal_size_mid          0.460
_exptl_crystal_size_min          0.250
_refine_diff_density_max         0.271
_refine_diff_density_min         -0.247
_refine_diff_density_rms         0.048
_refine_ls_abs_structure_details
;
 Refined as an inversion twin.
;
_refine_ls_abs_structure_Flack   -0.002(19)
_refine_ls_extinction_method     none
_refine_ls_goodness_of_fit_ref   1.050
_refine_ls_hydrogen_treatment    constr
_refine_ls_matrix_type           full
_refine_ls_number_parameters     704
_refine_ls_number_reflns         7710
_refine_ls_number_restraints     2
_refine_ls_restrained_S_all      1.050
_refine_ls_R_factor_all          0.0501
_refine_ls_R_factor_gt           0.0402
_refine_ls_shift/su_max          0.001
_refine_ls_shift/su_mean         0.000
_refine_ls_structure_factor_coef Fsqd
_refine_ls_weighting_details
'w=1/[\s^2^(Fo^2^)+(0.0275P)^2^] where P=(Fo^2^+2Fc^2^)/3'
_refine_ls_weighting_scheme      calc
_refine_ls_wR_factor_gt          0.0768
_refine_ls_wR_factor_ref         0.0811
_reflns_Friedel_coverage         0.998
_reflns_Friedel_fraction_full    0.997
_reflns_Friedel_fraction_max     0.996
_reflns_number_gt                6732
_reflns_number_total             7710
_reflns_threshold_expression     'I > 2\s(I)'
_cod_data_source_file            ic6b00173_si_003.cif
_cod_data_source_block           20140116_MnTPPCN_K222_2
_cod_original_sg_symbol_H-M      'C c'
_cod_database_code               4347442
_shelx_space_group_comment
;
The symmetry employed for this shelxl refinement is uniquely defined
by the following loop, which should always be used as a source of
symmetry information in preference to the above space-group names.
They are only intended as comments.
;
_shelx_estimated_absorpt_t_min   0.754
_shelx_estimated_absorpt_t_max   0.918
_shelxl_version_number           2014/6
_shelx_res_file
;
TITL 20140116_MnTPPCN_K222 in Cc
CELL 0.71073  14.1096  20.8624  20.7312  90.000 103.628  90.000
ZERR   4.00   0.0006   0.0008   0.0008   0.000   0.004   0.000
LATT -7
SYMM X, -Y, 0.5+Z
SFAC C  H  N  O  K  Mn
UNIT 252  256  28  24  4  4
OMIT -3 52
L.S. 4
ACTA
BOND $H
SIZE 0.86 0.46 0.25
TEMP -123.140
TWIN
FMAP 2
PLAN 20
WGHT    0.027500
BASF  -0.00171
FVAR       0.04908
MN1   6    0.075520    0.339889    0.141670    11.00000    0.01588    0.02290 =
         0.01927   -0.00115    0.00276    0.00127
C1    1    0.146039    0.368848    0.061082    11.00000    0.00859    0.02494 =
         0.01698   -0.00469    0.00343    0.00143
N1    3    0.177576    0.384909    0.023695    11.00000    0.04915    0.04888 =
         0.06152   -0.01417   -0.00574   -0.00539
C(A1  1    0.202825    0.422197    0.255622    11.00000    0.02249    0.02161 =
         0.02275   -0.00029    0.00020    0.00029
C(A2  1    0.252510    0.322183    0.265119    11.00000    0.01988    0.02950 =
         0.01925   -0.00161    0.00236    0.00715
C(A3  1    0.185003    0.217619    0.214934    11.00000    0.02068    0.02625 =
         0.02013   -0.00017    0.00628    0.00280
C(A4  1    0.050460    0.187992    0.143168    11.00000    0.01852    0.02270 =
         0.01892   -0.00126    0.00473    0.00237
C(A5  1   -0.096965    0.246212    0.076803    11.00000    0.01599    0.02678 =
         0.01963   -0.00049    0.00659   -0.00166
C(A6  1   -0.146283    0.347195    0.065862    11.00000    0.01998    0.02606 =
         0.01845   -0.00014    0.00642   -0.00041
C(A7  1   -0.079876    0.452078    0.118975    11.00000    0.02353    0.02440 =
         0.01801    0.00263    0.00770    0.00323
C(A8  1    0.052532    0.480091    0.192982    11.00000    0.02398    0.02213 =
         0.01728    0.00148    0.00576    0.00018
C(B1  1    0.299717    0.421579    0.299727    11.00000    0.02569    0.03083 =
         0.03068   -0.00298   -0.00607    0.00147
AFIX  43
H(B1  2    0.335032    0.457793    0.320430    11.00000   -1.20000
AFIX   0
C(B2  1    0.330119    0.360238    0.305799    11.00000    0.02253    0.03537 =
         0.03045   -0.00148   -0.00591    0.00381
AFIX  43
H(B2  2    0.390576    0.344867    0.331666    11.00000   -1.20000
AFIX   0
C(B3  1    0.185801    0.148215    0.212292    11.00000    0.02305    0.02607 =
         0.02378    0.00039   -0.00152    0.00813
AFIX  43
H(B3  2    0.234471    0.120562    0.237103    11.00000   -1.20000
AFIX   0
C(B4  1    0.103535    0.130425    0.167501    11.00000    0.03044    0.02466 =
         0.03185   -0.00270    0.00606    0.00236
AFIX  43
H(B4  2    0.084360    0.087790    0.154515    11.00000   -1.20000
AFIX   0
C(B5  1   -0.195940    0.246527    0.035564    11.00000    0.01808    0.02797 =
         0.02585   -0.00218    0.00303   -0.00429
AFIX  43
H(B5  2   -0.233008    0.210164    0.016981    11.00000   -1.20000
AFIX   0
C(B6  1   -0.225124    0.308437    0.028721    11.00000    0.01623    0.03377 =
         0.02123    0.00215    0.00147    0.00530
AFIX  43
H(B6  2   -0.286409    0.323623    0.003954    11.00000   -1.20000
AFIX   0
C(B7  1   -0.086848    0.519863    0.130279    11.00000    0.02057    0.02234 =
         0.02964    0.00326   -0.00065    0.00155
AFIX  43
H(B7  2   -0.138323    0.547551    0.109208    11.00000   -1.20000
AFIX   0
C(B8  1   -0.006336    0.536431    0.176475    11.00000    0.02568    0.01915 =
         0.02608   -0.00104    0.00237   -0.00043
AFIX  43
H(B8  2    0.008717    0.577969    0.194810    11.00000   -1.20000
AFIX   0
C(M1  1    0.144969    0.477548    0.238503    11.00000    0.02099    0.02407 =
         0.02230    0.00069    0.00354   -0.00075
C(M2  1    0.256050    0.255022    0.257892    11.00000    0.02028    0.02799 =
         0.01852    0.00052    0.00609    0.00658
C(M3  1   -0.041843    0.190037    0.098198    11.00000    0.02038    0.02421 =
         0.01786   -0.00301    0.00500   -0.00183
C(M4  1   -0.149946    0.414186    0.075137    11.00000    0.01506    0.02323 =
         0.01965    0.00273    0.00386    0.00213
N2    3   -0.068843    0.307844    0.094143    11.00000    0.01485    0.02376 =
         0.01739    0.00027    0.00400    0.00295
N3    3    0.006305    0.429070    0.157952    11.00000    0.01359    0.02244 =
         0.02066   -0.00132    0.00278    0.00147
N4    3    0.177490    0.361201    0.234844    11.00000    0.01925    0.02107 =
         0.01916   -0.00077    0.00098    0.00101
N5    3    0.102265    0.240588    0.171934    11.00000    0.01766    0.01983 =
         0.01758   -0.00157    0.00291    0.00003
C2    1    0.185992    0.538448    0.271470    11.00000    0.01778    0.02099 =
         0.02615    0.00016   -0.00336    0.00537
C3    1    0.189083    0.550123    0.338091    11.00000    0.01728    0.02702 =
         0.02871   -0.00086   -0.00297    0.00446
AFIX  43
H3A   2    0.163636    0.518969    0.362884    11.00000   -1.20000
AFIX   0
C4    1    0.224860    0.584856    0.236493    11.00000    0.02818    0.03628 =
         0.02898    0.00471   -0.00170   -0.00180
AFIX  43
H4A   2    0.224527    0.577918    0.191151    11.00000   -1.20000
AFIX   0
C5    1    0.263609    0.640532    0.267308    11.00000    0.03638    0.03197 =
         0.04976   -0.00173    0.00447   -0.01243
AFIX  43
H5A   2    0.289549    0.671747    0.242854    11.00000   -1.20000
AFIX   0
C6    1    0.265393    0.651673    0.332592    11.00000    0.02738    0.03081 =
         0.05632   -0.01413   -0.00524   -0.00290
AFIX  43
H6A   2    0.291928    0.690572    0.352957    11.00000   -1.20000
AFIX   0
C7    1    0.228645    0.606437    0.369104    11.00000    0.02273    0.04256 =
         0.03227   -0.01145   -0.00212    0.00777
AFIX  43
H7A   2    0.230415    0.613734    0.414605    11.00000   -1.20000
AFIX   0
C8    1    0.339752    0.220580    0.301436    11.00000    0.02006    0.02333 =
         0.02465    0.00176    0.00241    0.00100
C9    1    0.350300    0.218690    0.369784    11.00000    0.02497    0.03990 =
         0.02511   -0.00035    0.00630    0.00746
AFIX  43
H9A   2    0.303640    0.239463    0.388955    11.00000   -1.20000
AFIX   0
C10   1    0.429140    0.186421    0.410700    11.00000    0.02585    0.03906 =
         0.01888    0.00809    0.00157    0.00541
AFIX  43
H10A  2    0.434697    0.184557    0.457229    11.00000   -1.20000
AFIX   0
C11   1    0.498541    0.157423    0.383734    11.00000    0.02502    0.02526 =
         0.03126    0.00113   -0.00424    0.00318
AFIX  43
H11A  2    0.552599    0.136166    0.411476    11.00000   -1.20000
AFIX   0
C12   1    0.488645    0.159597    0.315705    11.00000    0.02582    0.03542 =
         0.03377   -0.00497    0.00071    0.01226
AFIX  43
H12A  2    0.536476    0.139886    0.296813    11.00000   -1.20000
AFIX   0
C13   1    0.409881    0.190154    0.274984    11.00000    0.03048    0.03495 =
         0.01997   -0.00111    0.00060    0.00862
AFIX  43
H13A  2    0.403533    0.190390    0.228335    11.00000   -1.20000
AFIX   0
C14   1   -0.088238    0.127237    0.073412    11.00000    0.01717    0.01864 =
         0.03144   -0.00475    0.00196    0.00378
C15   1   -0.112939    0.082640    0.116197    11.00000    0.03300    0.02729 =
         0.03680   -0.00477    0.00517   -0.00464
AFIX  43
H15A  2   -0.100337    0.092080    0.162265    11.00000   -1.20000
AFIX   0
C16   1   -0.155669    0.024496    0.093281    11.00000    0.03610    0.03086 =
         0.06119    0.00392    0.01474   -0.00297
AFIX  43
H16A  2   -0.171427   -0.005435    0.123678    11.00000   -1.20000
AFIX   0
C17   1   -0.175297    0.010040    0.026698    11.00000    0.03125    0.03025 =
         0.06334   -0.01553    0.00473   -0.00375
AFIX  43
H17A  2   -0.204798   -0.029631    0.010772    11.00000   -1.20000
AFIX   0
C18   1   -0.151440    0.054107   -0.016629    11.00000    0.03058    0.04641 =
         0.03918   -0.02039   -0.00045   -0.00105
AFIX  43
H18A  2   -0.164547    0.044462   -0.062669    11.00000   -1.20000
AFIX   0
C19   1   -0.108854    0.111923    0.005990    11.00000    0.02453    0.03158 =
         0.03155   -0.00568    0.00150   -0.00046
AFIX  43
H19A  2   -0.093373    0.141669   -0.024678    11.00000   -1.20000
AFIX   0
C20   1   -0.239228    0.447600    0.035092    11.00000    0.02386    0.01992 =
         0.02671    0.00211   -0.00045   -0.00186
C21   1   -0.305916    0.477125    0.064661    11.00000    0.02640    0.03658 =
         0.03325   -0.00546   -0.00019    0.00744
AFIX  43
H21A  2   -0.295537    0.476670    0.111630    11.00000   -1.20000
AFIX   0
C22   1   -0.388639    0.507723    0.026258    11.00000    0.02914    0.03427 =
         0.05345   -0.00933   -0.00071    0.01217
AFIX  43
H22A  2   -0.434255    0.527454    0.047144    11.00000   -1.20000
AFIX   0
C23   1   -0.403564    0.509100   -0.041636    11.00000    0.03158    0.03063 =
         0.05507    0.00538   -0.01168    0.00522
AFIX  43
H23A  2   -0.459177    0.530236   -0.067713    11.00000   -1.20000
AFIX   0
C24   1   -0.338010    0.479881   -0.071937    11.00000    0.03476    0.03730 =
         0.03380    0.01371   -0.00365   -0.00426
AFIX  43
H24A  2   -0.348584    0.480656   -0.118914    11.00000   -1.20000
AFIX   0
C25   1   -0.256781    0.449408   -0.033982    11.00000    0.02738    0.03261 =
         0.03171    0.00639    0.00397    0.00193
AFIX  43
H25A  2   -0.212047    0.429308   -0.055361    11.00000   -1.20000
AFIX   0
C26   1    0.371947    0.724515    0.583285    11.00000    0.04250    0.04961 =
         0.03389    0.00389    0.01895   -0.00039
AFIX  23
H26A  2    0.389004    0.715190    0.631464    11.00000   -1.20000
H26B  2    0.350992    0.683794    0.559699    11.00000   -1.20000
AFIX   0
C27   1    0.162713    0.807185    0.480569    11.00000    0.03777    0.06369 =
         0.05654    0.01590    0.02732    0.00853
AFIX  23
H27A  2    0.165917    0.851715    0.497447    11.00000   -1.20000
H27B  2    0.116133    0.782872    0.500168    11.00000   -1.20000
AFIX   0
C28   1    0.288106    0.770548    0.568786    11.00000    0.03812    0.04126 =
         0.04038    0.00373    0.02405   -0.00329
AFIX  23
H28A  2    0.233921    0.753801    0.586779    11.00000   -1.20000
H28B  2    0.308646    0.812400    0.590023    11.00000   -1.20000
AFIX   0
C29   1    0.129583    0.807015    0.406741    11.00000    0.03055    0.06262 =
         0.06729    0.01363    0.01666    0.00348
AFIX  23
H29A  2    0.130822    0.762730    0.389800    11.00000   -1.20000
H29B  2    0.061810    0.823151    0.393181    11.00000   -1.20000
AFIX   0
C30   1    0.159520    0.851897    0.308892    11.00000    0.04882    0.06832 =
         0.03821    0.01186    0.00870    0.00762
AFIX  23
H30A  2    0.090837    0.866493    0.296936    11.00000   -1.20000
H30B  2    0.163255    0.809534    0.288116    11.00000   -1.20000
AFIX   0
C31   1    0.223098    0.899102    0.284412    11.00000    0.06785    0.05338 =
         0.05029    0.01560    0.02352    0.02170
AFIX  23
H31A  2    0.196360    0.905840    0.236287    11.00000   -1.20000
H31B  2    0.219882    0.940635    0.306896    11.00000   -1.20000
AFIX   0
C32   1    0.510785    0.796831    0.610554    11.00000    0.04943    0.05591 =
         0.03005   -0.01323    0.01165   -0.01076
AFIX  23
H32A  2    0.550637    0.775159    0.650262    11.00000   -1.20000
H32B  2    0.461838    0.823656    0.625145    11.00000   -1.20000
AFIX   0
C33   1    0.576008    0.839628    0.581295    11.00000    0.04150    0.07341 =
         0.04726   -0.02727    0.01414   -0.02165
AFIX  23
H33A  2    0.616230    0.866657    0.616604    11.00000   -1.20000
H33B  2    0.620377    0.813110    0.561818    11.00000   -1.20000
AFIX   0
C34   1    0.507586    0.972786    0.464701    11.00000    0.08355    0.04356 =
         0.05923   -0.02131    0.03293   -0.03255
AFIX  23
H34A  2    0.451380    0.986963    0.482048    11.00000   -1.20000
H34B  2    0.543361    1.011302    0.455668    11.00000   -1.20000
AFIX   0
C35   1    0.572792    0.931698    0.514331    11.00000    0.05901    0.06593 =
         0.06668   -0.03162    0.03339   -0.04393
AFIX  23
H35A  2    0.626653    0.915385    0.495733    11.00000   -1.20000
H35B  2    0.601525    0.957215    0.554434    11.00000   -1.20000
AFIX   0
C36   1    0.413056    0.974448    0.354631    11.00000    0.08731    0.02758 =
         0.06380    0.00160    0.03970   -0.01012
AFIX  23
H36A  2    0.447125    1.014401    0.347598    11.00000   -1.20000
H36B  2    0.352572    0.986194    0.368174    11.00000   -1.20000
AFIX   0
C37   1    0.388265    0.935866    0.291122    11.00000    0.07848    0.04158 =
         0.05017    0.00428    0.03637   -0.00453
AFIX  23
H37A  2    0.353984    0.963889    0.254463    11.00000   -1.20000
H37B  2    0.449497    0.921168    0.280416    11.00000   -1.20000
AFIX   0
C38   1    0.525420    0.693822    0.559434    11.00000    0.03345    0.05638 =
         0.03174    0.00115    0.00737    0.00559
AFIX  23
H38A  2    0.521502    0.662003    0.594139    11.00000   -1.20000
H38B  2    0.593311    0.709878    0.568618    11.00000   -1.20000
AFIX   0
C39   1    0.502135    0.661188    0.493229    11.00000    0.03308    0.03284 =
         0.03874   -0.00256    0.00869    0.00630
AFIX  23
H39A  2    0.545132    0.623534    0.494140    11.00000   -1.20000
H39B  2    0.433629    0.646210    0.482446    11.00000   -1.20000
AFIX   0
C40   1    0.525469    0.674767    0.384247    11.00000    0.03155    0.04453 =
         0.03517   -0.00869    0.00703    0.01196
AFIX  23
H40A  2    0.469193    0.645835    0.368353    11.00000   -1.20000
H40B  2    0.585814    0.648738    0.392819    11.00000   -1.20000
AFIX   0
C41   1    0.528493    0.724454    0.332624    11.00000    0.03516    0.05465 =
         0.03958   -0.00782    0.01623    0.00553
AFIX  23
H41A  2    0.583659    0.754108    0.349120    11.00000   -1.20000
H41B  2    0.538416    0.703518    0.291865    11.00000   -1.20000
AFIX   0
C42   1    0.430671    0.796429    0.259323    11.00000    0.05234    0.03654 =
         0.03378    0.00098    0.02507    0.00081
AFIX  23
H42A  2    0.434174    0.768019    0.221705    11.00000   -1.20000
H42B  2    0.485184    0.827443    0.265551    11.00000   -1.20000
AFIX   0
C43   1    0.335675    0.831553    0.244266    11.00000    0.06384    0.03381 =
         0.03068    0.00551    0.01667    0.00142
AFIX  23
H43A  2    0.327496    0.853342    0.200879    11.00000   -1.20000
H43B  2    0.282093    0.800062    0.240155    11.00000   -1.20000
AFIX   0
K2    5    0.394619    0.816989    0.429512    11.00000    0.03305    0.02896 =
         0.03384   -0.00547    0.01627   -0.00705
N6    3    0.326837    0.879953    0.295171    11.00000    0.05245    0.03088 =
         0.04071    0.00203    0.02726    0.00036
N7    3    0.459657    0.747856    0.563838    11.00000    0.02715    0.04672 =
         0.03326   -0.00973    0.01086   -0.00312
O1    4    0.473949    0.937019    0.404963    11.00000    0.06781    0.03480 =
         0.05431   -0.01388    0.03221   -0.01658
O2    4    0.518821    0.878818    0.531927    11.00000    0.03897    0.05032 =
         0.04514   -0.01426    0.01371   -0.01883
O3    4    0.256608    0.778312    0.498627    11.00000    0.03228    0.04641 =
         0.03852    0.00756    0.02042    0.00383
O4    4    0.192499    0.846879    0.379481    11.00000    0.04050    0.04443 =
         0.04663    0.00744    0.01758    0.00161
O5    4    0.516735    0.706043    0.444197    11.00000    0.04067    0.03669 =
         0.03017   -0.00601    0.01016    0.00227
O6    4    0.439154    0.759395    0.317863    11.00000    0.03474    0.03641 =
         0.02937    0.00085    0.01491    0.00516
HKLF 4

REM  20140116_MnTPPCN_K222 in Cc
REM R1 =  0.0402 for    6732 Fo > 4sig(Fo)  and  0.0501 for all    7710 data
REM    704 parameters refined using      2 restraints

END

WGHT      0.0275      0.0000

REM Highest difference peak  0.271,  deepest hole -0.247,  1-sigma level  0.048
Q1    1   0.1212  0.3700  0.0896  11.00000  0.05    0.27
Q2    1   0.1350  0.3800  0.0465  11.00000  0.05    0.25
Q3    1   0.1255  0.3484  0.1888  11.00000  0.05    0.23
Q4    1   0.1806  0.3813  0.0690  11.00000  0.05    0.22
Q5    1   0.3650  0.8298  0.5210  11.00000  0.05    0.20
Q6    1   0.4118  0.8518  0.3885  11.00000  0.05    0.20
Q7    1   0.1623  0.3955  0.0091  11.00000  0.05    0.19
Q8    1   0.3527  0.8808  0.3417  11.00000  0.05    0.19
Q9    1  -0.1967  0.0098 -0.0709  11.00000  0.05    0.19
Q10   1   0.3293  0.8630  0.3850  11.00000  0.05    0.19
Q11   1   0.3014  1.0501  0.3317  11.00000  0.05    0.18
Q12   1   0.1611  0.4485  0.2555  11.00000  0.05    0.18
Q13   1   0.1277  0.2296  0.2088  11.00000  0.05    0.18
Q14   1  -0.2036  0.2760  0.0044  11.00000  0.05    0.18
Q15   1   0.4755  0.5140  0.2691  11.00000  0.05    0.18
Q16   1   0.3639  0.7473  0.3007  11.00000  0.05    0.18
Q17   1   0.3963  0.8679  0.4312  11.00000  0.05    0.18
Q18   1   0.6012  1.0312  0.4805  11.00000  0.05    0.18
Q19   1   0.6341  0.8386  0.5575  11.00000  0.05    0.18
Q20   1   0.1042  0.3761  0.1721  11.00000  0.05    0.17
;
_shelx_res_checksum              72914
_shelx_hkl_file
;
   0   0  -4  142.06    3.00
   0   0  -5    0.23    0.10
   0   0  -6   44.64    1.21
   0   0  -7   -0.02    0.09
   0   0  -8   33.36    1.07
   0   0  -9    0.06    0.12
   0   0 -10    4.52    0.38
   0   0 -11   -0.03    0.11
   0   0 -12   12.06    0.69
   0   0 -13   -0.04    0.14
   0   0  14   13.11    0.55
   0   0 -14   12.51    0.77
   0   0 -15   -0.13    0.16
   0   0  15    0.10    0.10
   0   0 -16    7.72    0.64
   0   0  16    6.95    0.41
   0   0 -17    0.14    0.20
   0   0  17    0.02    0.09
   0   0 -18    6.89    0.64
   0   0  18    6.85    0.41
   0   0 -19    0.10    0.12
   0   0 -19    0.01    0.20
   0   0 -20    3.28    0.48
   0   0 -21    0.03    0.18
   0   0 -22    0.24    0.20
   0   0 -23    0.32    0.19
   0   0 -24    0.87    0.32
   0   0 -25   -0.42    0.31
   0   2  -3    1.29    0.12
   0  -2  -3    1.38    0.12
   0  -2  -3    1.33    0.09
   0  -2  -4   39.59    1.01
   0  -2  -4   39.78    0.89
   0   2  -4   39.78    1.01
   0   2   5   51.09    1.16
   0  -2  -5   52.82    1.33
   0  -2  -5   54.58    1.17
   0   2  -5   54.21    1.33
   0   2  -6   26.46    0.82
   0   2   6   24.92    0.65
   0  -2  -6   27.58    0.84
   0   2   7   33.06    0.82
   0   2  -7   33.22    1.02
   0  -2  -7   33.57    1.03
   0  -2  -8    4.53    0.34
   0   2   8    4.94    0.24
   0   2  -8    5.06    0.36
   0   2   9   17.22    0.53
   0  -2  -9   15.44    0.70
   0   2  -9   16.33    0.72
   0   2  10    0.46    0.08
   0  -2 -10    0.35    0.16
   0   2 -10    0.50    0.16
   0   2 -11   31.88    1.17
   0  -2 -11   32.24    1.18
   0   2  11   31.70    0.87
   0   2  12   17.21    0.58
   0  -2 -12   17.34    0.84
   0   2 -12   17.01    0.84
   0   2  13   10.00    0.43
   0  -2 -13   10.13    0.66
   0   2 -13   10.78    0.68
   0   2 -14    8.45    0.62
   0  -2 -14    9.03    0.64
   0   2  14    8.63    0.40
   0   2 -15    1.94    0.33
   0   2  15    2.11    0.21
   0  -2 -15    1.82    0.31
   0   2 -16    6.07    0.58
   0   2  16    6.46    0.36
   0  -2 -16    6.13    0.58
   0   2 -17    9.99    0.77
   0   2  17    9.81    0.46
   0  -2 -17   11.56    0.80
   0  -2 -18   10.70    0.82
   0   2 -18   12.39    0.88
   0  -2 -19    4.69    0.44
   0   2 -19    4.48    0.55
   0  -2 -19    4.09    0.52
   0   2 -20    0.03    0.15
   0  -2 -20   -0.05    0.17
   0  -2 -20    0.12    0.14
   0   2 -21    3.40    0.50
   0  -2 -21    3.70    0.54
   0  -2 -22    0.33    0.20
   0   2 -22    0.59    0.26
   0   2 -23    0.33    0.25
   0  -2 -23    0.65    0.27
   0  -2 -24    1.32    0.36
   0   2 -24    1.67    0.42
   0  -2 -25    3.05    0.54
   0   2 -25    1.66    0.43
   0  -4   0    0.70    0.11
   0  -4   1   14.90    0.45
   0  -4   2   37.97    0.87
   0   4  -2   36.26    0.87
   0   4  -2   35.94    0.87
   0  -4   3   14.98    0.47
   0   4  -3   13.71    0.40
   0   4   3   15.03    0.47
   0   4  -3   13.70    0.46
   0  -4   3   14.77    0.40
   0  -4  -3   14.35    0.47
   0  -4   4    1.44    0.16
   0   4  -4    1.60    0.16
   0   4  -4    1.52    0.10
   0  -4  -4    1.63    0.16
   0  -4  -5    8.60    0.33
   0   4  -5    8.13    0.26
   0  -4  -5    7.79    0.38
   0   4  -5    8.31    0.38
   0   4  -6    1.22    0.17
   0  -4   6    1.10    0.16
   0  -4  -6    1.28    0.12
   0   4  -6    1.18    0.08
   0  -4  -6    1.28    0.17
   0  -4  -7    8.28    0.44
   0  -4  -7    8.88    0.34
   0   4  -7    8.69    0.27
   0  -4   7    7.90    0.42
   0   4  -7    8.33    0.44
   0  -4  -8   40.86    1.03
   0   4  -8   42.86    0.95
   0  -4  -8   39.38    1.25
   0   4  -8   39.83    1.25
   0  -4  -9   15.15    0.70
   0   4  -9   14.93    0.69
   0   4  -9   15.81    0.45
   0  -4 -10    2.31    0.27
   0   4 -10    2.08    0.14
   0   4 -10    1.89    0.25
   0   4 -11   18.58    0.85
   0  -4 -11   18.64    0.85
   0  -4 -12   15.16    0.78
   0   4 -12   14.75    0.78
   0  -4 -13    2.29    0.33
   0   4 -13    2.78    0.37
   0   4 -14    8.04    0.62
   0  -4 -14    9.34    0.66
   0  -4 -15    0.32    0.17
   0   4 -15    0.86    0.25
   0  -4 -16    0.47    0.19
   0   4 -16    0.30    0.21
   0  -4 -17    9.29    0.72
   0   4 -17    8.30    0.69
   0   4 -18    0.61    0.23
   0  -4 -18    0.23    0.18
   0  -4 -19    0.05    0.19
   0  -4 -19   -0.12    0.24
   0   4 -19    0.10    0.16
   0   4 -20    1.11    0.33
   0  -4 -20    1.41    0.37
   0  -4 -20    1.39    0.29
   0  -4 -21    5.41    0.55
   0  -4 -21    5.68    0.64
   0   4 -21    5.94    0.68
   0   4 -22    1.76    0.39
   0  -4 -22    1.27    0.32
   0   4 -23    1.60    0.39
   0  -4 -23    1.87    0.42
   0   4 -24    0.19    0.22
   0  -4 -24    0.47    0.29
   0   4 -25    2.92    0.54
   0  -6   0  127.93    2.81
   0  -6  -1    7.39    0.38
   0  -6   1    8.04    0.36
   0  -6   2    6.71    0.32
   0   6  -2    7.70    0.31
   0   6   3    9.42    0.38
   0  -6   3    9.10    0.36
   0   6  -3    8.94    0.35
   0   6  -3    8.62    0.36
   0   6  -4   63.03    1.41
   0  -6   4   62.60    1.49
   0   6  -4   60.32    1.49
   0   6   4   61.78    1.51
   0  -6   4   62.53    1.41
   0   6   5   20.86    0.70
   0   6  -5   20.54    0.69
   0  -6  -5   20.57    0.70
   0  -6   5   18.73    0.55
   0   6  -5   21.37    0.57
   0  -6   5   21.61    0.69
   0  -6   6   13.74    0.56
   0   6   6   13.51    0.57
   0  -6   6   13.09    0.40
   0   6  -6   14.27    0.41
   0  -6  -6   13.99    0.58
   0   6  -6   14.43    0.58
   0  -6  -7   10.68    0.43
   0   6  -7   10.28    0.51
   0   6  -7   10.35    0.33
   0  -6  -7   10.10    0.51
   0   6   7   11.27    0.53
   0   6  -8    8.73    0.49
   0  -6  -8    8.99    0.39
   0   6  -8    8.50    0.28
   0  -6  -8    8.82    0.50
   0   6  -9    4.15    0.18
   0  -6  -9    4.46    0.36
   0   6  -9    4.57    0.37
   0  -6  -9    4.59    0.27
   0  -6 -10   15.78    0.75
   0   6 -10   14.84    0.43
   0   6 -10   15.79    0.75
   0  -6 -10   16.17    0.57
   0   6 -11    1.98    0.12
   0  -6 -11    2.07    0.28
   0   6 -11    2.01    0.28
   0  -6 -11    1.98    0.19
   0   6 -12    3.52    0.38
   0   6 -12    3.26    0.17
   0  -6 -12    3.67    0.38
   0   6 -13   11.27    0.37
   0  -6 -13   13.23    0.77
   0   6 -13   12.54    0.75
   0  -6 -14    6.07    0.53
   0   6 -14    6.75    0.56
   0   6 -14    5.62    0.25
   0  -6 -15    0.15    0.15
   0   6 -15    0.62    0.24
   0   6 -16    4.46    0.51
   0  -6 -16    4.75    0.51
   0   6 -17    1.07    0.28
   0  -6 -17    1.29    0.28
   0  -6 -18    8.15    0.65
   0  -6 -18    8.25    0.72
   0   6 -18    8.57    0.73
   0  -6 -19    0.66    0.25
   0  -6 -19    0.54    0.27
   0   6 -19    0.48    0.22
   0  -6 -20    6.48    0.68
   0  -6 -20    6.37    0.61
   0   6 -20    6.20    0.67
   0   6 -21    0.74    0.30
   0  -6 -21    1.02    0.30
   0  -6 -21    0.31    0.16
   0  -6 -22    5.58    0.60
   0  -6 -22    4.91    0.64
   0   6 -22    5.43    0.67
   0   6 -23    1.46    0.39
   0  -6 -23    0.81    0.35
   0   6 -24    7.97    0.84
   0  -6 -24    8.58    0.89
   0  -8   0    9.90    0.49
   0  -8  -1   22.20    0.81
   0  -8   1   22.30    0.76
   0  -8  -2    9.88    0.52
   0  -8   2    8.23    0.41
   0  -8   3   13.19    0.51
   0   8  -3   13.08    0.49
   0   8   3   13.48    0.50
   0   8   4   55.57    1.42
   0   8  -4   56.48    1.40
   0  -8   4   54.05    1.37
   0  -8   5   17.55    0.57
   0   8   5   17.52    0.65
   0   8   6   66.37    1.73
   0  -8   6   67.90    1.70
   0  -8   6   66.98    1.54
   0   8  -6   65.40    1.71
   0  -8   7    4.13    0.22
   0   8  -7    3.33    0.30
   0   8  -7    3.94    0.22
   0  -8  -8   12.11    0.60
   0  -8   8   11.29    0.37
   0   8  -8   11.60    0.58
   0   8  -8   11.60    0.39
   0  -8  -9   28.81    1.05
   0   8  -9   28.47    1.04
   0  -8  -9   27.75    0.89
   0   8  -9   26.93    0.70
   0  -8 -10    3.14    0.33
   0   8 -10    3.03    0.16
   0   8 -10    3.23    0.33
   0  -8 -10    3.33    0.26
   0  -8 -11    5.52    0.45
   0   8 -11    6.06    0.47
   0  -8 -11    5.84    0.35
   0   8 -12    4.03    0.41
   0  -8 -12    3.74    0.29
   0  -8 -12    3.94    0.41
   0  -8 -13   20.85    0.74
   0  -8 -13   19.98    0.98
   0   8 -13   19.68    0.98
   0  -8 -14    3.12    0.40
   0   8 -14    3.19    0.41
   0   8 -15    0.49    0.23
   0  -8 -15    0.27    0.16
   0   8 -16    2.43    0.39
   0  -8 -16    3.19    0.42
   0  -8 -17    4.64    0.51
   0  -8 -17    4.83    0.54
   0   8 -17    4.51    0.53
   0  -8 -18    4.63    0.52
   0   8 -18    3.92    0.50
   0  -8 -18    4.34    0.53
   0   8 -19    1.12    0.32
   0  -8 -19    1.48    0.31
   0  -8 -19    1.45    0.31
   0  -8 -20    1.40    0.34
   0  -8 -20    2.04    0.39
   0   8 -20    1.01    0.29
   0  -8 -21    2.43    0.44
   0   8 -21    2.93    0.49
   0  -8 -21    2.49    0.40
   0  -8 -22    0.62    0.28
   0   8 -22    0.71    0.31
   0  -8 -22    1.04    0.33
   0  -8 -23    3.17    0.49
   0  -8 -23    2.31    0.44
   0   8 -23    2.38    0.47
   0   8 -24    1.10    0.38
   0  -8 -24    1.10    0.36
   0 -10   0   24.17    0.90
   0 -10   1   26.64    0.93
   0 -10  -1   27.45    1.00
   0 -10  -2   20.45    0.87
   0 -10   2   23.14    0.82
   0 -10  -3   12.85    0.67
   0 -10   3   11.90    0.55
   0  10   3   12.73    0.52
   0  10  -3   13.29    0.51
   0  10   4   12.82    0.54
   0  10  -4   13.68    0.54
   0 -10  -4   13.00    0.69
   0 -10   4   12.40    0.54
   0 -10   5    5.52    0.33
   0  10   5    5.64    0.35
   0 -10  -5    5.06    0.44
   0  10  -5    4.79    0.33
   0 -10   6   16.98    0.60
   0  10  -6   15.28    0.65
   0  10  -7   37.02    1.14
   0 -10   7   32.54    0.94
   0  10  -8    0.20    0.13
   0 -10   8    0.38    0.09
   0 -10   9    1.81    0.15
   0  10  -9    1.15    0.22
   0  10 -10    3.79    0.38
   0  10 -11    8.68    0.59
   0 -10 -11    8.34    0.58
   0  10 -12   33.73    1.31
   0 -10 -12   34.86    1.33
   0  10 -13    1.91    0.31
   0 -10 -13    2.60    0.35
   0 -10 -14    2.87    0.44
   0 -10 -14    2.43    0.36
   0  10 -15    5.50    0.55
   0 -10 -15    5.17    0.55
   0 -10 -15    6.37    0.61
   0 -10 -16    4.07    0.52
   0  10 -16    3.51    0.46
   0 -10 -16    3.79    0.47
   0 -10 -17    3.31    0.46
   0  10 -17    3.71    0.47
   0 -10 -17    3.64    0.48
   0 -10 -18    0.40    0.23
   0  10 -18    0.20    0.19
   0 -10 -18    0.51    0.26
   0 -10 -19    1.02    0.32
   0 -10 -19    1.16    0.33
   0  10 -19    1.04    0.29
   0  10 -20    0.72    0.29
   0 -10 -20    0.37    0.21
   0 -10 -20    0.54    0.24
   0 -10 -21    0.16    0.20
   0 -10 -21    0.44    0.23
   0  10 -21    0.20    0.17
   0 -10 -22    0.49    0.27
   0 -10 -22    0.64    0.30
   0  10 -22    0.31    0.21
   0 -10 -23    4.36    0.63
   0  10 -23    4.35    0.61
   0 -10 -23    3.20    0.54
   0 -10 -24    0.29    0.22
   0  10 -24    0.46    0.29
   0 -12   0    6.16    0.45
   0 -12   1    5.09    0.41
   0 -12  -1    5.44    0.44
   0 -12   2    6.27    0.43
   0 -12  -2    6.05    0.47
   0 -12  -3    2.48    0.33
   0  12  -3    2.75    0.24
   0  12   3    2.20    0.22
   0 -12   3    2.58    0.27
   0  12   4    9.90    0.50
   0 -12   4   10.44    0.55
   0  12  -4   11.53    0.52
   0 -12  -4   11.10    0.68
   0 -12  -5   18.84    0.93
   0 -12   5   17.98    0.72
   0  12  -5   18.40    0.72
   0 -12   6    1.01    0.17
   0  12  -6    1.19    0.19
   0 -12  -6    1.08    0.25
   0 -12  -7   13.82    0.80
   0 -12   7   12.27    0.55
   0  12  -7   13.47    0.64
   0 -12  -8    6.73    0.58
   0 -12   8    6.57    0.36
   0  12  -8    6.10    0.44
   0  12  -9    5.92    0.45
   0 -12  -9    6.44    0.58
   0 -12   9    6.65    0.34
   0 -12 -10    4.88    0.50
   0 -12  10    5.40    0.28
   0  12 -10    4.89    0.43
   0  12 -11    8.68    0.60
   0 -12 -11    8.33    0.68
   0 -12 -12    9.36    0.75
   0  12 -12    9.15    0.64
   0 -12 -13    2.56    0.40
   0  12 -13    2.45    0.35
   0  12 -14    1.33    0.26
   0 -12 -14    1.55    0.32
   0  12 -15    0.15    0.15
   0 -12 -15    0.17    0.23
   0 -12 -16    6.07    0.65
   0  12 -16    6.69    0.62
   0 -12 -17    0.44    0.28
   0  12 -17    0.87    0.28
   0  12 -18    5.13    0.59
   0 -12 -18    5.36    0.63
   0 -12 -19    2.91    0.48
   0  12 -19    1.62    0.35
   0 -12 -20    1.47    0.36
   0  12 -20    1.21    0.32
   0  12 -21    0.24    0.19
   0 -12 -21   -0.12    0.28
   0 -12 -22    0.10    0.22
   0  12 -22   -0.08    0.21
   0 -12 -23    1.97    0.43
   0  12 -23    2.49    0.50
   0 -12 -24   -0.27    0.26
   0 -14   0    0.50    0.19
   0 -14   1    2.66    0.33
   0 -14  -1    2.55    0.33
   0 -14  -2    3.88    0.42
   0 -14   2    4.28    0.40
   0  14  -3    8.20    0.44
   0 -14  -3    7.53    0.59
   0  14   3    8.68    0.47
   0 -14   3    7.96    0.53
   0  14  -4    0.86    0.18
   0 -14  -4    0.60    0.23
   0 -14   4    0.29    0.14
   0 -14  -5    7.34    0.60
   0  14  -5    7.28    0.44
   0 -14   5    6.59    0.46
   0 -14   6    2.56    0.28
   0  14  -6    2.28    0.26
   0 -14  -6    2.48    0.36
   0  14  -7    1.61    0.24
   0 -14   7    1.65    0.22
   0 -14  -7    1.51    0.34
   0 -14  -8    1.76    0.36
   0  14  -8    1.97    0.28
   0 -14   8    1.26    0.20
   0 -14  -9    5.01    0.55
   0  14  -9    5.40    0.44
   0 -14   9    4.82    0.33
   0 -14 -10    0.70    0.30
   0 -14  10    0.57    0.12
   0  14 -10    0.65    0.20
   0 -14 -11    6.63    0.64
   0  14 -11    6.34    0.53
   0  14 -12    9.00    0.64
   0 -14 -12    8.56    0.75
   0 -14 -13    7.12    0.70
   0  14 -13    6.58    0.57
   0  14 -14    1.22    0.27
   0 -14 -14    1.51    0.40
   0  14 -15    8.54    0.69
   0 -14 -15    8.34    0.78
   0 -14 -16    0.35    0.29
   0  14 -16    0.59    0.25
   0 -14 -17    0.62    0.33
   0  14 -17    0.26    0.19
   0 -14 -18    0.58    0.32
   0  14 -18    0.81    0.26
   0 -14 -19    4.72    0.64
   0  14 -19    5.10    0.61
   0 -14 -20    2.58    0.50
   0  14 -20    1.67    0.36
   0  14 -21    0.62    0.28
   0 -14 -21    0.68    0.30
   0  14 -22    0.19    0.26
   0 -14 -22    0.45    0.30
   0  14 -23    2.55    0.49
   0 -14 -23    2.59    0.52
   0 -16   0    0.12    0.17
   0 -16  -1    0.95    0.27
   0 -16   1    0.33    0.17
   0 -16   2   13.73    0.77
   0  16  -2   12.69    0.59
   0 -16  -2   12.37    0.78
   0 -16   3    3.36    0.38
   0  16  -3    3.23    0.29
   0 -16  -3    3.40    0.42
   0 -16   4    5.82    0.46
   0 -16  -4    5.46    0.54
   0  16  -4    5.63    0.40
   0  16  -5    0.19    0.15
   0 -16   5    0.12    0.13
   0 -16  -5    0.04    0.18
   0 -16   6    7.04    0.50
   0 -16  -6    6.54    0.62
   0  16  -6    6.50    0.45
   0  16  -7    9.91    0.58
   0 -16  -7   11.05    0.81
   0 -16   7    9.57    0.57
   0  16  -8   14.02    0.72
   0 -16   8   11.30    0.61
   0 -16  -8   12.87    0.90
   0 -16  -9    5.42    0.59
   0  16  -9    5.04    0.44
   0 -16   9    5.30    0.39
   0 -16 -10    0.22    0.21
   0  16 -10    0.25    0.15
   0  16 -11    1.96    0.31
   0 -16 -11    3.38    0.49
   0  16 -12    8.51    0.63
   0 -16 -12    8.89    0.80
   0 -16 -13    8.44    0.81
   0  16 -13    5.95    0.56
   0 -16 -14    1.96    0.44
   0  16 -14    3.36    0.45
   0 -16 -15    0.78    0.28
   0  16 -15    0.76    0.26
   0  16 -16    7.00    0.67
   0 -16 -16    6.43    0.73
   0  16 -17    2.06    0.40
   0 -16 -17    2.14    0.45
   0  16 -18    0.06    0.17
   0 -16 -18    0.52    0.31
   0  16 -19    0.28    0.19
   0 -16 -19    0.41    0.24
   0  16 -20    0.93    0.31
   0 -16 -20    1.52    0.46
   0 -16 -21    0.02    0.25
   0  16 -21    0.53    0.29
   0  16 -22    0.28    0.20
   0 -18   0    2.57    0.39
   0 -18   1   15.66    0.91
   0 -18  -1   17.17    0.98
   0 -18   2    2.20    0.35
   0 -18  -2    3.11    0.43
   0  18  -2    2.81    0.29
   0 -18  -3    2.26    0.36
   0  18  -3    2.65    0.27
   0 -18   3    2.32    0.35
   0 -18  -4    0.48    0.24
   0  18  -4    0.11    0.12
   0 -18   4    0.53    0.20
   0 -18   5    4.95    0.46
   0 -18  -5    4.72    0.55
   0  18  -5    5.28    0.40
   0 -18  -6   12.52    0.90
   0 -18   6   13.94    0.75
   0  18  -6   13.29    0.69
   0  18  -7    0.59    0.19
   0 -18  -7    0.35    0.26
   0 -18   7    0.13    0.15
   0 -18   8    5.34    0.44
   0  18  -8    5.97    0.48
   0 -18  -8    6.66    0.67
   0 -18  -9    6.58    0.69
   0  18  -9    5.37    0.47
   0 -18 -10    1.54    0.41
   0  18 -10    1.24    0.25
   0 -18 -11    1.91    0.45
   0  18 -11    2.11    0.34
   0  18 -12    3.64    0.43
   0 -18 -12    3.00    0.51
   0 -18 -13    1.32    0.36
   0  18 -13    0.97    0.24
   0 -18 -14    1.25    0.40
   0  18 -14    0.80    0.23
   0 -18 -15    1.33    0.35
   0  18 -15    0.37    0.21
   0 -18 -16    2.06    0.46
   0  18 -16    2.13    0.39
   0 -18 -17    0.10    0.23
   0  18 -17    0.45    0.24
   0 -18 -18    0.33    0.31
   0 -20   0    0.04    0.17
   0 -20   1    5.53    0.56
   0 -20  -1    4.99    0.55
   0 -20   2    0.00    0.18
   0 -20  -2    0.52    0.26
   0 -20  -3    8.68    0.75
   0 -20   3    9.39    0.70
   0 -20  -4    0.90    0.28
   0 -20   4    0.72    0.24
   0 -20   5    6.19    0.55
   0 -20  -5    6.65    0.69
   0 -20   6    0.76    0.21
   0 -20  -6    1.01    0.29
   0 -20   7    2.02    0.31
   0 -20  -7    1.70    0.39
   0 -20  -8    1.19    0.39
   0 -20  -9    8.51    0.81
   0 -20 -10    0.31    0.29
   0 -20 -11    0.53    0.29
   0 -20 -12    1.52    0.42
   0 -20 -13    0.11    0.23
   0 -20 -14    1.75    0.43
   0 -20 -15    3.73    0.58
   0 -20 -16    1.51    0.43
   0 -22   0    2.06    0.37
   0 -22  -1   -0.13    0.23
   0 -22   1   -0.13    0.21
   0 -22  -2    2.00    0.40
   0 -22   2    2.30    0.37
   0 -22   3    0.09    0.18
   0 -22  -3    0.31    0.26
   0 -22   4    0.48    0.19
   0 -22  -4    1.28    0.38
   0 -22  -5    0.32    0.26
   0 -22   5    0.34    0.18
   0 -22  -6    2.16    0.44
   0 -22  -7   -0.13    0.24
   0 -22  -8    2.63    0.51
   0 -22  -9    0.40    0.28
   0 -22 -10    1.13    0.38
   0 -22 -11    0.71    0.36
   0 -22 -12    1.79    0.48
   0 -22 -13    0.14    0.28
   0 -24   0    0.06    0.22
   0 -24   1    2.05    0.43
   0 -24  -1    1.12    0.32
   0 -24   2    2.13    0.42
   0 -24  -2    2.20    0.44
   0 -24  -3    0.22    0.20
   0 -24   3    0.07    0.17
   0 -24  -4    0.37    0.23
   0 -24  -5    1.62    0.41
   0 -24  -6    0.90    0.37
   0 -24  -7    0.00    0.27
   0 -24  -8    0.46    0.27
   0 -24  -9    2.41    0.50
   0 -24 -10    1.78    0.50
   0 -26   0    0.29    0.25
   0 -26  -1    1.17    0.34
   0 -26   1    0.88    0.29
   0 -26  -2    0.78    0.31
   0 -26  -3    0.12    0.20
   0 -26  -4    0.28    0.23
   0 -26  -5    2.91    0.53
   0 -26  -6    0.94    0.34
   0 -28  -1   -0.20    0.28
   1  -1 -25    2.02    0.45
   1   1 -25    1.51    0.42
   1   1 -24    0.94    0.30
   1  -1 -24    0.49    0.26
   1  -1 -23    3.52    0.52
   1   1 -23    3.42    0.54
   1  -1 -22    0.43    0.23
   1   1 -22    0.31    0.20
   1   1 -21    3.76    0.55
   1  -1 -21    3.91    0.53
   1   1 -20    2.34    0.41
   1  -1 -20    3.20    0.48
   1   1 -19    4.32    0.54
   1  -1 -19    3.73    0.50
   1  -1 -18    4.67    0.54
  -1  -1  18    3.87    0.29
   1   1 -18    3.70    0.48
   1   1 -17   10.97    0.79
   1  -1 -17    9.43    0.74
  -1   1  17   10.65    0.44
   1   1 -16    0.52    0.21
  -1   1  16    0.66    0.11
   1  -1 -16    0.65    0.22
   1  -1 -15    0.10    0.19
  -1   1  15    0.24    0.08
  -1   1  14    0.27    0.08
   1   1 -14    0.26    0.16
   1  -1 -14    0.51    0.19
   1   1 -13   12.25    0.71
  -1   1  13   11.23    0.42
   1  -1 -13   13.08    0.74
   1  -1 -12    7.58    0.53
  -1   1  12    8.06    0.32
   1   1 -12    7.41    0.53
  -1   1  11   29.84    0.76
   1  -1 -11   28.89    1.09
   1   1 -10    7.99    0.50
   1  -1 -10    8.21    0.51
  -1   1  10    8.25    0.30
  -1   1   9   25.60    0.65
   1   1  -9   27.26    0.96
   1  -1  -9   27.95    0.96
   1   1  -8    1.87    0.22
   1  -1  -8    1.59    0.20
  -1   1   8    1.37    0.10
   1   1  -7   19.89    0.72
   1  -1  -7   20.26    0.72
  -1   1   7   19.71    0.48
   1   1  -6    3.95    0.27
   1  -1  -6    3.24    0.25
   1   1  -5   20.72    0.66
   1  -1  -5   21.53    0.66
   1   1  -4   18.64    0.58
   1  -1  -4   19.41    0.57
   1   1  -3  263.19    5.23
   1  -1  -3  259.42    5.21
  -1  -1  -3   21.66    0.58
  -1   1  -3   21.11    0.60
  -1  -1  -3   20.47    0.61
  -1  -1  -3   21.56    0.58
  -1  -1  -4   38.03    1.01
   1   1   4   36.72    0.93
  -1   1  -4   38.26    1.00
  -1  -1  -4   38.60    0.94
  -1   1  -4   38.15    0.84
  -1  -1  -5   10.94    0.40
  -1   1  -5   10.31    0.32
  -1   1  -5   11.11    0.45
   1   1   5   11.23    0.40
  -1  -1  -5   10.51    0.45
  -1   1  -6    2.66    0.24
  -1  -1  -6    2.39    0.22
   1   1   6    2.49    0.18
  -1  -1  -7   27.48    0.93
   1   1   7   28.13    0.80
  -1   1  -7   27.88    0.92
  -1  -1  -8   62.61    1.69
  -1   1  -8   60.25    1.68
   1   1   8   62.33    1.51
  -1  -1  -9    5.64    0.42
   1   1   9    5.74    0.32
  -1   1  -9    5.91    0.42
  -1   1 -10    8.97    0.55
  -1  -1 -10    8.28    0.53
   1   1  10    9.16    0.43
  -1   1 -11   21.16    0.93
  -1  -1 -11   20.89    0.92
   1   1  11   22.34    0.75
  -1  -1 -12    4.54    0.43
   1   1  12    3.93    0.29
  -1   1 -12    4.44    0.42
  -1   1 -13    6.50    0.53
   1   1  13    7.47    0.42
  -1  -1 -13    7.40    0.45
  -1  -1 -13    6.69    0.54
  -1   1 -13    7.43    0.40
  -1  -1 -14    3.25    0.32
  -1   1 -14    3.23    0.39
   1   1  14    2.62    0.26
  -1  -1 -14    2.97    0.38
  -1   1 -14    3.29    0.28
  -1   1 -15   13.33    0.83
  -1   1 -15   12.81    0.59
  -1  -1 -15   13.02    0.66
  -1  -1 -15   14.41    0.86
   1   1  15   13.91    0.62
   1  -1  16    1.59    0.22
   1   1  16    1.28    0.19
  -1   1 -16    1.84    0.24
  -1   1 -16    2.06    0.37
  -1  -1 -16    1.80    0.26
  -1  -1 -16    1.61    0.33
  -1  -1 -17    7.11    0.50
   1  -1  17    7.47    0.49
  -1   1 -17    7.67    0.66
  -1  -1 -17    7.34    0.65
   1   1  17    7.29    0.45
  -1   1 -17    8.16    0.47
  -1   1 -18    2.51    0.42
   1   1  18    2.07    0.24
  -1  -1 -18    2.19    0.29
  -1  -1 -18    2.15    0.40
   1  -1  18    1.52    0.23
  -1   1 -18    2.46    0.28
  -1  -1 -19    0.13    0.13
  -1  -1 -19    0.28    0.17
  -1   1 -19    0.03    0.21
  -1  -1 -20    0.17    0.20
  -1   1 -20    0.05    0.18
  -1  -1 -21    2.44    0.43
  -1   1 -21    2.38    0.43
  -1   1 -22    1.74    0.41
  -1  -1 -22    2.37    0.47
  -1   1 -23    1.48    0.39
  -1  -1 -23    1.18    0.32
  -1   1 -24    0.91    0.33
  -1  -1 -24    1.00    0.35
   1  -3 -25    0.01    0.22
   1   3 -25   -0.28    0.32
   1   3 -24    2.52    0.50
   1  -3 -24    2.17    0.43
   1  -3 -23    0.81    0.28
   1   3 -23    1.01    0.32
   1  -3 -22    0.32    0.24
   1   3 -22    0.46    0.26
   1  -3 -21    0.30    0.21
   1   3 -21    0.16    0.20
   1   3 -20    2.55    0.42
   1  -3 -20    1.72    0.35
   1  -3 -19    0.39    0.21
   1   3 -19    0.84    0.27
   1   3 -18    3.21    0.47
   1  -3 -18    3.26    0.45
   1   3 -17    7.20    0.64
   1  -3 -17    8.32    0.68
   1  -3 -16    3.53    0.44
   1   3 -16    4.04    0.48
   1  -3 -15    6.57    0.57
   1   3 -15    6.38    0.56
   1   3 -14    1.17    0.26
   1  -3 -14    1.46    0.28
   1  -3 -13    8.21    0.59
   1   3 -13    8.40    0.60
   1  -3 -12    1.49    0.25
   1   3 -12    1.31    0.25
   1   3 -11   12.64    0.69
   1  -3 -11   13.26    0.69
   1   3 -10   84.62    2.24
   1  -3 -10   84.58    2.22
   1   3  -9    5.80    0.41
   1  -3  -9    6.66    0.43
   1   3  -8   11.98    0.57
   1  -3  -8   12.10    0.56
   1   3  -7   31.75    0.99
   1  -3  -7   31.43    0.98
   1  -3  -7   31.32    0.72
   1   3  -7   33.91    0.82
   1  -3  -6   76.84    1.86
   1   3  -6   77.30    1.88
   1  -3  -6   75.89    1.61
   1  -3  -5    1.19    0.14
   1   3  -5    1.10    0.11
   1   3  -5    0.84    0.15
   1  -3  -4   35.02    0.90
   1   3  -4   35.75    0.85
  -1  -3   4   33.59    0.84
   1   3  -4   35.72    0.93
   1  -3  -3  109.40    2.31
   1   3  -3  113.23    2.31
  -1  -3   3  111.49    2.31
   1   3  -3  108.90    2.36
   1  -3  -2   44.34    0.95
  -1  -3   2   41.89    1.00
  -1  -3   1   44.73    1.05
  -1  -3   0   26.62    0.70
  -1  -3  -1  123.56    2.62
  -1  -3  -2   18.06    0.57
  -1   3  -2   17.76    0.48
   1  -3   2   18.18    0.48
  -1  -3  -3   11.66    0.46
  -1   3  -3   12.33    0.41
   1  -3   3   12.53    0.41
  -1  -3  -3   12.66    0.42
  -1   3  -4   14.85    0.51
  -1  -3  -4   15.34    0.55
  -1  -3  -4   15.46    0.55
  -1  -3  -4   15.26    0.50
   1  -3   4   14.33    0.50
   1   3   5    7.69    0.33
   1  -3   5    7.96    0.37
  -1   3  -5    7.74    0.37
  -1  -3  -5    7.42    0.33
  -1  -3  -5    8.01    0.39
  -1  -3  -5    7.44    0.39
   1   3   6    9.11    0.38
  -1  -3  -6   10.37    0.40
  -1   3  -6    9.32    0.44
  -1  -3  -6    9.59    0.47
   1  -3   6    8.73    0.43
  -1  -3  -6   10.23    0.46
   1   3   7   25.81    0.77
  -1  -3  -7   26.80    0.78
   1  -3   7   28.79    0.90
  -1  -3  -7   26.29    0.92
  -1   3  -7   26.41    0.89
  -1  -3  -8   25.63    0.91
  -1   3  -8   26.38    0.90
   1   3   8   25.32    0.74
  -1  -3  -9   26.28    0.98
  -1   3  -9   24.89    0.94
   1   3   9   25.86    0.78
  -1   3  -9   24.16    0.63
  -1   3 -10   10.01    0.35
  -1   3 -10    9.50    0.57
   1   3  10   10.27    0.45
  -1  -3 -10    9.75    0.59
  -1   3 -11    9.81    0.37
  -1  -3 -11    9.86    0.61
   1   3  11   10.16    0.46
  -1   3 -11    9.18    0.59
  -1   3 -12    2.29    0.18
   1   3  12    2.49    0.23
  -1  -3 -12    2.09    0.31
  -1   3 -12    1.65    0.28
  -1  -3 -13    4.03    0.42
   1   3  13    4.16    0.30
  -1   3 -13    4.34    0.26
  -1  -3 -13    4.34    0.38
  -1   3 -13    3.80    0.42
  -1  -3 -14   10.21    0.61
  -1   3 -14    8.68    0.65
  -1  -3 -14    8.88    0.65
  -1   3 -14    9.73    0.42
   1   3  14   10.05    0.49
  -1  -3 -15    2.96    0.41
  -1   3 -15    3.14    0.24
   1   3  15    2.87    0.26
  -1  -3 -15    3.80    0.38
  -1   3 -15    3.34    0.42
   1   3  16    4.81    0.35
  -1  -3 -16    5.17    0.46
  -1  -3 -16    5.41    0.55
  -1   3 -16    4.67    0.52
  -1   3 -16    4.43    0.29
  -1  -3 -17    3.67    0.48
   1   3  17    3.63    0.31
  -1   3 -17    3.31    0.45
  -1  -3 -17    3.03    0.36
  -1  -3 -18   17.49    0.88
  -1   3 -18   15.55    1.00
  -1  -3 -18   17.20    1.05
  -1  -3 -19    1.70    0.29
  -1  -3 -19    1.80    0.37
  -1   3 -19    1.37    0.33
  -1   3 -20   -0.03    0.21
  -1  -3 -20    0.28    0.22
  -1  -3 -20    0.67    0.21
  -1   3 -21    2.56    0.45
  -1  -3 -21    2.05    0.41
  -1   3 -22    5.65    0.68
  -1  -3 -22    6.46    0.70
  -1  -3 -23    2.58    0.49
  -1   3 -23    2.37    0.48
  -1  -3 -24    1.79    0.44
  -1   3 -24    2.59    0.50
   1   5 -25    6.44    0.76
   1  -5 -25    6.71    0.79
   1   5 -24    1.00    0.37
   1  -5 -24    0.39    0.27
   1   5 -23    5.38    0.68
   1  -5 -23    4.68    0.61
   1  -5 -22    0.26    0.19
   1   5 -22    0.37    0.25
   1  -5 -21    1.87    0.36
   1   5 -21    2.02    0.39
   1  -5 -20    1.37    0.33
   1   5 -20    1.82    0.37
   1   5 -19    3.57    0.48
   1  -5 -19    2.65    0.43
   1  -5 -18    0.79    0.22
   1   5 -18    0.68    0.25
   1  -5 -17   12.89    0.85
   1   5 -17   12.36    0.84
   1  -5 -16    7.71    0.64
   1   5 -16    7.54    0.65
   1   5 -15    9.34    0.69
   1  -5 -15    9.24    0.67
   1   5 -15    9.75    0.43
   1   5 -14    0.35    0.10
   1   5 -14    0.09    0.21
   1   5 -13    6.63    0.54
   1  -5 -13    7.63    0.56
   1   5 -13    7.91    0.36
   1  -5 -12    2.96    0.34
   1   5 -12    3.27    0.22
   1   5 -12    2.92    0.33
   1   5 -11    0.36    0.08
   1  -5 -11    0.15    0.12
   1   5 -11    0.34    0.16
   1  -5 -10    2.36    0.27
   1   5 -10    2.44    0.18
   1  -5 -10    2.15    0.15
   1   5 -10    2.49    0.29
   1  -5  -9   10.71    0.56
   1   5  -9   10.12    0.56
   1   5  -9   11.08    0.40
   1  -5  -9   10.40    0.37
   1   5  -8    3.05    0.29
   1   5  -8    2.63    0.18
   1  -5  -8    2.65    0.26
   1  -5  -8    3.02    0.17
  -1   5   7    6.53    0.37
   1   5  -7    6.64    0.40
   1  -5  -7    5.81    0.36
   1   5  -7    6.38    0.28
   1  -5  -6   33.41    0.98
   1   5  -6   33.71    1.01
   1   5  -6   33.03    0.86
  -1   5   6   33.37    0.97
  -1  -5   6   33.76    1.00
  -1  -5   6   34.69    0.86
   1  -5  -5    6.31    0.31
   1   5  -5    5.57    0.32
  -1   5   5    5.43    0.29
  -1  -5   5    5.50    0.32
   1   5  -5    6.22    0.28
  -1  -5   5    5.68    0.26
  -1  -5   4    0.36    0.09
   1   5  -4    0.35    0.11
  -1   5   4    0.29    0.07
   1  -5  -4    0.43    0.09
   1   5  -4    0.46    0.09
  -1   5   3   53.87    1.22
   1  -5  -3   53.74    1.22
   1   5  -3   53.61    1.27
   1   5  -3   50.27    1.28
  -1  -5   3   55.27    1.28
  -1   5   2   27.99    0.67
  -1  -5   2   28.40    0.78
   1   5  -2   26.52    0.77
  -1  -5   1   65.42    1.55
  -1  -5   0  166.77    3.54
  -1  -5  -1   57.52    1.46
  -1   5  -1   59.02    1.25
  -1   5  -2  123.63    2.56
  -1  -5  -2  121.43    2.77
   1  -5   2  126.31    2.56
   1   5   3   34.37    0.96
  -1   5  -3   34.84    0.88
   1  -5   3   35.30    0.82
  -1  -5  -3   34.34    1.03
   1  -5   3   35.34    0.88
   1   5   4   34.77    0.98
   1  -5   4   35.58    0.91
  -1   5  -4   33.92    0.91
  -1  -5  -4   34.40    1.04
   1  -5   4   32.25    0.75
  -1  -5  -5    3.38    0.29
  -1   5  -5    2.80    0.22
  -1  -5  -5    3.10    0.24
   1   5   5    4.21    0.29
   1  -5   5    4.17    0.26
  -1  -5  -6   12.72    0.59
   1   5   6   12.20    0.55
   1  -5   6   12.70    0.52
  -1   5  -6   12.25    0.52
  -1  -5  -6   11.89    0.55
  -1  -5  -6   12.09    0.49
   1  -5   7    0.14    0.10
  -1   5  -7    0.31    0.11
  -1  -5  -7    0.42    0.15
  -1  -5  -7    0.23    0.10
  -1  -5  -7    0.37    0.08
  -1  -5  -8    6.79    0.44
  -1   5  -8    6.85    0.43
  -1  -5  -8    6.92    0.36
  -1  -5  -8    6.72    0.45
  -1   5  -9   24.78    0.94
  -1  -5  -9   25.14    0.96
  -1  -5  -9   25.26    0.81
  -1  -5  -9   24.91    0.97
  -1   5 -10    8.57    0.53
  -1  -5 -10    8.66    0.55
  -1  -5 -10    8.92    0.54
  -1  -5 -11   36.32    1.32
  -1   5 -11   36.50    1.29
  -1  -5 -11   35.68    1.26
  -1  -5 -12    1.30    0.25
  -1   5 -12    1.04    0.24
  -1  -5 -12    1.72    0.28
  -1  -5 -13   19.44    0.98
  -1   5 -13   18.68    0.94
  -1  -5 -13   21.73    0.96
  -1   5 -14    3.91    0.17
  -1  -5 -14    4.50    0.47
  -1   5 -14    5.39    0.51
  -1   5 -14    3.53    0.17
  -1  -5 -14    5.91    0.48
  -1   5 -15    5.31    0.22
  -1  -5 -15    6.71    0.59
  -1  -5 -15    6.88    0.54
  -1   5 -15    7.00    0.60
  -1  -5 -16    6.41    0.54
  -1   5 -16    6.52    0.60
  -1  -5 -16    6.12    0.58
  -1  -5 -17    1.56    0.34
  -1  -5 -17    1.93    0.31
  -1   5 -17    1.68    0.36
  -1  -5 -18    2.02    0.32
  -1  -5 -18    1.95    0.36
  -1   5 -18    1.05    0.29
  -1  -5 -19    1.58    0.32
  -1  -5 -19    1.58    0.34
  -1   5 -19    1.49    0.35
  -1   5 -20    0.72    0.30
  -1  -5 -20   -0.07    0.22
  -1  -5 -20    0.39    0.20
  -1   5 -21    6.99    0.72
  -1  -5 -21    6.91    0.61
  -1  -5 -21    5.59    0.67
  -1   5 -22    1.30    0.35
  -1  -5 -22    1.63    0.38
  -1   5 -23    2.74    0.48
  -1  -5 -23    1.65    0.43
  -1  -5 -24    0.34    0.22
  -1   5 -24    0.21    0.25
   1  -7 -25    2.85    0.52
   1  -7 -24    1.53    0.38
   1   7 -24    2.25    0.47
   1   7 -23    1.41    0.41
   1  -7 -23    1.04    0.33
   1  -7 -23    1.29    0.35
   1  -7 -22    1.83    0.38
   1  -7 -22    1.84    0.41
   1   7 -22    1.37    0.36
   1   7 -21    2.29    0.41
   1  -7 -21    2.01    0.41
   1   7 -20    3.91    0.55
   1  -7 -20    3.01    0.47
   1   7 -19    4.03    0.52
   1  -7 -19    3.44    0.49
   1  -7 -18    2.09    0.37
   1   7 -18    1.58    0.34
   1   7 -17    6.77    0.63
   1  -7 -17    7.42    0.65
   1  -7 -16    6.57    0.59
   1   7 -16    5.83    0.57
   1   7 -15   -0.04    0.19
   1  -7 -15    0.17    0.17
   1  -7 -14    7.34    0.58
   1   7 -14    6.18    0.30
   1   7 -14    6.27    0.55
   1   7 -13   22.90    0.68
   1  -7 -13   23.15    1.03
   1   7 -13   22.27    1.04
   1   7 -12   12.53    0.46
   1   7 -12   11.74    0.70
   1  -7 -12   13.34    0.48
   1  -7 -12   12.40    0.70
   1  -7 -11    0.47    0.17
   1   7 -11    0.78    0.21
   1  -7 -11    0.51    0.10
   1   7 -11    0.60    0.10
   1   7 -10    8.84    0.55
   1   7 -10    9.02    0.37
   1  -7 -10    9.06    0.39
   1  -7 -10    9.48    0.55
   1   7  -9   21.45    0.87
   1  -7  -9   20.43    0.83
   1  -7  -9   21.13    0.67
   1   7  -9   22.28    0.65
   1  -7  -8    3.27    0.29
   1   7  -8    2.89    0.20
   1   7  -8    3.05    0.30
   1   7  -7   24.25    0.70
   1  -7  -7   24.06    0.83
   1   7  -7   23.66    0.86
  -1  -7   7   23.73    0.69
  -1   7   7   22.30    0.80
   1  -7  -6    1.24    0.16
   1   7  -6    1.14    0.17
  -1   7   6    1.06    0.15
   1   7  -6    1.10    0.14
  -1  -7   6    1.21    0.14
  -1  -7   5    7.20    0.34
   1  -7  -5    7.53    0.36
   1   7  -5    7.68    0.40
   1   7  -5    8.14    0.36
  -1   7   5    7.18    0.36
  -1  -7   4    6.27    0.32
   1   7  -4    5.19    0.30
   1   7  -4    5.09    0.32
  -1   7   4    6.14    0.29
   1   7  -3   80.41    1.94
  -1   7   3   81.42    1.81
  -1  -7   3   85.08    1.93
   1   7  -2    6.45    0.37
  -1   7   2    6.47    0.26
  -1  -7   2    6.84    0.36
  -1  -7   1   10.38    0.47
   1   7  -1    9.17    0.46
  -1  -7   0   29.31    0.93
  -1  -7  -1    0.53    0.15
  -1   7  -1    0.74    0.08
  -1  -7  -2   26.80    0.91
  -1   7  -2   27.60    0.70
   1  -7   2   25.08    0.77
   1  -7   3    2.10    0.17
  -1  -7  -3    2.11    0.24
  -1   7  -3    2.47    0.18
   1   7   4   16.29    0.63
   1  -7   4   16.01    0.50
  -1  -7  -4   17.54    0.73
   1  -7   4   17.20    0.56
  -1   7  -4   17.26    0.57
   1   7   5   14.79    0.61
   1  -7   5   15.48    0.56
  -1   7  -5   13.82    0.54
  -1  -7  -5   13.37    0.65
   1  -7   5   14.81    0.44
   1  -7   6    1.90    0.19
  -1   7  -6    1.24    0.17
   1  -7   6    1.37    0.10
  -1  -7  -6    1.88    0.26
  -1   7  -7    7.69    0.44
  -1  -7  -7    7.72    0.51
  -1  -7  -7    8.65    0.44
  -1   7  -8    2.06    0.24
  -1  -7  -8    3.03    0.30
  -1  -7  -8    2.35    0.23
  -1  -7  -8    3.21    0.34
  -1   7  -9    6.33    0.44
  -1  -7  -9    6.21    0.48
  -1  -7  -9    6.48    0.38
  -1  -7  -9    6.51    0.47
  -1  -7 -10   16.41    0.81
  -1  -7 -10   17.01    0.67
  -1   7 -10   15.97    0.77
  -1  -7 -10   16.73    0.83
  -1  -7 -11   13.13    0.75
  -1  -7 -11   13.67    0.75
  -1   7 -11   13.70    0.73
  -1  -7 -11   13.66    0.60
  -1   7 -12    5.02    0.45
  -1  -7 -12    4.55    0.45
  -1  -7 -12    5.06    0.35
  -1  -7 -12    6.12    0.50
  -1  -7 -13    1.74    0.32
  -1   7 -13    1.34    0.26
  -1  -7 -13    2.25    0.34
  -1  -7 -14    1.57    0.31
  -1   7 -14    1.50    0.29
  -1  -7 -14    1.57    0.32
  -1  -7 -15    8.56    0.65
  -1   7 -15    8.01    0.65
  -1  -7 -15    8.19    0.67
  -1  -7 -16    1.05    0.26
  -1   7 -16    0.92    0.24
  -1  -7 -16    0.87    0.23
  -1   7 -17    6.28    0.61
  -1  -7 -17    5.52    0.54
  -1  -7 -17    5.60    0.59
  -1  -7 -18    0.77    0.25
  -1  -7 -18    0.84    0.26
  -1   7 -18    1.11    0.31
  -1  -7 -19    5.99    0.65
  -1  -7 -19    6.40    0.61
  -1   7 -19    5.37    0.62
  -1   7 -20    5.71    0.64
  -1  -7 -20    4.47    0.58
  -1  -7 -20    5.18    0.56
  -1   7 -21   10.84    0.92
  -1  -7 -21   12.49    0.89
  -1  -7 -21   12.07    0.98
  -1  -7 -22    4.38    0.54
  -1  -7 -22    3.77    0.58
  -1   7 -22    3.35    0.53
  -1  -7 -23    0.54    0.25
  -1   7 -23    0.48    0.27
  -1  -7 -24    0.50    0.28
  -1   7 -24    0.29    0.25
   1   9 -24    1.02    0.36
   1  -9 -24    0.99    0.37
   1  -9 -24    1.01    0.34
   1   9 -23    2.11    0.43
   1  -9 -23    1.62    0.38
   1  -9 -23    1.77    0.40
   1   9 -22    0.11    0.20
   1  -9 -22    0.16    0.23
   1  -9 -22    0.47    0.25
   1  -9 -21    2.15    0.41
   1  -9 -21    3.34    0.49
   1   9 -21    2.44    0.44
   1  -9 -20    2.45    0.44
   1  -9 -20    2.24    0.41
   1   9 -20    2.15    0.41
   1  -9 -19    0.19    0.15
   1   9 -19    0.27    0.22
   1   9 -18    0.61    0.26
   1  -9 -18    0.30    0.20
   1   9 -17    6.25    0.62
   1  -9 -17    7.37    0.65
   1   9 -16    5.02    0.53
   1  -9 -16    4.84    0.51
   1   9 -15    9.07    0.69
   1  -9 -15    9.61    0.69
   1  -9 -14    3.94    0.43
   1   9 -14    3.43    0.42
   1  -9 -13    0.91    0.15
   1   9 -13    0.87    0.23
   1   9 -13    0.80    0.11
   1  -9 -13    0.93    0.22
   1   9 -12    2.02    0.31
   1   9 -12    1.77    0.16
   1  -9 -12    1.58    0.27
   1  -9 -12    1.68    0.18
   1   9 -11   11.68    0.69
   1  -9 -11   12.28    0.67
   1  -9 -11   11.44    0.50
   1   9 -11   11.39    0.44
   1  -9 -10   13.89    0.56
   1   9 -10   13.47    0.71
   1   9 -10   12.47    0.49
   1  -9 -10   14.04    0.70
   1  -9  -9    1.44    0.21
   1   9  -9    1.37    0.23
   1   9  -9    0.97    0.15
  -1  -9   9    1.52    0.15
   1  -9  -8    6.08    0.40
  -1  -9   8    6.79    0.34
   1   9  -8    5.55    0.32
   1   9  -8    6.11    0.43
   1   9  -7   11.10    0.47
  -1  -9   7   10.93    0.47
   1   9  -7   12.03    0.58
  -1   9   7   10.24    0.51
   1   9  -6   54.12    1.49
  -1   9   6   54.51    1.44
  -1  -9   6   51.80    1.39
   1   9  -6   55.43    1.41
  -1   9   5   17.25    0.63
   1   9  -5   17.33    0.68
   1   9  -5   18.26    0.66
  -1  -9   5   19.13    0.67
   1   9  -4   15.12    0.62
  -1  -9   4   17.40    0.64
  -1   9   4   16.56    0.57
   1   9  -4   14.94    0.61
  -1   9   3    6.68    0.31
   1   9  -3    5.81    0.38
  -1  -9   3    6.84    0.39
  -1  -9   2   52.80    1.46
  -1   9   2   53.17    1.26
   1   9  -2   54.02    1.47
  -1  -9   1    8.87    0.48
  -1  -9   0   61.93    1.69
  -1   9  -1    1.77    0.14
   1  -9   1    2.02    0.22
  -1  -9  -1    1.80    0.24
  -1   9  -2    1.58    0.14
  -1  -9  -2    1.59    0.23
   1  -9   2    1.64    0.20
   1  -9   3   47.73    1.28
  -1   9  -3   48.70    1.20
  -1  -9  -3   47.77    1.47
  -1   9  -4   26.20    0.78
   1  -9   4   24.17    0.76
   1   9   4   25.28    0.86
  -1  -9  -4   25.71    1.00
   1  -9   5    7.50    0.34
  -1  -9  -5    7.66    0.52
  -1   9  -5    7.98    0.40
  -1   9  -6    6.49    0.39
  -1  -9  -6    6.75    0.51
   1  -9   6    7.79    0.41
   1  -9   6    7.02    0.31
  -1  -9  -7    7.35    0.54
  -1   9  -7    7.15    0.44
   1  -9   7    8.00    0.30
  -1  -9  -8    8.11    0.58
   1  -9   8    8.95    0.28
  -1   9  -8    8.11    0.49
  -1   9  -9    9.46    0.55
  -1  -9  -9    8.55    0.61
  -1   9 -10    3.59    0.35
  -1  -9 -10    4.16    0.44
  -1  -9 -11    0.60    0.23
  -1   9 -11    0.80    0.19
  -1  -9 -12    9.98    0.71
  -1   9 -12    8.93    0.62
  -1  -9 -12    9.36    0.65
  -1  -9 -13    0.66    0.23
  -1   9 -13    0.82    0.23
  -1  -9 -13    0.66    0.25
  -1  -9 -14   13.29    0.83
  -1  -9 -14   11.92    0.80
  -1   9 -14   11.88    0.78
  -1  -9 -15    2.08    0.36
  -1   9 -15    2.06    0.34
  -1  -9 -15    1.88    0.34
  -1  -9 -16    5.26    0.55
  -1   9 -16    4.69    0.51
  -1  -9 -16    4.90    0.54
  -1  -9 -17    1.42    0.33
  -1   9 -17    0.60    0.23
  -1  -9 -17    0.98    0.28
  -1  -9 -18    0.69    0.27
  -1   9 -18    0.76    0.23
  -1  -9 -18    0.38    0.22
  -1   9 -19    1.07    0.30
  -1  -9 -19    0.97    0.28
  -1  -9 -19    1.35    0.33
  -1  -9 -20   -0.04    0.21
  -1  -9 -20    0.30    0.24
  -1   9 -20   -0.11    0.21
  -1  -9 -21    0.35    0.24
  -1  -9 -21    0.05    0.18
  -1   9 -22    1.24    0.34
  -1  -9 -22    1.59    0.37
  -1  -9 -22    1.75    0.40
  -1   9 -23    1.32    0.38
  -1  -9 -23    0.74    0.28
  -1   9 -24    1.12    0.39
   1 -11 -24    0.39    0.26
   1 -11 -24   -0.04    0.26
   1  11 -24   -0.01    0.22
   1  11 -23   -0.27    0.30
   1 -11 -23    0.23    0.22
   1 -11 -23    0.20    0.24
   1  11 -22    0.25    0.20
   1 -11 -22    0.57    0.28
   1 -11 -22    0.48    0.25
   1 -11 -21    0.85    0.29
   1 -11 -21    0.80    0.28
   1  11 -21    0.63    0.26
   1 -11 -20    1.04    0.28
   1 -11 -20    1.73    0.37
   1  11 -20    1.66    0.37
   1 -11 -19    4.43    0.55
   1  11 -19    3.64    0.53
   1 -11 -19    4.07    0.53
   1  11 -18    1.91    0.40
   1 -11 -18    1.98    0.37
   1  11 -17    0.52    0.19
   1 -11 -17    0.22    0.16
   1 -11 -16    0.47    0.21
   1  11 -16    0.40    0.20
   1  11 -15    4.85    0.51
   1 -11 -15    5.44    0.52
   1 -11 -14    9.16    0.66
   1  11 -14    8.11    0.65
   1 -11 -13    2.37    0.34
   1  11 -13    1.95    0.32
   1  11 -12   12.12    0.74
   1  11 -12   12.35    0.48
   1 -11 -12   11.73    0.71
   1  11 -11   19.57    0.67
   1  11 -11   19.81    0.94
   1 -11 -11   21.01    0.93
   1  11 -10    2.32    0.31
  -1 -11  10    2.09    0.19
   1  11 -10    2.44    0.22
   1  11  -9   14.91    0.60
  -1 -11   9   16.54    0.60
   1  11  -9   15.49    0.76
   1  11  -8    9.73    0.47
  -1 -11   8   10.62    0.48
   1  11  -8    9.90    0.58
   1  11  -7    9.98    0.49
   1  11  -7   10.32    0.56
  -1 -11   7   10.46    0.50
  -1 -11   6   13.03    0.58
  -1  11   6   12.30    0.56
   1  11  -6   12.96    0.58
   1  11  -6   13.99    0.63
   1  11  -5    5.75    0.38
  -1 -11   5    5.75    0.38
   1  11  -5    4.97    0.38
  -1  11   5    5.08    0.32
  -1 -11   4    3.07    0.29
   1  11  -4    3.32    0.28
  -1  11   4    3.11    0.23
  -1  11   3   27.39    0.82
  -1 -11   3   27.50    0.98
  -1 -11   2    2.31    0.28
  -1 -11   1   15.18    0.69
   1 -11  -1   13.68    0.69
   1 -11   0    0.20    0.12
  -1 -11   0    0.93    0.20
  -1 -11  -1    5.49    0.43
   1 -11   1    4.34    0.36
   1 -11   2    6.37    0.41
  -1  11  -2    6.76    0.32
  -1 -11  -2    7.36    0.51
  -1 -11  -3   14.14    0.75
  -1  11  -3   15.47    0.56
   1 -11   3   16.32    0.66
   1 -11   4    5.93    0.36
  -1  11  -4    5.24    0.32
  -1 -11  -4    5.56    0.47
  -1  11  -5   36.78    1.07
   1 -11   5   34.20    1.04
  -1 -11  -5   37.48    1.35
  -1 -11  -6   11.50    0.71
   1 -11   6   11.73    0.48
  -1  11  -6   12.54    0.57
  -1  11  -7   12.69    0.60
  -1 -11  -7   13.02    0.77
   1 -11   7   12.61    0.48
   1 -11   8    4.06    0.23
  -1 -11  -8    4.44    0.46
  -1  11  -8    3.46    0.32
  -1  11  -9   15.07    0.75
  -1 -11  -9   16.02    0.91
  -1  11 -10    2.15    0.29
  -1 -11 -10    2.19    0.35
  -1 -11 -11   13.19    0.85
  -1  11 -11   13.69    0.75
  -1  11 -12   10.88    0.69
  -1 -11 -12   11.63    0.81
  -1  11 -13    0.99    0.25
  -1 -11 -13    1.26    0.31
  -1  11 -14    1.33    0.28
  -1 -11 -14    1.23    0.28
  -1 -11 -15    3.78    0.50
  -1  11 -15    4.40    0.49
  -1 -11 -16    0.64    0.25
  -1  11 -16    0.55    0.22
  -1  11 -17    0.35    0.21
  -1 -11 -17   -0.07    0.26
  -1 -11 -18    0.41    0.27
  -1  11 -18    0.97    0.26
  -1  11 -19   -0.16    0.21
  -1 -11 -19    0.31    0.24
  -1 -11 -20    3.31    0.53
  -1  11 -20    3.75    0.53
  -1 -11 -21    1.49    0.39
  -1  11 -21    1.35    0.36
  -1  11 -22    0.08    0.26
  -1 -11 -22    0.36    0.30
  -1  11 -23    2.52    0.50
  -1 -11 -23    2.47    0.51
   1 -13 -24    0.28    0.25
   1 -13 -23    0.70    0.38
   1  13 -23    0.20    0.22
   1 -13 -22    1.91    0.41
   1  13 -22    1.77    0.41
   1 -13 -21    2.45    0.47
   1  13 -21    2.58    0.48
   1 -13 -20    0.58    0.32
   1  13 -20    0.30    0.24
   1  13 -19    0.02    0.16
   1 -13 -19    0.05    0.22
   1 -13 -18    3.21    0.51
   1  13 -18    4.14    0.53
   1 -13 -17   10.41    0.88
   1  13 -17    8.81    0.77
   1  13 -16    9.67    0.76
   1 -13 -16    9.70    0.82
   1  13 -15    1.87    0.34
   1  13 -14    2.39    0.38
   1  13 -13    4.99    0.51
   1  13 -12   18.99    0.96
   1  13 -11    1.27    0.26
  -1 -13  11    0.97    0.15
  -1 -13  10    1.35    0.19
   1  13 -10    1.69    0.28
   1  13  -9    9.42    0.60
  -1 -13   9    9.52    0.49
   1  13  -8    9.23    0.57
  -1 -13   8    8.36    0.48
   1  13  -7    2.10    0.27
  -1 -13   7    1.60    0.22
  -1 -13   6    2.67    0.28
   1  13  -6    3.00    0.30
   1  13  -5    3.89    0.34
  -1 -13   5    3.52    0.32
  -1  13   5    3.47    0.28
   1  13  -4   12.54    0.59
   1 -13  -4   11.79    0.72
  -1  13   4   11.93    0.52
  -1 -13   4   12.79    0.65
  -1  13   3    6.28    0.34
  -1 -13   3    6.33    0.46
   1 -13  -3    7.32    0.54
  -1 -13   2    8.44    0.55
   1 -13  -2    9.25    0.60
  -1 -13   1    1.32    0.24
   1 -13  -1    1.53    0.26
  -1 -13   0    2.63    0.32
   1 -13   0    2.91    0.33
  -1  13  -1    3.12    0.22
   1 -13   1    2.72    0.32
  -1 -13  -1    3.01    0.35
   1 -13   2    4.51    0.38
  -1 -13  -2    4.49    0.44
  -1  13  -2    4.48    0.28
   1 -13   3    2.18    0.26
  -1  13  -3    2.00    0.20
  -1 -13  -3    2.47    0.34
  -1  13  -4    2.66    0.23
   1 -13   4    2.50    0.27
  -1 -13  -4    2.67    0.37
  -1  13  -5    5.83    0.37
   1 -13   5    5.79    0.40
  -1 -13  -5    6.24    0.54
  -1  13  -6   22.97    0.84
   1 -13   6   23.19    0.82
  -1 -13  -6   21.72    1.08
  -1  13  -7   10.79    0.57
   1 -13   7   10.92    0.50
  -1 -13  -7    9.87    0.72
  -1 -13  -8    2.27    0.37
   1 -13   8    2.92    0.23
  -1  13  -8    2.27    0.28
  -1 -13  -9    0.37    0.20
   1 -13   9    0.28    0.09
  -1  13  -9    0.10    0.12
  -1 -13 -10   13.01    0.88
   1 -13  10   14.68    0.46
  -1  13 -10   13.34    0.73
  -1  13 -11   -0.02    0.15
  -1 -13 -11    0.20    0.24
  -1 -13 -12   15.41    0.98
  -1  13 -12   14.94    0.83
  -1 -13 -13    2.91    0.45
  -1  13 -13    3.69    0.44
  -1 -13 -14    6.07    0.63
  -1  13 -14    5.93    0.55
  -1 -13 -15    4.75    0.56
  -1  13 -15    4.70    0.51
  -1 -13 -16    3.04    0.51
  -1  13 -16    2.46    0.40
  -1  13 -17    0.59    0.23
  -1 -13 -17    1.03    0.31
  -1 -13 -18    2.99    0.49
  -1  13 -18    2.86    0.46
  -1 -13 -19    1.84    0.43
  -1  13 -19    0.90    0.28
  -1  13 -20    6.57    0.71
  -1 -13 -20    6.22    0.74
  -1  13 -21    0.86    0.27
  -1 -13 -21    1.89    0.45
  -1  13 -22    0.90    0.32
  -1 -13 -22    1.25    0.41
  -1  13 -23   -0.07    0.21
  -1 -13 -23    0.21    0.31
  -1 -13 -24    2.15    0.51
   1  15 -23    2.39    0.49
   1  15 -22    0.73    0.29
   1 -15 -22    0.21    0.25
   1 -15 -21    0.71    0.36
   1  15 -21    0.89    0.32
   1  15 -20    0.80    0.28
   1 -15 -20    1.91    0.47
   1  15 -19    2.42    0.45
   1 -15 -19    2.45    0.49
   1  15 -18    6.18    0.66
   1 -15 -18    6.98    0.78
   1  15 -17    0.19    0.21
   1 -15 -17    0.75    0.35
   1 -15 -16    9.58    0.87
   1  15 -16    9.98    0.79
   1 -15 -15   14.88    1.07
   1  15 -15   13.38    0.89
   1  15 -14    0.85    0.23
   1 -15 -14    0.62    0.29
   1 -15 -13    6.39    0.67
   1  15 -13    5.03    0.52
   1 -15 -12    1.33    0.34
   1  15 -12    1.71    0.30
  -1 -15  11    0.71    0.16
   1 -15 -11    0.73    0.32
   1  15 -11    0.77    0.23
   1 -15 -10    4.02    0.52
   1  15 -10    4.22    0.43
  -1 -15  10    4.01    0.33
   1  15  -9    3.32    0.37
   1 -15  -9    3.14    0.46
  -1 -15   9    3.52    0.32
   1  15  -8    1.67    0.29
   1 -15  -8    1.77    0.33
  -1 -15   8    1.01    0.20
   1  15  -7    2.28    0.30
   1 -15  -7    2.64    0.39
  -1 -15   7    1.76    0.26
   1 -15  -6    4.92    0.53
   1  15  -6    5.46    0.42
  -1 -15   6    5.70    0.44
   1  15  -5    1.38    0.23
  -1 -15   5    1.64    0.26
   1 -15  -5    1.22    0.30
  -1 -15   4    5.75    0.46
   1 -15  -4    6.00    0.54
  -1  15   4    5.59    0.36
   1  15  -4    5.72    0.41
  -1  15   3    6.13    0.37
  -1 -15   3    6.74    0.51
   1 -15  -3    5.70    0.53
   1 -15  -2    0.70    0.23
  -1 -15   2    0.95    0.22
  -1  15   2    0.69    0.13
  -1 -15   1    8.14    0.59
   1 -15  -1    8.54    0.62
   1 -15   0    3.90    0.41
  -1 -15   0    3.80    0.42
   1 -15   1    0.77    0.21
  -1  15  -1    0.60    0.13
  -1 -15  -2    2.49    0.36
  -1  15  -2    3.00    0.25
   1 -15   2    2.01    0.30
  -1  15  -3    3.44    0.27
   1 -15   3    3.65    0.36
  -1 -15  -3    3.27    0.40
  -1  15  -4    2.91    0.26
   1 -15   4    3.39    0.34
  -1 -15  -4    2.60    0.39
  -1  15  -5    2.39    0.25
   1 -15   5    2.18    0.28
  -1 -15  -5    2.39    0.38
  -1 -15  -6    8.51    0.69
  -1  15  -6    8.43    0.49
   1 -15   6    9.05    0.52
  -1  15  -7    8.30    0.52
   1 -15   7    9.51    0.51
  -1 -15  -7    9.55    0.74
   1 -15   8    2.19    0.24
  -1  15  -8    2.49    0.30
  -1 -15  -8    1.97    0.37
  -1  15  -9   15.46    0.77
   1 -15   9   14.92    0.61
  -1 -15  -9   15.59    0.99
  -1 -15 -10    3.89    0.50
  -1  15 -10    4.42    0.42
  -1  15 -11    5.69    0.49
  -1 -15 -11    6.16    0.65
  -1  15 -12    7.05    0.57
  -1 -15 -12    8.43    0.76
  -1  15 -13    0.85    0.23
  -1 -15 -13    1.09    0.30
  -1  15 -14    0.46    0.22
  -1 -15 -14    0.15    0.22
  -1  15 -15    0.88    0.26
  -1 -15 -15    0.73    0.30
  -1  15 -16   -0.07    0.16
  -1 -15 -16    0.11    0.25
  -1 -15 -17    1.73    0.38
  -1  15 -17    1.36    0.32
  -1  15 -18    0.98    0.30
  -1 -15 -18    0.57    0.27
  -1  15 -19    1.03    0.34
  -1 -15 -19    0.86    0.33
  -1  15 -20    0.39    0.23
  -1 -15 -20    0.19    0.31
  -1 -15 -21    1.28    0.38
  -1  15 -21    1.56    0.40
  -1  15 -22    1.15    0.34
  -1 -15 -22    1.22    0.41
   1  17 -22    0.41    0.21
   1  17 -21   -0.27    0.29
   1 -17 -20    1.90    0.47
   1  17 -20    0.79    0.31
   1 -17 -19    1.22    0.39
   1  17 -19    1.67    0.40
   1 -17 -18    1.04    0.30
   1  17 -18    0.31    0.19
   1 -17 -17    1.16    0.34
   1  17 -17    1.60    0.36
   1  17 -16    0.91    0.25
   1 -17 -16    1.47    0.42
   1  17 -15   14.80    0.96
   1 -17 -15   15.59    1.14
   1 -17 -14    0.48    0.30
   1  17 -14    0.24    0.23
   1  17 -13    6.56    0.60
   1 -17 -13    7.06    0.75
   1 -17 -12    0.81    0.32
   1  17 -12    0.52    0.21
   1 -17 -11    3.88    0.55
   1  17 -11    4.76    0.47
   1 -17 -10    4.53    0.59
   1  17 -10    4.59    0.46
   1 -17  -9    2.80    0.48
   1  17  -9    3.52    0.39
  -1 -17   9    3.69    0.35
  -1 -17   8    4.12    0.39
   1 -17  -8    4.28    0.55
   1  17  -8    4.04    0.40
   1  17  -7    4.57    0.41
  -1 -17   7    4.91    0.43
   1 -17  -7    4.89    0.57
  -1 -17   6    1.87    0.30
   1 -17  -6    2.15    0.38
   1  17  -6    1.99    0.27
   1 -17  -5    1.10    0.31
  -1 -17   5    1.05    0.26
   1  17  -5    1.36    0.23
   1 -17  -4    0.42    0.21
  -1 -17   4    0.47    0.15
   1  17  -4    0.79    0.19
  -1 -17   3    1.56    0.27
   1 -17  -3    2.34    0.39
   1  17  -3    2.51    0.31
   1 -17  -2   11.29    0.77
  -1 -17   2   12.13    0.76
  -1 -17   1    4.47    0.48
   1 -17  -1    4.31    0.48
  -1 -17   0    0.98    0.27
   1 -17   0    1.11    0.29
   1 -17   1    0.52    0.22
  -1  17  -1    1.07    0.17
  -1 -17  -1    0.69    0.25
   1 -17   2    1.00    0.26
  -1 -17  -2    0.96    0.29
  -1  17  -2    0.95    0.15
   1 -17   3   14.75    0.79
  -1 -17  -3   13.75    0.90
  -1  17  -3   15.02    0.62
  -1  17  -4    0.55    0.15
   1 -17   4    0.86    0.22
  -1 -17  -4    0.91    0.28
  -1 -17  -5    1.84    0.35
   1 -17   5    1.77    0.27
  -1  17  -5    1.69    0.23
  -1  17  -6    6.48    0.44
   1 -17   6    6.49    0.48
  -1 -17  -6    6.30    0.64
  -1  17  -7   -0.03    0.11
  -1 -17  -7   -0.06    0.19
   1 -17   7    0.07    0.11
  -1 -17  -8    2.09    0.38
  -1  17  -8    1.99    0.27
   1 -17   8    1.51    0.22
  -1 -17  -9   13.17    0.96
  -1  17  -9   13.18    0.72
  -1  17 -10    8.29    0.59
  -1 -17 -10    9.48    0.82
  -1  17 -11   12.26    0.74
  -1 -17 -11    9.68    0.85
  -1 -17 -12    0.14    0.22
  -1  17 -12   -0.04    0.14
  -1 -17 -13    1.20    0.35
  -1  17 -13    1.04    0.25
  -1  17 -14    1.48    0.32
  -1 -17 -14    1.42    0.39
  -1 -17 -15    1.37    0.40
  -1  17 -15    1.62    0.33
  -1 -17 -16    2.69    0.49
  -1  17 -16    2.17    0.38
  -1  17 -17    0.47    0.20
  -1 -17 -17    0.07    0.24
  -1  17 -18    0.59    0.28
  -1 -17 -18    0.99    0.36
  -1 -17 -19    0.62    0.35
   1 -19 -17    0.75    0.32
   1 -19 -16    1.82    0.44
   1  19 -16    1.91    0.37
   1 -19 -15    0.85    0.36
   1  19 -15   -0.14    0.20
   1 -19 -14    3.34    0.58
   1  19 -14    2.61    0.41
   1 -19 -13    0.59    0.27
   1  19 -13    0.22    0.17
   1 -19 -12    8.03    0.82
   1  19 -12    8.51    0.67
   1  19 -11    0.78    0.24
   1 -19 -11    0.64    0.27
   1  19 -10    0.35    0.20
   1 -19 -10    0.71    0.30
   1  19  -9    0.58    0.22
   1 -19  -9    1.18    0.36
   1 -19  -8    8.63    0.79
  -1 -19   8    9.14    0.61
   1  19  -8    9.05    0.62
   1  19  -7    0.34    0.15
  -1 -19   7    0.96    0.26
   1 -19  -7    0.80    0.30
   1  19  -6    6.56    0.50
   1 -19  -6    6.74    0.68
  -1 -19   6    5.36    0.52
   1  19  -5    1.52    0.26
  -1 -19   5    2.10    0.34
   1 -19  -5    2.09    0.43
   1 -19  -4   31.16    1.46
  -1 -19   4   30.30    1.30
   1  19  -4   31.77    1.16
   1 -19  -3    2.58    0.42
   1  19  -3    1.64    0.26
  -1 -19   3    2.25    0.35
   1 -19  -2    3.13    0.44
  -1 -19   2    3.52    0.45
  -1 -19   1    0.38    0.21
   1 -19  -1    0.41    0.19
  -1 -19   0    0.20    0.18
   1 -19   0    0.15    0.17
   1 -19   1    6.79    0.61
  -1 -19  -1    6.39    0.63
  -1 -19  -2   18.72    1.09
   1 -19   2   17.59    0.95
   1 -19   3    0.76    0.26
  -1 -19  -3    0.76    0.27
  -1 -19  -4    2.88    0.45
   1 -19   4    3.84    0.43
   1 -19   5    1.65    0.29
  -1 -19  -5    1.51    0.35
   1 -19   6    3.29    0.36
  -1 -19  -6    2.37    0.40
  -1 -19  -7    0.75    0.31
  -1 -19  -8    1.28    0.36
  -1 -19  -9    2.76    0.48
  -1 -19 -10    2.29    0.48
  -1 -19 -11    1.33    0.39
  -1 -19 -12    0.94    0.36
  -1 -19 -13   -0.18    0.28
  -1 -19 -14    3.83    0.61
  -1 -19 -15    0.63    0.31
  -1 -19 -16    2.11    0.47
  -1 -19 -17    0.80    0.39
   1 -21 -15    1.31    0.39
   1 -21 -14    0.44    0.34
   1 -21 -13    0.94    0.39
   1 -21 -12    1.34    0.40
   1 -21 -11    2.50    0.50
   1 -21 -10    0.57    0.26
   1 -21  -9    0.13    0.23
   1 -21  -8    5.04    0.65
  -1 -21   7    0.51    0.21
   1 -21  -7    0.85    0.26
   1 -21  -6    1.70    0.37
  -1 -21   6    1.75    0.33
  -1 -21   5    0.46    0.20
   1 -21  -5    0.76    0.32
  -1 -21   4    1.60    0.34
   1 -21  -4    1.89    0.39
  -1 -21   3    2.04    0.36
   1 -21  -3    1.79    0.38
   1 -21  -2    0.51    0.24
  -1 -21   2    0.13    0.17
   1 -21  -1    1.89    0.38
  -1 -21   1    2.07    0.38
  -1 -21   0    3.90    0.51
   1 -21   0    3.75    0.47
  -1 -21  -1    2.99    0.45
   1 -21   1    1.95    0.36
   1 -21   2   10.29    0.76
  -1 -21  -2    9.87    0.82
   1 -21   3    8.16    0.65
  -1 -21  -3    8.69    0.78
  -1 -21  -4    0.72    0.30
   1 -21   4    0.75    0.23
   1 -21   5    0.38    0.16
  -1 -21  -5    0.22    0.26
  -1 -21  -6    3.89    0.55
  -1 -21  -7    4.13    0.58
  -1 -21  -8    1.37    0.39
  -1 -21  -9    3.31    0.55
  -1 -21 -10    2.24    0.46
  -1 -21 -11    0.06    0.24
  -1 -21 -12    2.09    0.48
  -1 -21 -13    0.35    0.29
  -1 -21 -14   -0.16    0.30
   1 -23 -12    0.89    0.40
   1 -23 -11    0.76    0.34
   1 -23 -10    0.44    0.29
   1 -23  -9    1.08    0.36
   1 -23  -8    0.87    0.38
   1 -23  -7    1.70    0.41
   1 -23  -6    2.09    0.44
  -1 -23   5    3.59    0.49
   1 -23  -5    3.77    0.57
   1 -23  -4    2.04    0.43
  -1 -23   4    1.85    0.36
   1 -23  -3    0.01    0.20
  -1 -23   3    0.31    0.25
  -1 -23   2    0.14    0.18
   1 -23  -2    0.21    0.20
  -1 -23   1    1.09    0.30
   1 -23  -1    0.92    0.29
   1 -23   0    1.08    0.30
  -1 -23   0    0.91    0.29
  -1 -23  -1   -0.30    0.23
   1 -23   1    0.22    0.21
  -1 -23  -2    0.42    0.24
   1 -23   2    1.00    0.30
  -1 -23  -3    2.89    0.48
   1 -23   3    2.11    0.36
  -1 -23  -4    0.16    0.25
  -1 -23  -5    0.82    0.33
  -1 -23  -6    0.17    0.23
  -1 -23  -7    2.00    0.46
  -1 -23  -8    1.19    0.37
  -1 -23  -9    4.05    0.63
  -1 -23 -10    1.03    0.33
  -1 -23 -11    0.52    0.28
   1 -25  -8    3.67    0.60
   1 -25  -7   -0.09    0.20
   1 -25  -6    0.77    0.35
   1 -25  -5    0.14    0.24
   1 -25  -4    2.74    0.53
  -1 -25   3    0.47    0.23
   1 -25  -3    0.89    0.34
   1 -25  -2    1.35    0.35
  -1 -25   2    1.16    0.32
   1 -25  -1    0.59    0.28
  -1 -25   1    0.84    0.32
  -1 -25   0    1.82    0.42
   1 -25   0    1.88    0.39
   1 -25   1    0.39    0.26
  -1 -25  -1    0.44    0.28
   1 -25   2    3.42    0.50
  -1 -25  -2    2.87    0.52
  -1 -25  -3    0.00    0.22
  -1 -25  -4    0.38    0.27
  -1 -25  -5    0.72    0.33
  -1 -25  -6    2.35    0.51
  -1 -25  -7   -0.26    0.30
   1 -27  -4    0.56    0.30
   1 -27  -3    0.29    0.27
   1 -27  -2    0.12    0.24
  -1 -27   1    1.54    0.41
   1 -27  -1    1.76    0.41
  -1 -27   0    0.53    0.31
  -1 -27  -1    5.09    0.67
  -1 -27  -2    1.33    0.41
  -1 -27  -3    1.02    0.34
   2   0 -25    0.37    0.23
   2   0 -24    1.63    0.40
   2   0 -23   -0.01    0.19
   2   0 -22    7.63    0.76
   2   0 -21    0.47    0.24
   2   0 -20    3.95    0.51
   2   0 -19   -0.08    0.17
   2   0 -18    1.27    0.31
  -2   0  17    0.13    0.07
   2   0 -17   -0.01    0.19
  -2   0  16   18.76    0.58
   2   0 -16   18.52    1.01
  -2   0  15    0.07    0.05
   2   0 -15   -0.02    0.14
   2   0 -14    0.20    0.16
   2   0 -13   -0.07    0.12
   2   0 -12    7.16    0.52
   2   0 -11   -0.07    0.15
   2   0 -10   46.88    1.43
   2   0  -9    0.16    0.11
   2   0  -8    8.12    0.45
   2   0  -7   -0.04    0.10
   2   0  -6  285.56    5.88
   2   0  -5    0.44    0.14
   2   0  -4  965.18   19.32
  -2   0   4 1000.00   19.17
  -2   0   3    0.06    0.04
   2   0  -3    0.20    0.07
  -2   0   2  238.10    4.74
  -2   0  -1    0.00    0.05
  -2   0  -2   27.52    0.69
  -2   0  -3    0.05    0.09
  -2   0  -3    0.06    0.06
   2   0   3    0.09    0.06
  -2   0  -4   62.16    1.42
   2   0   4   64.46    1.42
  -2   0  -4   62.04    1.54
  -2   0  -5    0.09    0.09
  -2   0  -5    0.05    0.07
   2   0   5    0.02    0.06
  -2   0  -6    7.24    0.32
  -2   0  -6    7.66    0.41
  -2   0  -7    0.03    0.07
  -2   0  -7    0.03    0.09
  -2   0  -8   60.98    1.72
  -2   0  -8   62.74    1.51
  -2   0  -9    0.09    0.14
  -2   0  -9    0.03    0.08
  -2   0 -10   19.55    0.67
  -2   0 -10   19.05    0.86
  -2   0 -11   -0.07    0.12
  -2   0 -11    0.12    0.11
   2   0  11    0.00    0.12
  -2   0 -12   27.78    1.16
  -2   0 -12   26.56    0.90
   2   0  12   28.41    0.99
  -2   0 -13    0.20    0.11
   2   0  13    0.06    0.11
  -2   0 -14    0.87    0.26
  -2   0 -14    1.01    0.18
   2   0  14    0.81    0.18
   2   0  15   -0.05    0.14
  -2   0 -15    0.13    0.12
  -2   0 -15    0.08    0.17
   2   0  16    4.78    0.40
  -2   0 -16    4.29    0.50
  -2   0 -16    4.69    0.37
  -2   0 -17   -0.15    0.22
  -2   0 -17    0.04    0.10
   2   0  17   -0.07    0.14
   2   0  18    0.40    0.16
  -2   0 -18    0.01    0.17
  -2   0 -19   -0.15    0.25
  -2   0 -20    2.75    0.46
  -2   0 -21   -0.01    0.21
  -2   0 -22    4.91    0.64
  -2   0 -23   -0.07    0.22
  -2   0 -24    3.21    0.56
   2   2 -25    0.91    0.34
   2  -2 -25    0.50    0.25
   2   2 -24    0.38    0.28
   2  -2 -24    0.03    0.22
   2   2 -23    7.22    0.77
   2  -2 -23    7.96    0.79
   2  -2 -22    0.43    0.28
   2   2 -22    0.98    0.33
   2   2 -21    1.56    0.39
   2  -2 -21    2.25    0.40
   2   2 -20    2.20    0.43
   2  -2 -20    2.37    0.40
   2   2 -19    0.48    0.23
   2  -2 -19    0.64    0.25
   2  -2 -18    5.03    0.55
   2   2 -18    3.92    0.50
   2   2 -17    0.10    0.17
   2  -2 -17    0.24    0.22
   2   2 -16    2.75    0.39
   2  -2 -16    3.63    0.45
   2   2 -15    8.03    0.62
   2  -2 -15    7.02    0.58
   2  -2 -14    0.82    0.24
   2   2 -14    0.29    0.17
   2   2 -13   15.47    0.82
   2  -2 -13   16.16    0.82
   2   2 -12    6.76    0.50
   2  -2 -12    6.48    0.49
   2   2 -11    4.42    0.39
   2  -2 -11    4.34    0.38
   2  -2 -10    3.87    0.34
   2   2 -10    3.32    0.33
   2  -2  -9   69.94    1.86
   2   2  -9   71.63    1.90
   2   2  -8   43.61    1.29
   2  -2  -8   44.67    1.28
   2   2  -7   10.13    0.49
   2  -2  -7   11.03    0.49
   2  -2  -6  170.03    3.57
   2   2  -6  162.64    3.60
   2   2  -5   25.70    0.73
   2  -2  -5   26.28    0.75
   2   2  -5   24.51    0.77
   2  -2  -4  200.05    4.06
   2   2  -4  196.95    4.12
   2  -2  -3   28.21    0.72
  -2  -2   3   31.81    0.79
   2  -2  -2   32.31    0.73
  -2  -2   2   30.88    0.82
  -2  -2   1   44.55    1.08
  -2  -2   1   45.96    1.09
  -2  -2   0   54.15    1.27
  -2  -2   0   53.91    1.27
   2  -2   1    1.25    0.09
  -2  -2  -1    1.20    0.13
  -2  -2  -1    1.13    0.13
  -2  -2  -2   17.67    0.56
   2  -2   2   18.88    0.52
  -2  -2  -2   17.60    0.57
   2  -2   2   17.68    0.46
  -2   2  -2   17.15    0.50
   2  -2   3   52.68    1.07
  -2   2  -3   47.94    1.19
  -2   2  -3   46.54    1.06
  -2  -2  -3   47.81    1.22
  -2  -2  -3   51.34    1.24
   2  -2   3   50.73    1.20
  -2  -2  -4    2.41    0.19
  -2  -2  -4    1.72    0.18
   2   2   4    1.73    0.17
   2  -2   4    1.85    0.10
   2  -2   4    1.69    0.17
  -2   2  -4    1.77    0.10
  -2   2  -4    1.93    0.17
   2   2   4    1.95    0.18
  -2  -2  -4    1.80    0.19
  -2   2  -5   46.58    1.03
  -2  -2  -5   47.10    1.24
   2   2   5   48.11    1.23
  -2   2  -5   48.26    1.26
  -2  -2  -5   46.81    1.30
   2  -2   5   49.57    1.27
   2  -2   5   47.70    1.04
  -2  -2  -5   47.66    1.24
  -2   2  -6    9.45    0.30
  -2   2  -6    9.79    0.47
   2   2   6    9.44    0.43
   2  -2   6   10.28    0.48
  -2  -2  -6    9.01    0.43
  -2  -2  -6    9.40    0.48
   2   2   7    6.00    0.35
  -2   2  -7    7.44    0.42
  -2   2  -7    6.80    0.25
  -2  -2  -7    7.19    0.44
  -2  -2  -7    6.92    0.38
   2   2   8   18.64    0.67
  -2   2  -8   17.29    0.50
  -2   2  -8   16.15    0.72
  -2  -2  -8   17.90    0.67
  -2  -2  -8   17.59    0.76
  -2  -2  -9    3.79    0.35
  -2  -2  -9    4.30    0.32
   2   2   9    4.38    0.31
  -2   2  -9    3.91    0.21
  -2   2  -9    4.20    0.37
  -2   2 -10    7.53    0.32
   2   2  10    6.92    0.41
  -2  -2 -10    7.79    0.52
  -2   2 -10    7.21    0.50
  -2  -2 -10    7.83    0.45
  -2  -2 -11   30.62    1.19
  -2   2 -11   30.28    1.17
  -2  -2 -11   29.81    1.02
   2   2  11   30.71    1.00
  -2   2 -11   29.97    0.84
  -2   2 -12   16.81    0.57
   2   2  12   15.94    0.68
  -2  -2 -12   16.16    0.71
  -2  -2 -12   16.87    0.87
  -2   2 -12   15.67    0.83
  -2  -2 -13    1.02    0.21
  -2  -2 -13    0.90    0.24
  -2   2 -13    0.74    0.12
   2   2  13    0.45    0.14
  -2   2 -13    0.37    0.20
   2   2  14    3.26    0.31
  -2  -2 -14    3.28    0.33
  -2  -2 -14    2.62    0.37
  -2   2 -14    3.05    0.25
  -2   2 -14    3.36    0.42
  -2  -2 -15   23.42    0.96
  -2   2 -15   22.75    1.14
  -2   2 -15   23.64    0.78
  -2  -2 -15   24.93    1.20
   2   2  15   22.85    0.90
   2   2  16    0.35    0.15
  -2  -2 -16    0.35    0.20
  -2   2 -16    0.31    0.21
  -2  -2 -16    0.37    0.24
  -2   2 -16    0.27    0.11
  -2  -2 -17    0.43    0.22
   2   2  17    0.41    0.15
  -2   2 -17    0.62    0.24
  -2  -2 -17    0.80    0.22
  -2   2 -18    0.47    0.20
  -2  -2 -18    0.56    0.25
   2  -2  18    0.14    0.15
   2   2  18    0.14    0.13
  -2  -2 -18    0.49    0.18
   2  -2  19    6.94    0.52
  -2   2 -19    5.62    0.62
  -2  -2 -19    5.18    0.60
  -2  -2 -19    6.44    0.51
  -2  -2 -20    0.51    0.29
  -2   2 -20   -0.13    0.18
  -2   2 -21    1.65    0.37
  -2  -2 -21    1.95    0.40
  -2  -2 -22    3.66    0.54
  -2   2 -22    3.09    0.52
  -2   2 -23    4.31    0.62
  -2  -2 -23    4.72    0.66
  -2   2 -24    1.76    0.44
  -2  -2 -24    1.30    0.42
   2  -4 -25    0.57    0.27
   2   4 -25    0.69    0.32
   2  -4 -24    0.87    0.30
   2   4 -24    0.78    0.31
   2  -4 -23    6.50    0.73
   2   4 -23    7.44    0.80
   2   4 -22    2.41    0.44
   2  -4 -22    2.53    0.45
   2  -4 -21   -0.12    0.22
   2   4 -21    0.11    0.22
   2  -4 -20    1.15    0.32
   2   4 -20    0.42    0.23
   2  -4 -19    1.51    0.32
   2   4 -19    1.16    0.31
   2  -4 -18    4.54    0.52
   2   4 -18    2.60    0.41
   2   4 -17    1.00    0.26
   2  -4 -17    0.53    0.18
   2  -4 -16    1.12    0.27
   2   4 -16    0.84    0.26
   2   4 -15    7.49    0.42
   2  -4 -15    7.83    0.61
   2   4 -15    7.03    0.58
   2   4 -14    4.86    0.33
   2  -4 -14    5.10    0.47
   2   4 -14    4.58    0.46
   2   4 -13   15.97    0.84
   2  -4 -13   16.20    0.83
   2   4 -13   17.32    0.65
   2  -4 -12    2.16    0.28
   2   4 -12    2.18    0.22
   2   4 -12    2.12    0.30
   2  -4 -11    5.82    0.44
   2   4 -11    5.76    0.45
   2   4 -11    6.43    0.35
   2   4 -10    6.53    0.35
   2  -4 -10    6.05    0.42
   2   4 -10    5.87    0.44
   2   4  -9   25.47    0.76
   2   4  -9   23.95    0.92
   2  -4  -9   23.20    0.87
  -2   4   8   18.64    0.70
   2  -4  -8   17.82    0.69
   2   4  -8   17.39    0.73
   2   4  -8   18.66    0.62
  -2   4   7    4.38    0.29
   2   4  -7    3.91    0.25
   2  -4  -7    4.03    0.29
   2   4  -7    3.88    0.30
  -2   4   6    5.45    0.30
   2   4  -6    4.53    0.31
   2   4  -6    4.82    0.27
   2  -4  -6    4.86    0.29
   2   4  -5   30.45    0.84
   2   4  -5   30.37    0.91
  -2  -4   5   29.79    0.83
   2  -4  -5   30.28    0.83
  -2   4   5   29.24    0.81
  -2   4   4   36.41    0.90
   2   4  -4   36.24    0.97
  -2  -4   4   36.36    0.96
   2   4  -4   35.26    1.00
   2  -4  -4   37.42    0.91
   2  -4  -3   66.50    1.44
  -2   4   3   67.28    1.43
  -2  -4   3   66.64    1.57
  -2  -4   2  155.34    3.29
  -2  -4   1  140.74    3.03
  -2  -4   0   35.23    0.97
  -2  -4  -1   95.74    2.17
  -2   4  -1   94.09    1.93
   2  -4   1   95.20    1.93
   2  -4   2   24.87    0.65
  -2   4  -2   26.14    0.66
  -2  -4  -2   25.75    0.81
  -2  -4  -3    4.73    0.30
  -2   4  -3    5.01    0.25
  -2  -4  -3    5.65    0.31
   2  -4   3    5.15    0.25
  -2  -4  -4   32.27    0.92
  -2   4  -4   30.70    0.87
   2  -4   4   31.03    0.87
  -2  -4  -4   31.72    0.96
   2   4   5   21.96    0.73
  -2  -4  -5   21.78    0.78
  -2  -4  -5   22.11    0.74
  -2   4  -5   22.40    0.73
   2  -4   5   23.79    0.73
  -2   4  -6    3.16    0.26
   2   4   6    3.83    0.28
  -2  -4  -6    3.39    0.30
  -2  -4  -6    2.85    0.24
  -2  -4  -6    3.18    0.28
   2  -4   6    4.18    0.28
   2   4   7   11.51    0.50
  -2  -4  -7   10.71    0.54
  -2  -4  -7   11.19    0.57
  -2  -4  -7   11.46    0.51
  -2   4  -7   10.92    0.53
  -2  -4  -8   42.48    1.29
  -2   4  -8   40.60    1.28
  -2  -4  -8   42.75    1.20
   2   4   8   40.70    1.18
  -2  -4  -8   41.81    1.34
   2   4   9   30.24    0.95
  -2  -4  -9   29.53    1.03
  -2  -4  -9   27.89    1.08
  -2   4  -9   28.46    1.05
   2   4  10    1.35    0.19
  -2  -4 -10    1.53    0.24
  -2   4 -10    1.35    0.23
  -2  -4 -10    1.33    0.25
  -2  -4 -11   23.92    0.94
   2   4  11   22.31    0.82
  -2  -4 -11   23.40    1.02
  -2   4 -11   23.15    0.99
  -2  -4 -12    9.77    0.65
   2   4  12   10.07    0.50
  -2  -4 -12    9.53    0.57
  -2   4 -12    8.97    0.60
  -2   4 -13    1.39    0.11
   2   4  13    1.85    0.24
  -2  -4 -13    1.55    0.27
  -2  -4 -13    1.27    0.26
  -2   4 -13    2.10    0.31
  -2  -4 -14    0.43    0.19
  -2   4 -14    0.31    0.06
   2   4  14    0.60    0.16
  -2  -4 -14    0.64    0.20
  -2   4 -14    0.34    0.16
  -2   4 -15    7.10    0.29
  -2  -4 -15    8.63    0.69
  -2   4 -15    8.32    0.66
   2   4  15    9.18    0.52
  -2  -4 -15    8.54    0.59
  -2   4 -16    5.10    0.53
  -2  -4 -16    4.94    0.55
  -2  -4 -16    4.07    0.42
   2   4  16    5.40    0.41
   2   4  17    4.40    0.38
  -2  -4 -17    5.08    0.57
  -2   4 -17    4.07    0.51
  -2  -4 -17    4.94    0.46
  -2  -4 -18    7.27    0.69
  -2   4 -18    6.97    0.68
  -2  -4 -18    7.67    0.59
  -2   4 -19    2.50    0.44
  -2  -4 -19    2.90    0.46
  -2  -4 -19    2.76    0.39
  -2   4 -20    1.49    0.35
  -2  -4 -20    1.68    0.30
  -2  -4 -20    1.16    0.33
  -2  -4 -21    0.70    0.23
  -2   4 -21    0.52    0.27
  -2  -4 -22    0.44    0.28
  -2   4 -22    0.62    0.32
  -2   4 -23    0.58    0.31
  -2  -4 -23   -0.03    0.22
  -2   4 -24    0.02    0.24
  -2  -4 -24   -0.20    0.23
   2  -6 -25    0.84    0.27
   2   6 -25    1.43    0.42
   2  -6 -24    3.01    0.51
   2   6 -24    2.41    0.46
   2  -6 -23   -0.11    0.18
   2   6 -23   -0.28    0.27
   2   6 -22    1.26    0.34
   2  -6 -22    1.44    0.34
   2  -6 -21    1.05    0.30
   2   6 -21    1.11    0.34
   2   6 -20    6.82    0.70
   2  -6 -20    6.51    0.65
   2   6 -19    0.50    0.25
   2  -6 -19    0.28    0.21
   2   6 -18    2.64    0.41
   2  -6 -18    2.26    0.38
   2   6 -17    1.28    0.28
   2  -6 -17    1.24    0.27
   2  -6 -16    9.50    0.69
   2   6 -16    9.96    0.73
   2   6 -15    0.54    0.19
   2  -6 -15    0.70    0.19
   2   6 -15    0.72    0.14
   2  -6 -14    5.13    0.47
   2   6 -14    5.17    0.33
   2   6 -14    4.43    0.46
   2   6 -13    5.95    0.35
   2  -6 -13    5.08    0.45
   2   6 -13    5.64    0.50
   2   6 -12   55.81    1.79
   2   6 -12   57.51    1.47
   2  -6 -12   56.75    1.74
   2   6 -11    6.55    0.49
   2  -6 -11    6.38    0.46
   2  -6 -11    6.12    0.23
   2   6 -11    6.23    0.35
   2   6 -10    2.97    0.32
   2  -6 -10    2.62    0.16
   2  -6 -10    2.69    0.28
   2   6 -10    2.76    0.22
   2   6  -9    5.58    0.32
   2  -6  -9    5.63    0.38
   2   6  -9    5.58    0.42
   2   6  -8    9.73    0.53
   2  -6  -8    9.44    0.48
   2   6  -8   10.12    0.43
  -2   6   8   10.37    0.49
   2  -6  -7    7.85    0.40
   2   6  -7    8.74    0.39
  -2  -6   7    8.42    0.38
  -2   6   7    8.91    0.42
  -2   6   6   27.21    0.82
   2   6  -6   27.88    0.83
  -2  -6   6   27.94    0.82
   2  -6  -6   26.77    0.82
   2   6  -6   26.27    0.90
  -2   6   5   11.09    0.41
   2   6  -5   10.04    0.44
   2   6  -5    9.70    0.47
   2  -6  -5   10.10    0.40
  -2  -6   5   10.97    0.45
  -2  -6   4    4.91    0.30
   2   6  -4    5.36    0.31
   2  -6  -4    5.18    0.24
  -2   6   4    4.38    0.22
  -2  -6   3    8.05    0.39
  -2   6   3    7.34    0.26
   2  -6  -3    7.80    0.27
   2   6  -3    7.37    0.38
  -2  -6   2   26.30    0.85
   2   6  -2   28.96    0.88
  -2  -6   1   13.91    0.56
  -2  -6   0   81.08    1.97
  -2  -6  -1    5.40    0.35
  -2   6  -1    5.92    0.20
  -2  -6  -2   10.09    0.50
  -2   6  -2   10.18    0.33
   2  -6   2   10.05    0.32
  -2  -6  -3   30.77    1.01
   2  -6   3   31.22    0.80
  -2   6  -3   30.30    0.81
  -2  -6  -4   30.11    0.94
  -2   6  -4   29.15    0.84
   2   6   4   29.52    0.96
   2  -6   4   30.49    0.83
  -2  -6  -4   29.58    1.01
   2  -6   5    6.49    0.33
  -2  -6  -5    5.61    0.39
  -2   6  -5    5.40    0.32
  -2  -6  -5    6.14    0.36
   2  -6   6    3.33    0.26
  -2  -6  -6    4.48    0.32
  -2  -6  -6    3.97    0.35
  -2   6  -6    4.04    0.29
  -2   6  -7    1.16    0.18
  -2  -6  -7    1.28    0.18
  -2  -6  -7    0.94    0.20
  -2  -6  -8    6.13    0.45
  -2  -6  -8    5.33    0.36
  -2   6  -8    5.74    0.40
  -2  -6  -9   18.14    0.82
  -2   6  -9   16.82    0.76
  -2  -6  -9   17.74    0.83
  -2  -6  -9   18.10    0.72
  -2   6 -10    0.52    0.17
  -2  -6 -10    0.58    0.17
  -2  -6 -10    0.62    0.20
  -2  -6 -11    4.65    0.45
  -2   6 -11    4.97    0.44
  -2  -6 -11    5.17    0.45
  -2  -6 -12   22.46    1.04
  -2  -6 -12   21.38    0.98
  -2   6 -12   21.40    0.99
  -2   6 -13    3.26    0.39
  -2  -6 -13    3.52    0.42
  -2  -6 -13    3.35    0.38
  -2  -6 -14    3.79    0.41
  -2  -6 -14    3.56    0.44
  -2   6 -14    4.09    0.45
  -2  -6 -15    1.56    0.30
  -2  -6 -15    1.49    0.30
  -2   6 -15    1.38    0.28
  -2  -6 -16    4.01    0.50
  -2   6 -16    3.64    0.46
  -2  -6 -16    4.79    0.49
  -2  -6 -17    4.25    0.53
  -2   6 -17    4.56    0.52
  -2  -6 -17    4.68    0.49
  -2   6 -18    8.57    0.75
  -2  -6 -18   10.45    0.83
  -2  -6 -18    9.28    0.71
  -2  -6 -19    2.41    0.39
  -2  -6 -19    1.90    0.40
  -2   6 -19    2.54    0.43
  -2  -6 -20    5.71    0.57
  -2  -6 -20    5.19    0.63
  -2   6 -20    5.58    0.64
  -2  -6 -21    0.86    0.32
  -2   6 -21    0.50    0.27
  -2  -6 -22    1.30    0.35
  -2   6 -22    1.70    0.40
  -2  -6 -23    2.25    0.47
  -2   6 -23    1.75    0.40
  -2   6 -24    0.14    0.19
   2  -8 -25    0.61    0.30
   2  -8 -24    0.77    0.29
   2   8 -24    0.64    0.31
   2  -8 -24   -0.01    0.17
   2   8 -23    0.79    0.29
   2  -8 -23    1.33    0.33
   2  -8 -22    0.61    0.25
   2   8 -22   -0.17    0.24
   2   8 -21    1.45    0.38
   2  -8 -21    1.21    0.30
   2   8 -20    1.83    0.39
   2  -8 -20    2.11    0.38
   2  -8 -19    5.70    0.60
   2   8 -19    5.95    0.63
   2   8 -18    2.11    0.38
   2  -8 -18    1.95    0.35
   2  -8 -17    1.50    0.31
   2   8 -17    1.32    0.30
   2   8 -16    7.42    0.65
   2  -8 -16    8.61    0.66
   2   8 -15    5.77    0.56
   2  -8 -15    6.63    0.55
   2   8 -14    1.26    0.17
   2  -8 -14    0.74    0.21
   2   8 -14    0.89    0.25
   2   8 -13   24.66    0.79
   2   8 -13   23.43    1.08
   2  -8 -13   22.96    1.03
   2  -8 -13   23.46    0.67
   2   8 -12    7.69    0.56
   2  -8 -12    7.54    0.52
   2  -8 -12    7.12    0.32
   2   8 -12    7.65    0.40
   2   8 -11    3.89    0.39
   2  -8 -11    3.76    0.23
   2  -8 -11    2.91    0.32
   2   8 -11    3.07    0.25
   2   8 -10    0.04    0.08
   2  -8 -10    0.13    0.11
   2   8 -10    0.06    0.16
  -2  -8   9   19.81    0.67
   2   8  -9   18.46    0.68
   2  -8  -9   20.93    0.80
   2   8  -9   19.28    0.84
   2   8  -8    1.24    0.16
   2  -8  -8    1.26    0.18
  -2   8   8    1.13    0.17
  -2  -8   8    1.40    0.17
   2   8  -7   16.05    0.71
   2   8  -7   17.00    0.64
   2  -8  -7   16.93    0.65
  -2  -8   7   18.42    0.65
  -2   8   7   18.38    0.66
  -2  -8   6   36.68    1.06
   2   8  -6   35.13    1.12
   2  -8  -6   35.94    1.01
   2   8  -6   37.69    1.06
  -2   8   6   34.68    1.00
  -2  -8   5   32.35    1.01
   2   8  -5   32.82    1.03
  -2   8   5   32.36    0.90
   2  -8  -5   32.83    0.91
   2   8  -5   35.60    1.02
  -2  -8   4    2.16    0.23
  -2   8   4    1.96    0.15
   2   8  -4    1.76    0.21
   2   8  -3   29.08    0.97
  -2  -8   3   30.44    0.99
  -2   8   3   31.63    0.77
  -2  -8   2    0.50    0.12
  -2   8   2    0.52    0.06
   2   8  -2    0.39    0.13
   2   8  -1   14.10    0.61
  -2  -8   1   13.37    0.60
  -2   8   0   36.80    0.82
  -2  -8   0   42.85    1.22
  -2  -8  -1   22.69    0.87
  -2   8  -1   23.10    0.57
  -2  -8  -2    3.07    0.30
  -2   8  -2    3.14    0.17
  -2  -8  -3   27.95    1.03
  -2   8  -3   28.48    0.79
   2  -8   3   30.71    0.78
  -2  -8  -4   82.61    2.25
   2  -8   4   87.14    1.95
  -2   8  -4   85.59    1.97
   2  -8   4   86.66    1.92
   2  -8   5    2.44    0.16
   2  -8   5    2.85    0.22
  -2   8  -5    3.12    0.24
   2  -8   6   19.58    0.68
  -2   8  -6   18.36    0.68
  -2  -8  -6   17.83    0.83
   2  -8   6   17.28    0.48
  -2   8  -7   24.42    0.87
  -2  -8  -7   24.49    1.01
  -2   8  -8   16.64    0.72
  -2  -8  -8   17.70    0.85
  -2  -8  -9    5.35    0.47
  -2   8  -9    4.89    0.39
  -2  -8 -10    5.10    0.48
  -2   8 -10    4.82    0.41
  -2  -8 -11    6.55    0.54
  -2   8 -11    5.99    0.48
  -2   8 -12    9.56    0.64
  -2  -8 -12   11.10    0.73
  -2  -8 -13    5.03    0.50
  -2   8 -13    5.88    0.51
  -2  -8 -13    4.79    0.51
  -2  -8 -14    4.44    0.47
  -2   8 -14    3.90    0.45
  -2  -8 -14    4.72    0.51
  -2   8 -15   10.18    0.74
  -2  -8 -15   11.13    0.77
  -2  -8 -15    9.86    0.76
  -2   8 -16    6.47    0.61
  -2  -8 -16    6.84    0.65
  -2  -8 -16    6.66    0.62
  -2   8 -17    4.97    0.56
  -2  -8 -17    6.44    0.61
  -2  -8 -17    6.11    0.63
  -2  -8 -18    2.18    0.40
  -2  -8 -18    2.25    0.44
  -2   8 -18    1.84    0.38
  -2  -8 -19    7.83    0.69
  -2   8 -19    6.63    0.68
  -2  -8 -19    6.75    0.71
  -2   8 -20    2.11    0.41
  -2  -8 -20    2.12    0.45
  -2  -8 -20    2.36    0.41
  -2  -8 -21    3.32    0.54
  -2  -8 -21    3.75    0.52
  -2   8 -21    4.34    0.58
  -2  -8 -22    2.01    0.43
  -2   8 -22    0.98    0.34
  -2   8 -23    1.44    0.42
  -2  -8 -23    1.81    0.45
  -2   8 -24    0.15    0.27
   2 -10 -25    0.21    0.33
   2 -10 -24    2.06    0.44
   2  10 -24    1.32    0.41
   2 -10 -24    1.85    0.44
   2  10 -23    0.09    0.21
   2 -10 -23    0.23    0.29
   2 -10 -23    0.53    0.29
   2  10 -22    1.80    0.40
   2 -10 -22    1.83    0.39
   2 -10 -21    1.23    0.33
   2  10 -21    1.11    0.34
   2  10 -20    3.17    0.49
   2 -10 -20    2.44    0.43
   2  10 -19    3.55    0.50
   2 -10 -19    4.03    0.51
   2 -10 -18    4.48    0.52
   2  10 -18    4.62    0.56
   2 -10 -17    1.71    0.34
   2  10 -17    1.57    0.32
   2 -10 -16    2.73    0.38
   2  10 -16    2.94    0.43
   2  10 -15    0.45    0.24
   2 -10 -15    0.57    0.19
   2  10 -14    7.32    0.61
   2 -10 -14    6.56    0.54
   2  10 -13    0.27    0.11
   2 -10 -13    0.38    0.16
   2  10 -13    0.40    0.20
   2  10 -12   13.11    0.77
   2  10 -12   12.38    0.54
   2 -10 -12   12.96    0.53
   2 -10 -12   12.94    0.71
   2  10 -11    5.32    0.47
   2 -10 -11    5.01    0.41
   2  10 -11    4.61    0.32
  -2 -10  10    4.19    0.30
   2  10 -10    4.33    0.32
   2 -10 -10    4.32    0.37
   2  10  -9    4.61    0.32
   2  10  -9    3.99    0.37
  -2 -10   9    4.42    0.31
   2 -10  -9    4.68    0.36
   2  10  -8    7.63    0.42
  -2 -10   8    7.16    0.41
   2  10  -8    7.37    0.49
   2 -10  -8    6.49    0.40
   2  10  -7    2.98    0.27
   2  10  -7    2.69    0.29
  -2 -10   7    2.87    0.27
  -2  10   7    2.80    0.24
   2  10  -6    2.69    0.29
   2  10  -6    2.63    0.26
  -2 -10   6    2.79    0.26
  -2  10   6    3.46    0.25
  -2  10   5   25.54    0.77
   2  10  -5   24.78    0.90
   2  10  -5   25.48    0.90
  -2 -10   5   27.33    0.92
  -2 -10   4   25.59    0.92
  -2  10   4   24.49    0.71
  -2  10   3   38.41    0.96
  -2 -10   3   42.08    1.26
  -2 -10   2   14.46    0.67
  -2  10   2   14.02    0.42
  -2 -10   1    4.79    0.38
  -2  10   0    6.65    0.24
  -2 -10   0    5.99    0.44
  -2 -10  -1    6.35    0.46
  -2  10  -1    6.47    0.25
  -2  10  -2    5.70    0.26
  -2 -10  -2    5.12    0.42
   2 -10   3    0.25    0.10
  -2  10  -3    0.30    0.08
  -2 -10  -3    0.38    0.14
  -2  10  -4   10.71    0.44
  -2 -10  -4   10.62    0.64
   2 -10   4   10.20    0.45
  -2  10  -5   33.80    1.00
   2 -10   5   34.08    0.95
  -2 -10  -5   33.29    1.26
   2 -10   6   18.68    0.68
  -2 -10  -6   17.12    0.88
   2 -10   6   18.78    0.58
  -2  10  -6   17.41    0.68
  -2  10  -7   10.17    0.53
   2 -10   7   10.70    0.37
  -2 -10  -7   11.11    0.70
  -2 -10  -8   14.20    0.80
   2 -10   8   12.57    0.35
  -2  10  -8   14.26    0.66
  -2  10  -9    3.44    0.34
  -2 -10  -9    3.57    0.42
  -2  10 -10    1.22    0.23
  -2 -10 -10    1.19    0.28
  -2 -10 -11   16.60    0.93
  -2  10 -11   16.72    0.84
  -2 -10 -12    4.08    0.47
  -2  10 -12    3.54    0.39
  -2 -10 -13    1.43    0.30
  -2  10 -13    1.77    0.31
  -2 -10 -14    8.06    0.68
  -2  10 -14    6.48    0.57
  -2 -10 -15    2.91    0.43
  -2  10 -15    3.13    0.41
  -2 -10 -16    0.34    0.23
  -2  10 -16    0.22    0.19
  -2 -10 -17    6.87    0.67
  -2  10 -17    6.41    0.64
  -2  10 -18   -0.11    0.22
  -2 -10 -18    0.13    0.18
  -2 -10 -19    1.03    0.32
  -2  10 -19    0.95    0.30
  -2  10 -20   -0.36    0.25
  -2 -10 -20   -0.10    0.23
  -2  10 -21    1.72    0.37
  -2 -10 -21    2.09    0.40
  -2 -10 -22    1.20    0.33
  -2  10 -22    1.14    0.34
  -2  10 -23    1.78    0.41
   2 -12 -25    2.28    0.51
   2 -12 -24   -0.10    0.21
   2 -12 -24    0.46    0.34
   2  12 -23    0.17    0.19
   2 -12 -23    0.34    0.32
   2 -12 -23    0.88    0.35
   2  12 -22    0.55    0.24
   2 -12 -22    1.20    0.37
   2 -12 -22    0.29    0.33
   2  12 -21    2.19    0.46
   2 -12 -21    2.30    0.43
   2  12 -20    3.74    0.55
   2 -12 -20    3.07    0.47
   2  12 -19    0.34    0.24
   2 -12 -19    0.90    0.26
   2  12 -18    1.16    0.29
   2 -12 -18    1.72    0.34
   2 -12 -17    2.59    0.38
   2  12 -17    1.72    0.35
   2  12 -16    1.18    0.28
   2 -12 -16    1.77    0.32
   2  12 -15   14.42    0.91
   2 -12 -15   13.34    0.82
   2  12 -14    8.81    0.69
   2 -12 -14    9.65    0.66
   2 -12 -13    3.77    0.40
   2  12 -13    3.78    0.44
   2  12 -12    3.74    0.42
   2 -12 -12    2.72    0.33
   2  12 -11   11.21    0.56
  -2 -12  11   13.35    0.58
   2  12 -11   12.41    0.74
   2  12 -10    0.12    0.13
   2  12 -10    0.10    0.18
  -2 -12  10    0.02    0.09
  -2 -12   9    1.28    0.19
   2  12  -9    1.29    0.23
   2  12  -8    7.43    0.50
  -2 -12   8    7.37    0.45
  -2 -12   7    7.35    0.46
   2  12  -7    6.34    0.46
  -2  12   7    6.66    0.39
   2  12  -6   10.12    0.57
  -2 -12   6   10.61    0.58
  -2  12   6   10.45    0.47
  -2  12   5    4.62    0.28
  -2 -12   5    4.13    0.36
   2  12  -5    4.89    0.38
  -2 -12   4   12.62    0.65
  -2  12   4   12.87    0.48
  -2 -12   3    1.15    0.21
  -2  12   3    1.24    0.12
  -2 -12   2    4.44    0.39
  -2  12   2    4.36    0.22
  -2 -12   1   21.57    0.93
  -2  12   0    3.27    0.18
  -2 -12   0    2.53    0.33
  -2 -12  -1    8.46    0.58
  -2  12  -1    9.25    0.34
   2 -12   1    9.14    0.52
  -2 -12  -2    1.03    0.25
  -2  12  -2    1.03    0.12
  -2  12  -3    5.67    0.29
  -2 -12  -3    5.38    0.48
   2 -12   3    4.90    0.37
  -2 -12  -4    3.93    0.42
   2 -12   4    3.72    0.30
  -2  12  -4    3.86    0.26
  -2  12  -5    0.22    0.11
   2 -12   5    0.32    0.12
  -2 -12  -5    0.39    0.21
  -2 -12  -6   26.79    1.19
   2 -12   6   27.77    0.85
  -2  12  -6   26.72    0.91
   2 -12   7   15.42    0.55
  -2 -12  -7   15.73    0.90
  -2  12  -7   16.44    0.70
   2 -12   8   12.88    0.45
  -2  12  -8   12.86    0.64
  -2 -12  -8   13.24    0.83
   2 -12   9    2.18    0.13
  -2  12  -9    2.45    0.29
  -2  12 -10    1.07    0.22
  -2 -12 -10    1.13    0.28
  -2 -12 -11    2.16    0.37
  -2  12 -11    1.98    0.29
  -2 -12 -12   11.27    0.83
  -2  12 -12   11.58    0.71
  -2 -12 -13    5.21    0.57
  -2  12 -13    4.87    0.48
  -2 -12 -14    2.39    0.41
  -2  12 -14    1.85    0.32
  -2 -12 -15    2.63    0.44
  -2  12 -15    3.09    0.42
  -2 -12 -16    4.21    0.56
  -2  12 -16    3.40    0.44
  -2 -12 -17    9.26    0.81
  -2  12 -17    8.40    0.73
  -2 -12 -18    3.15    0.49
  -2  12 -18    2.07    0.39
  -2 -12 -19    0.39    0.27
  -2  12 -19   -0.06    0.19
  -2 -12 -20    1.46    0.37
  -2  12 -20    1.39    0.35
  -2  12 -21    1.29    0.35
  -2 -12 -21    0.79    0.37
  -2 -12 -22    3.11    0.54
  -2  12 -22    2.77    0.50
  -2 -12 -23    0.78    0.33
  -2  12 -23    0.34    0.24
   2  14 -23    0.00    0.22
   2 -14 -23   -0.07    0.30
   2 -14 -22   -0.03    0.26
   2  14 -22   -0.08    0.23
   2  14 -21    4.89    0.65
   2 -14 -21    5.76    0.73
   2  14 -20   -0.04    0.19
   2 -14 -20    0.01    0.24
   2 -14 -19    4.01    0.61
   2  14 -19    3.35    0.50
   2  14 -18    0.07    0.21
   2  14 -17    1.24    0.31
   2  14 -16    0.87    0.28
   2  14 -15    1.53    0.34
   2  14 -14    1.70    0.32
   2  14 -13    2.93    0.41
   2  14 -12    0.34    0.18
  -2 -14  12    0.23    0.11
  -2 -14  11    3.25    0.30
   2  14 -11    4.13    0.44
  -2 -14  10    1.41    0.22
   2  14 -10    1.05    0.25
   2  14  -9   15.07    0.80
  -2 -14   9   14.98    0.70
   2  14  -8    4.22    0.40
  -2 -14   8    4.85    0.39
   2  14  -7    5.30    0.43
  -2  14   7    4.87    0.34
  -2 -14   7    4.91    0.40
   2  14  -6    0.58    0.18
  -2 -14   6    0.69    0.18
  -2  14   6    0.75    0.14
  -2  14   5    4.10    0.28
   2  14  -5    5.09    0.42
  -2 -14   5    4.72    0.41
  -2 -14   4    3.00    0.33
  -2  14   4    2.91    0.22
  -2 -14   3   10.98    0.66
  -2  14   3   11.11    0.43
  -2 -14   2    3.97    0.41
  -2  14   2    3.06    0.20
   2 -14  -1   31.50    1.21
  -2 -14   1   31.07    1.22
  -2  14   1   29.93    0.82
   2 -14   0    8.62    0.57
  -2 -14   0    8.41    0.61
  -2  14   0    8.15    0.33
  -2 -14  -1    2.03    0.32
   2 -14   1    1.91    0.28
  -2  14  -1    2.35    0.18
  -2  14  -2    1.30    0.14
   2 -14   2    1.19    0.22
  -2 -14  -2    1.11    0.27
  -2 -14  -3    6.03    0.54
   2 -14   3    6.41    0.45
  -2  14  -3    6.38    0.33
  -2 -14  -4    3.44    0.43
   2 -14   4    3.05    0.31
  -2  14  -4    3.22    0.25
  -2 -14  -5   12.90    0.83
   2 -14   5   13.91    0.63
  -2  14  -5   13.83    0.58
  -2 -14  -6    5.10    0.53
  -2  14  -6    4.98    0.36
   2 -14   6    4.53    0.34
  -2 -14  -7   31.81    1.43
  -2  14  -7   33.38    1.11
   2 -14   7   33.85    1.03
  -2  14  -8    2.04    0.25
   2 -14   8    2.46    0.21
  -2 -14  -8    1.94    0.41
   2 -14   9    5.06    0.28
  -2 -14  -9    5.58    0.59
  -2  14  -9    6.14    0.46
  -2 -14 -10   12.71    0.90
  -2  14 -10   13.44    0.72
  -2 -14 -11    4.63    0.56
  -2  14 -11    4.91    0.45
  -2 -14 -12    4.72    0.56
  -2  14 -12    4.33    0.44
  -2  14 -13    3.00    0.38
  -2 -14 -13    2.52    0.42
  -2 -14 -14    0.57    0.24
  -2  14 -14    0.52    0.21
  -2  14 -15    1.25    0.28
  -2 -14 -15    1.20    0.34
  -2 -14 -16    0.86    0.30
  -2  14 -16    1.07    0.29
  -2  14 -17    2.52    0.41
  -2 -14 -17    3.54    0.53
  -2  14 -18    0.31    0.18
  -2 -14 -18    0.41    0.31
  -2 -14 -19    4.10    0.60
  -2  14 -19    4.04    0.54
  -2 -14 -20    0.16    0.29
  -2  14 -20    0.08    0.19
  -2 -14 -21    0.86    0.38
  -2  14 -21    0.61    0.26
  -2  14 -22   -0.43    0.32
  -2 -14 -22   -0.15    0.26
  -2  14 -23    1.72    0.40
   2  16 -22    0.87    0.39
   2  16 -21    0.27    0.28
   2 -16 -21    0.44    0.33
   2  16 -20    3.25    0.52
   2 -16 -20    1.64    0.43
   2 -16 -19    1.13    0.38
   2  16 -19    0.60    0.28
   2 -16 -18    6.89    0.78
   2  16 -18    5.86    0.66
   2  16 -17    2.61    0.44
   2 -16 -17    2.40    0.46
   2 -16 -16    2.08    0.47
   2  16 -16    1.32    0.34
   2  16 -15    2.68    0.42
   2  16 -14    8.83    0.72
   2  16 -13    4.52    0.50
   2  16 -12    2.56    0.37
  -2 -16  11    0.64    0.16
   2  16 -11    0.38    0.21
  -2 -16  10    0.27    0.14
   2  16 -10    0.14    0.15
   2  16  -9    1.41    0.26
  -2 -16   9    1.79    0.26
  -2 -16   8    6.96    0.50
   2  16  -8    5.26    0.47
   2  16  -7    2.30    0.32
  -2 -16   7    2.05    0.30
  -2 -16   6    0.50    0.18
   2  16  -6    0.63    0.21
  -2 -16   5    5.74    0.50
   2  16  -5    6.08    0.46
   2 -16  -5    6.14    0.58
   2 -16  -4    0.96    0.27
  -2 -16   4    0.84    0.21
  -2 -16   3    0.61    0.24
   2 -16  -3    0.12    0.21
  -2  16   3    0.34    0.09
  -2 -16   2    1.23    0.28
  -2  16   2    0.82    0.12
   2 -16  -2    1.18    0.27
  -2 -16   1    3.51    0.42
  -2  16   1    2.83    0.20
  -2  16   1    3.26    0.22
   2 -16  -1    3.79    0.44
   2 -16   0   12.07    0.73
  -2  16   0   11.59    0.44
  -2 -16   0   11.39    0.76
   2 -16   1    2.66    0.35
  -2  16  -1    3.54    0.23
  -2 -16  -1    3.28    0.41
   2 -16   2    0.31    0.18
  -2 -16  -2   -0.03    0.19
  -2  16  -2    0.17    0.10
  -2 -16  -3    4.46    0.50
  -2  16  -3    4.70    0.30
   2 -16   3    4.05    0.39
  -2  16  -4    3.53    0.27
   2 -16   4    3.48    0.36
  -2 -16  -4    3.01    0.43
   2 -16   5    0.22    0.14
  -2 -16  -5    0.56    0.23
  -2  16  -5    0.37    0.11
  -2 -16  -6   21.74    1.17
  -2  16  -6   22.98    0.84
   2 -16   6   20.37    0.86
  -2  16  -7    0.27    0.11
  -2 -16  -7   -0.04    0.21
  -2  16  -8    0.28    0.12
  -2 -16  -8    0.24    0.21
   2 -16   8    0.14    0.09
  -2 -16  -9    1.17    0.34
  -2  16  -9    0.92    0.21
  -2 -16 -10   10.18    0.84
  -2  16 -10   10.02    0.63
  -2  16 -11    1.71    0.30
  -2 -16 -11    1.58    0.38
  -2  16 -12    0.92    0.22
  -2 -16 -12    0.13    0.22
  -2  16 -13    2.80    0.37
  -2 -16 -13    2.89    0.48
  -2 -16 -14    1.83    0.43
  -2  16 -14    2.04    0.33
  -2  16 -15    0.72    0.24
  -2 -16 -15    0.87    0.32
  -2 -16 -16    0.00    0.24
  -2  16 -16    0.48    0.24
  -2  16 -17    0.03    0.16
  -2 -16 -17    0.31    0.24
  -2 -16 -18    1.06    0.37
  -2  16 -18    0.40    0.19
  -2 -16 -19    0.73    0.31
  -2 -16 -20    3.08    0.59
   2  18 -21    3.20    0.54
   2  18 -20    0.27    0.24
   2  18 -19    0.13    0.19
   2 -18 -19    0.10    0.27
   2 -18 -18    1.81    0.46
   2  18 -18    1.24    0.32
   2  18 -17    1.03    0.33
   2 -18 -17    0.76    0.32
   2 -18 -16    6.04    0.76
   2  18 -16    5.48    0.61
   2 -18 -15   10.08    0.94
   2  18 -15   10.31    0.82
   2 -18 -14    1.46    0.43
   2  18 -14    0.67    0.27
   2  18 -13    0.30    0.19
   2 -18 -13    0.26    0.24
   2  18 -12    1.42    0.29
   2 -18 -12    1.10    0.31
   2  18 -11    1.18    0.28
   2 -18 -11    1.39    0.38
   2  18 -10    3.86    0.43
   2 -18 -10    3.40    0.50
  -2 -18   9    3.23    0.38
   2 -18  -9    3.79    0.53
   2  18  -9    2.83    0.35
   2 -18  -8    4.29    0.54
  -2 -18   8    4.35    0.44
   2  18  -8    3.35    0.38
  -2 -18   7   17.16    0.91
   2 -18  -7   17.37    1.09
   2  18  -7   18.61    0.90
   2 -18  -6    3.24    0.47
   2  18  -6    2.91    0.35
  -2 -18   6    2.25    0.33
   2 -18  -5    9.52    0.76
   2  18  -5    9.39    0.60
  -2 -18   5    7.99    0.63
  -2 -18   4    5.39    0.52
   2 -18  -4    5.66    0.59
  -2 -18   3    1.45    0.30
   2 -18  -3    1.72    0.34
  -2 -18   2    0.62    0.25
   2 -18  -2    0.85    0.28
   2 -18  -1   10.66    0.74
  -2 -18   1   11.13    0.78
  -2 -18   0    0.86    0.26
   2 -18   0    1.18    0.28
   2 -18   1    0.51    0.21
  -2 -18  -1    0.33    0.19
   2 -18   2    6.05    0.53
  -2 -18  -2    4.85    0.54
   2 -18   3    3.54    0.39
  -2 -18  -3    3.21    0.46
   2 -18   4    4.50    0.44
  -2 -18  -4    4.39    0.54
  -2 -18  -5    1.38    0.32
   2 -18   5    1.34    0.25
  -2 -18  -6    1.28    0.33
   2 -18   6    0.76    0.19
  -2 -18  -7    4.87    0.58
  -2 -18  -8    3.15    0.49
  -2 -18  -9    4.02    0.55
  -2 -18 -10    1.25    0.33
  -2 -18 -11    1.00    0.31
  -2 -18 -12    2.44    0.46
  -2 -18 -13   -0.05    0.20
  -2 -18 -14    1.44    0.40
  -2 -18 -15    1.26    0.40
  -2 -18 -16    2.07    0.48
  -2 -18 -17    1.43    0.42
  -2 -18 -18    0.84    0.37
   2 -20 -16    1.24    0.42
   2  20 -15    0.97    0.29
   2 -20 -15    0.95    0.40
   2 -20 -14    2.68    0.52
   2  20 -14    2.99    0.46
   2  20 -13    0.58    0.24
   2 -20 -13    0.97    0.41
   2 -20 -12    0.46    0.25
   2  20 -12    0.40    0.20
   2 -20 -11    1.80    0.42
   2  20 -11    1.48    0.30
   2  20 -10    1.10    0.25
   2 -20 -10    0.67    0.30
   2 -20  -9    0.04    0.26
   2  20  -9    0.11    0.20
   2 -20  -8    0.18    0.24
  -2 -20   8   -0.10    0.15
   2  20  -8   -0.10    0.16
  -2 -20   7    9.77    0.71
   2  20  -7    9.43    0.66
   2 -20  -7    9.61    0.85
   2  20  -6    8.33    0.60
  -2 -20   6    8.62    0.67
   2 -20  -6    7.38    0.73
  -2 -20   5    5.16    0.53
   2 -20  -5    5.15    0.60
   2  20  -5    5.03    0.46
   2  20  -4    3.66    0.38
  -2 -20   4    3.03    0.42
   2 -20  -4    3.09    0.46
   2  20  -3    2.22    0.31
  -2 -20   3    1.91    0.35
   2 -20  -2    2.19    0.39
  -2 -20   2    2.49    0.40
  -2 -20   1    5.88    0.59
   2 -20  -1    5.94    0.59
  -2 -20   0    0.69    0.26
   2 -20   0    0.96    0.29
  -2 -20  -1    3.03    0.46
   2 -20   1    3.07    0.42
   2 -20   2    0.98    0.26
  -2 -20  -2    0.83    0.29
   2 -20   3    7.57    0.61
  -2 -20  -3    7.45    0.71
   2 -20   4    0.71    0.22
  -2 -20  -4    0.57    0.24
   2 -20   5    6.57    0.54
  -2 -20  -5    6.27    0.69
  -2 -20  -6    0.71    0.30
  -2 -20  -7    4.62    0.61
  -2 -20  -8    0.34    0.29
  -2 -20  -9    2.15    0.46
  -2 -20 -10   -0.02    0.25
  -2 -20 -11    0.23    0.23
  -2 -20 -12    0.77    0.31
  -2 -20 -13    1.88    0.42
  -2 -20 -14    1.87    0.44
  -2 -20 -15   -0.06    0.25
   2 -22 -13    0.26    0.33
   2 -22 -12    0.62    0.29
   2 -22 -11    0.05    0.25
   2 -22 -10    1.27    0.42
   2 -22  -9    0.24    0.26
   2 -22  -8    2.48    0.46
   2 -22  -7    1.11    0.38
   2 -22  -6    0.40    0.31
  -2 -22   6    0.13    0.18
   2 -22  -5   -0.03    0.20
  -2 -22   5    0.29    0.25
  -2 -22   4    2.74    0.42
   2 -22  -4    2.61    0.45
  -2 -22   3    0.02    0.20
   2 -22  -3    0.10    0.23
  -2 -22   2    0.40    0.21
   2 -22  -2    0.12    0.23
  -2 -22   1    0.95    0.31
   2 -22  -1    0.87    0.27
  -2 -22   0    8.05    0.74
   2 -22   0    7.50    0.70
   2 -22   1   -0.04    0.17
  -2 -22  -1    0.13    0.23
   2 -22   2    1.67    0.34
  -2 -22  -2    2.58    0.46
  -2 -22  -3    1.27    0.36
   2 -22   3    1.38    0.31
  -2 -22  -4    4.80    0.63
  -2 -22  -5    0.80    0.34
  -2 -22  -6    5.66    0.69
  -2 -22  -7    0.21    0.31
  -2 -22  -8    0.46    0.25
  -2 -22  -9    0.37    0.27
  -2 -22 -10    1.95    0.45
  -2 -22 -11   -0.21    0.32
  -2 -22 -12    1.34    0.40
   2 -24 -10    0.22    0.30
   2 -24  -9   -0.07    0.26
   2 -24  -8    0.67    0.31
   2 -24  -7    1.33    0.39
   2 -24  -6    0.79    0.33
  -2 -24   5    1.81    0.35
   2 -24  -5    2.23    0.48
  -2 -24   4    1.29    0.33
   2 -24  -4    1.48    0.34
   2 -24  -3    1.35    0.37
  -2 -24   3    1.42    0.38
  -2 -24   2   -0.05    0.22
   2 -24  -2   -0.18    0.25
   2 -24  -1    1.14    0.32
  -2 -24   1    1.65    0.41
   2 -24   0    0.76    0.28
  -2 -24   0    1.32    0.36
   2 -24   1    0.06    0.20
  -2 -24  -1   -0.08    0.25
  -2 -24  -2    0.84    0.32
   2 -24   2    1.00    0.29
  -2 -24  -3    2.56    0.45
  -2 -24  -4    0.42    0.32
  -2 -24  -5    0.58    0.34
  -2 -24  -6    2.46    0.50
  -2 -24  -7    1.77    0.41
  -2 -24  -8    0.96    0.36
   2 -26  -6    1.04    0.40
   2 -26  -5    1.31    0.39
   2 -26  -4    0.17    0.29
  -2 -26   3    0.78    0.33
   2 -26  -3    1.32    0.39
   2 -26  -2    0.34    0.29
  -2 -26   2    0.95    0.34
   2 -26  -1    0.11    0.24
  -2 -26   1    0.40    0.25
  -2 -26   0    1.20    0.34
   2 -26   0    0.43    0.24
  -2 -26  -1   -0.05    0.23
  -2 -26  -2    0.00    0.21
  -2 -26  -3    2.86    0.54
  -2 -26  -4    0.19    0.24
   2 -28  -2    0.99    0.32
  -2 -28   1    0.14    0.27
   3  -1 -25    3.18    0.55
   3   1 -25    2.12    0.48
   3  -1 -24    0.46    0.26
   3   1 -24    0.51    0.32
   3  -1 -23    9.82    0.89
   3   1 -23   10.30    0.91
   3  -1 -22    2.91    0.49
   3   1 -22    2.36    0.47
   3   1 -21    2.07    0.42
   3  -1 -21    1.68    0.38
   3   1 -20    0.87    0.28
   3  -1 -20    1.09    0.28
   3   1 -19    2.91    0.44
   3  -1 -19    2.70    0.42
   3   1 -18    0.17    0.20
   3  -1 -18    0.48    0.21
   3  -1 -17    9.51    0.73
   3   1 -17   10.10    0.75
   3   1 -16    0.33    0.16
   3  -1 -16    0.42    0.23
   3  -1 -15    1.48    0.27
   3   1 -15    1.86    0.31
   3  -1 -14    1.62    0.29
   3   1 -14    1.87    0.30
   3  -1 -13    0.46    0.15
   3   1 -13    0.39    0.16
   3  -1 -12   13.07    0.70
   3   1 -12   14.43    0.74
   3   1 -11   35.06    1.22
   3  -1 -11   32.74    1.18
   3   1 -10   10.69    0.58
   3  -1 -10   11.50    0.60
   3  -1  -9   59.34    1.65
   3   1  -9   61.34    1.68
   3   1  -8   13.18    0.60
   3  -1  -8   13.44    0.58
   3   1  -7   40.68    1.18
   3  -1  -7   40.26    1.15
   3  -1  -6   62.78    1.57
   3   1  -6   63.96    1.59
  -3  -1   5  341.04    6.61
   3  -1  -5  325.68    6.53
   3  -1  -5  327.88    6.70
   3   1  -5  332.93    6.74
   3  -1  -4   36.69    0.90
   3  -1  -4   38.50    0.98
   3   1  -4   37.63    1.01
  -3  -1   4   39.98    0.95
  -3  -1   3   33.60    0.86
   3  -1  -3   31.55    0.82
  -3  -1   2  172.57    3.57
  -3  -1   2  166.73    3.53
  -3  -1   1   96.59    2.12
  -3  -1   1   94.13    2.12
  -3  -1   0   53.64    1.32
  -3  -1   0   53.79    1.31
  -3  -1  -1  151.39    3.22
  -3   1  -1  146.04    3.16
   3  -1   1  157.73    3.17
  -3  -1  -1  152.21    3.26
  -3  -1  -2   48.14    1.18
   3  -1   2   45.59    1.15
  -3  -1  -2   48.50    1.23
  -3   1  -2   45.59    1.11
   3  -1   2   45.80    1.12
  -3  -1  -3    9.34    0.39
   3  -1   3    9.51    0.36
   3  -1   3   10.15    0.41
   3   1   3    9.79    0.40
  -3   1  -3    8.61    0.34
  -3  -1  -4   15.16    0.54
   3  -1   4   14.49    0.47
  -3   1  -4   15.22    0.57
  -3   1  -4   14.68    0.47
   3   1   4   14.56    0.53
  -3   1  -5   36.80    0.94
   3  -1   5   37.23    0.94
   3   1   5   38.17    1.03
  -3  -1  -5   37.79    1.13
  -3  -1  -5   36.79    1.02
  -3   1  -5   37.09    1.10
   3   1   5   36.65    1.09
   3   1   6   11.26    0.53
  -3   1  -6   11.97    0.55
  -3   1  -6   11.36    0.42
  -3  -1  -6   11.27    0.56
  -3  -1  -6   11.00    0.47
   3  -1   6   11.28    0.41
   3   1   6   12.02    0.49
  -3   1  -7    4.11    0.24
  -3  -1  -7    3.63    0.32
   3   1   7    4.47    0.32
  -3   1  -7    3.99    0.33
  -3  -1  -7    3.85    0.27
  -3  -1  -8    5.33    0.33
   3   1   8    5.51    0.38
  -3   1  -8    4.99    0.28
  -3  -1  -8    5.20    0.41
  -3   1  -8    5.24    0.39
   3   1   9   71.80    1.85
  -3   1  -9   66.62    1.92
  -3  -1  -9   69.28    1.96
  -3  -1  -9   67.12    1.73
  -3   1  -9   67.77    1.63
  -3  -1 -10   12.19    0.69
  -3   1 -10   12.25    0.49
   3   1  10   12.54    0.61
  -3   1 -10   12.35    0.68
  -3  -1 -10   11.96    0.55
  -3   1 -11    4.04    0.27
  -3   1 -11    4.29    0.42
  -3  -1 -11    3.48    0.38
   3   1  11    4.23    0.36
  -3  -1 -11    3.76    0.30
  -3   1 -12    3.12    0.37
  -3  -1 -12    3.50    0.40
   3   1  12    3.16    0.32
  -3  -1 -12    3.21    0.29
  -3   1 -12    2.90    0.24
  -3   1 -13   12.97    0.55
   3   1  13   12.83    0.67
  -3  -1 -13   12.49    0.78
  -3   1 -13   13.32    0.80
  -3  -1 -13   13.83    0.64
  -3   1 -14    3.82    0.30
  -3  -1 -14    3.49    0.33
   3  -1  14    4.20    0.40
   3   1  14    4.86    0.41
  -3  -1 -14    3.66    0.43
  -3   1 -14    3.87    0.45
  -3  -1 -15    1.39    0.22
  -3   1 -15    1.47    0.19
   3  -1  15    1.49    0.27
  -3  -1 -15    1.25    0.28
  -3   1 -15    1.40    0.29
   3   1  15    1.84    0.27
   3   1  16    5.05    0.43
   3  -1  16    4.55    0.42
  -3   1 -16    4.72    0.34
  -3   1 -16    4.66    0.52
  -3  -1 -16    4.80    0.53
  -3  -1 -16    5.09    0.40
  -3  -1 -17    0.39    0.14
   3   1  17    0.17    0.15
   3  -1  17    0.58    0.18
  -3   1 -17    0.13    0.17
  -3  -1 -17    0.35    0.24
   3  -1  18    3.16    0.38
  -3   1 -18    3.35    0.48
   3   1  18    3.49    0.37
  -3  -1 -18    3.61    0.51
   3  -1  19    9.60    0.66
  -3   1 -19   10.92    0.87
  -3  -1 -19    9.74    0.84
  -3   1 -20    2.91    0.48
  -3  -1 -20    3.16    0.50
  -3  -1 -21    4.13    0.59
  -3   1 -21    4.41    0.60
  -3  -1 -22    0.53    0.26
  -3   1 -22    0.36    0.22
  -3  -1 -23    0.67    0.34
  -3   1 -23    0.78    0.29
   3   3 -25    0.25    0.26
   3  -3 -25    0.34    0.25
   3  -3 -24    0.46    0.28
   3   3 -24    0.33    0.26
   3  -3 -23    0.39    0.24
   3   3 -23   -0.19    0.26
   3  -3 -22    5.86    0.67
   3   3 -22    5.73    0.66
   3   3 -21    1.06    0.32
   3  -3 -21    0.75    0.28
   3   3 -20    2.11    0.41
   3  -3 -20    2.05    0.39
   3   3 -19    1.25    0.31
   3  -3 -19    1.72    0.33
   3   3 -18    2.32    0.40
   3  -3 -18    2.91    0.42
   3   3 -17    1.43    0.31
   3  -3 -17    1.21    0.28
   3  -3 -16    4.83    0.49
   3   3 -16    4.71    0.49
   3  -3 -15    0.13    0.14
   3   3 -15   -0.12    0.17
   3  -3 -14    9.72    0.64
   3   3 -14    8.75    0.63
   3  -3 -13    1.65    0.26
   3   3 -13    1.33    0.25
   3   3 -12   27.36    1.11
   3  -3 -12   28.08    1.08
   3   3 -11   18.34    0.84
   3  -3 -11   18.48    0.81
   3   3 -10   14.27    0.70
   3   3 -10   15.32    0.61
   3  -3 -10   14.10    0.66
   3   3  -9    5.02    0.39
   3   3  -9    5.94    0.35
   3  -3  -9    5.55    0.38
   3   3  -8   31.09    1.04
   3   3  -8   33.32    0.97
  -3   3   8   32.20    0.99
   3  -3  -8   31.16    1.00
   3   3  -7    5.89    0.37
   3   3  -7    6.34    0.34
  -3   3   7    5.54    0.32
   3  -3  -7    5.53    0.33
   3  -3  -6   47.67    1.26
   3   3  -6   47.53    1.34
   3   3  -6   49.51    1.29
   3  -3  -5    5.82    0.29
  -3   3   5    5.75    0.29
   3   3  -5    5.66    0.34
  -3  -3   5    5.79    0.31
   3   3  -5    5.86    0.32
   3  -3  -4   39.45    0.95
  -3   3   4   37.58    0.94
  -3  -3   4   37.47    1.04
   3  -3  -3   40.14    0.93
  -3  -3   3   39.56    1.08
  -3  -3   2   46.83    1.22
  -3  -3   1    1.00    0.15
  -3  -3   1    1.18    0.17
  -3  -3   0   28.26    0.83
  -3  -3   0   26.44    0.82
  -3  -3  -1   33.55    0.99
   3  -3   1   36.17    0.85
  -3  -3  -1   34.46    1.00
  -3  -3  -2  272.85    5.72
  -3  -3  -2  278.73    5.73
   3  -3   2  276.91    5.54
   3  -3   2  276.83    5.57
  -3  -3  -3    0.78    0.14
  -3  -3  -3    0.78    0.13
   3  -3   3    0.87    0.09
  -3   3  -3    0.69    0.11
   3  -3   3    0.81    0.11
   3  -3   4   19.89    0.55
   3   3   4   20.33    0.72
   3   3   4   20.39    0.73
  -3  -3  -4   22.02    0.75
  -3  -3  -4   20.97    0.73
  -3   3  -4   21.06    0.68
   3  -3   4   20.46    0.67
   3   3   5    6.16    0.37
  -3  -3  -5    6.19    0.37
   3  -3   5    5.81    0.23
  -3  -3  -5    6.50    0.38
   3   3   5    6.34    0.38
   3  -3   5    5.96    0.35
  -3   3  -5    5.62    0.34
  -3  -3  -6   29.97    0.95
   3   3   6   30.24    0.97
  -3   3  -6   26.70    0.70
   3   3   6   31.28    0.97
   3  -3   6   30.15    0.71
  -3  -3  -6   30.60    0.97
  -3   3  -6   29.19    0.95
   3  -3   6   30.49    0.96
  -3   3  -7    3.63    0.17
   3   3   7    3.07    0.28
  -3  -3  -7    3.63    0.33
  -3  -3  -7    3.55    0.29
  -3   3  -7    3.75    0.31
  -3  -3  -8   27.40    0.93
  -3   3  -8   26.10    0.96
  -3  -3  -8   26.47    1.01
  -3   3  -8   24.60    0.64
   3   3   8   24.95    0.89
   3   3   9    0.89    0.17
  -3  -3  -9    0.68    0.15
  -3  -3  -9    0.86    0.19
  -3   3  -9    0.91    0.09
  -3   3  -9    0.62    0.16
  -3  -3 -10    0.42    0.18
   3   3  10    0.51    0.16
  -3   3 -10    0.37    0.07
  -3   3 -10    0.30    0.13
  -3  -3 -10    0.22    0.12
   3   3  11    0.78    0.18
  -3  -3 -11    0.58    0.17
  -3   3 -11    0.41    0.07
  -3   3 -11    0.53    0.17
  -3  -3 -11    0.24    0.18
  -3  -3 -12   19.92    0.84
  -3   3 -12   18.22    0.56
   3   3  12   18.76    0.80
  -3  -3 -12   17.97    0.94
  -3   3 -12   19.88    0.95
  -3  -3 -13    0.79    0.22
   3   3  13    0.37    0.14
  -3   3 -13    0.33    0.20
  -3   3 -13    0.60    0.10
  -3  -3 -13    0.50    0.19
  -3   3 -14    5.09    0.27
   3   3  14    5.81    0.44
  -3  -3 -14    5.28    0.44
  -3  -3 -14    5.75    0.55
  -3   3 -14    5.55    0.53
  -3  -3 -15    0.75    0.21
  -3  -3 -15    0.77    0.25
   3   3  15    0.59    0.17
  -3   3 -15    0.60    0.10
  -3   3 -15    0.51    0.21
  -3  -3 -16   12.10    0.86
  -3  -3 -16   12.82    0.72
   3   3  16   11.84    0.66
  -3   3 -16   11.64    0.84
  -3  -3 -17    5.86    0.50
   3   3  17    5.79    0.46
  -3  -3 -17    6.32    0.64
  -3   3 -17    5.59    0.60
  -3  -3 -18    7.90    0.59
   3   3  18    7.72    0.55
  -3   3 -18    8.02    0.73
  -3  -3 -18    7.21    0.71
   3  -3  19    1.78    0.30
  -3  -3 -19    1.61    0.38
  -3   3 -19    1.41    0.35
  -3   3 -20    3.88    0.55
  -3  -3 -20    3.83    0.56
  -3   3 -21    0.71    0.30
  -3  -3 -21    0.85    0.26
  -3  -3 -22    1.00    0.34
  -3   3 -22    0.46    0.29
  -3   3 -23    0.34    0.22
  -3  -3 -23    0.41    0.26
   3  -5 -25    1.15    0.37
   3   5 -25    2.00    0.46
   3  -5 -24    0.11    0.21
   3   5 -24    0.51    0.30
   3   5 -23    3.67    0.57
   3  -5 -23    4.02    0.57
   3   5 -22    0.45    0.28
   3  -5 -22    0.04    0.18
   3  -5 -21    0.45    0.21
   3   5 -21    0.76    0.27
   3   5 -20    1.78    0.38
   3  -5 -20    1.28    0.32
   3  -5 -19    4.42    0.52
   3   5 -19    4.22    0.53
   3   5 -18    1.49    0.32
   3  -5 -18    1.46    0.31
   3   5 -17    2.16    0.35
   3  -5 -17    1.79    0.33
   3  -5 -16    0.69    0.21
   3   5 -16    0.52    0.21
   3  -5 -15   16.36    0.88
   3   5 -15   14.50    0.88
   3   5 -14    0.50    0.20
   3  -5 -14    1.09    0.24
   3   5 -13   13.81    0.78
   3   5 -13   13.56    0.61
   3  -5 -13   13.61    0.74
   3   5 -12    8.05    0.57
   3   5 -12    7.62    0.42
   3  -5 -12    7.49    0.52
   3   5 -11   13.99    0.73
   3   5 -11   13.96    0.60
   3  -5 -11   14.59    0.70
   3  -5 -10    2.89    0.28
   3   5 -10    3.09    0.26
   3   5 -10    3.31    0.35
   3   5  -9   10.35    0.48
   3   5  -9   10.51    0.57
   3  -5  -9   10.61    0.53
  -3   5   8   15.36    0.61
   3   5  -8   14.14    0.67
   3  -5  -8   14.82    0.61
   3   5  -8   15.97    0.61
  -3  -5   7   46.93    1.24
   3   5  -7   43.32    1.33
  -3   5   7   46.55    1.23
   3  -5  -7   45.18    1.23
   3   5  -7   46.98    1.26
   3   5  -6    8.24    0.41
  -3   5   6    8.25    0.37
   3   5  -6    7.25    0.43
   3  -5  -6    8.33    0.38
   3   5  -5   35.13    1.04
  -3   5   5   37.05    0.92
   3  -5  -5   35.23    0.93
  -3  -5   5   35.52    1.03
   3   5  -4    5.43    0.32
  -3  -5   4    4.58    0.31
   3  -5  -4    5.00    0.23
  -3   5   4    4.57    0.22
  -3  -5   3   10.17    0.47
  -3   5   3   10.02    0.29
  -3  -5   2   70.02    1.75
  -3  -5   1   51.14    1.37
  -3  -5   0   48.47    1.33
   3  -5   1   44.58    0.98
  -3  -5  -1   44.09    1.23
  -3  -5  -1   41.52    1.24
  -3  -5  -2    8.23    0.44
  -3   5  -2    8.24    0.31
   3  -5   2    9.21    0.32
  -3  -5  -2    7.94    0.44
  -3  -5  -3    6.89    0.39
  -3  -5  -3    6.58    0.40
  -3   5  -3    6.25    0.29
   3  -5   3    6.08    0.29
  -3  -5  -4   -0.06    0.11
   3  -5   4    0.09    0.07
  -3   5  -4    0.11    0.07
   3  -5   4    0.19    0.05
  -3  -5  -4    0.12    0.10
  -3  -5  -5   52.13    1.40
   3  -5   5   53.46    1.31
  -3   5  -5   49.57    1.29
   3  -5   5   45.23    1.05
  -3  -5  -5   48.59    1.42
  -3  -5  -6   26.08    0.96
  -3   5  -6   26.37    0.88
   3  -5   6   28.44    0.90
  -3  -5  -7   16.78    0.74
  -3   5  -7   15.81    0.67
   3   5   7   15.63    0.67
  -3   5  -8    5.01    0.38
   3   5   8    5.47    0.38
  -3  -5  -8    5.20    0.41
   3   5   9   20.32    0.81
  -3   5  -9   20.89    0.87
  -3  -5  -9   19.97    0.87
  -3   5 -10    6.30    0.46
   3   5  10    6.00    0.42
  -3  -5 -10    5.95    0.49
  -3  -5 -10    6.11    0.47
  -3   5 -11    0.02    0.13
   3   5  11    0.50    0.18
  -3  -5 -11    0.58    0.21
  -3  -5 -11    0.17    0.16
  -3  -5 -12    6.43    0.51
  -3   5 -12    6.70    0.54
  -3  -5 -12    6.36    0.55
   3   5  12    6.60    0.47
  -3  -5 -13    5.02    0.47
  -3   5 -13    6.15    0.53
  -3  -5 -13    5.98    0.55
   3   5  14    3.66    0.36
  -3  -5 -14    3.64    0.40
  -3  -5 -14    4.00    0.49
  -3   5 -14    3.48    0.43
  -3  -5 -15    9.12    0.72
  -3  -5 -15   10.03    0.67
  -3   5 -15    8.85    0.70
   3   5  15    9.89    0.59
  -3  -5 -16    1.36    0.28
   3   5  16    0.85    0.22
  -3  -5 -16    0.77    0.28
  -3   5 -16    0.54    0.23
  -3  -5 -17    1.24    0.27
  -3  -5 -17    1.30    0.32
  -3   5 -17    1.24    0.28
  -3  -5 -18    1.58    0.36
  -3  -5 -18    1.16    0.29
  -3   5 -18    1.09    0.32
  -3  -5 -19    1.77    0.34
  -3  -5 -19    1.72    0.40
  -3   5 -19    1.49    0.33
  -3  -5 -20    1.20    0.35
  -3   5 -20    1.93    0.38
  -3  -5 -21    0.29    0.26
  -3   5 -21    0.26    0.26
  -3  -5 -22   -0.07    0.26
  -3   5 -22    0.32    0.26
  -3   5 -23    0.42    0.30
  -3  -5 -23    0.03    0.23
   3  -7 -25   -0.18    0.33
   3   7 -25    0.51    0.25
   3   7 -24    2.02    0.44
   3  -7 -24    2.61    0.48
   3  -7 -23    3.49    0.53
   3   7 -23    2.53    0.48
   3   7 -22    1.67    0.42
   3  -7 -22    1.52    0.38
   3   7 -21    1.05    0.31
   3  -7 -21    0.65    0.25
   3   7 -20    3.51    0.50
   3  -7 -20    4.01    0.53
   3  -7 -19    6.91    0.64
   3   7 -19    6.22    0.64
   3   7 -18    1.42    0.34
   3  -7 -18    1.95    0.34
   3   7 -17    1.48    0.30
   3  -7 -17    1.54    0.29
   3  -7 -16    7.31    0.60
   3   7 -16    8.07    0.66
   3   7 -15   11.82    0.78
   3  -7 -15   11.26    0.73
   3   7 -14    0.70    0.22
   3   7 -14    0.73    0.15
   3  -7 -14    0.65    0.20
   3  -7 -13    6.61    0.50
   3   7 -13    7.53    0.58
   3   7 -13    7.49    0.44
   3   7 -12   20.53    0.74
   3   7 -12   17.68    0.89
   3  -7 -12   20.08    0.87
   3  -7 -12   17.27    0.45
   3   7 -11   37.98    1.13
   3   7 -11   37.75    1.33
   3  -7 -11   35.12    0.86
   3  -7 -11   37.34    1.24
   3   7 -10    4.37    0.31
   3   7 -10    4.05    0.38
   3  -7 -10    4.19    0.34
   3   7  -9    8.33    0.45
   3   7  -9    8.39    0.52
   3  -7  -9    9.08    0.48
   3   7  -8    0.98    0.19
  -3   7   8    1.17    0.16
   3   7  -8    0.72    0.14
  -3  -7   8    1.13    0.17
   3  -7  -8    0.97    0.15
  -3  -7   7    0.47    0.13
   3   7  -7    0.43    0.15
  -3   7   7    0.64    0.12
   3  -7  -7    0.45    0.11
   3   7  -7    0.36    0.11
  -3  -7   6    8.42    0.44
  -3   7   6    8.48    0.37
   3   7  -6    8.39    0.48
   3  -7  -6    9.12    0.39
   3   7  -6    9.82    0.48
  -3   7   5   28.22    0.75
   3   7  -5   27.51    0.92
   3  -7  -5   27.41    0.75
  -3  -7   5   27.18    0.91
  -3   7   4   50.29    1.15
   3  -7  -4   51.33    1.16
  -3  -7   4   49.76    1.41
   3   7  -4   52.57    1.42
  -3   7   3    8.34    0.25
  -3  -7   3    8.06    0.45
   3   7  -3    7.92    0.44
   3  -7  -3    8.02    0.25
  -3  -7   2    2.10    0.24
  -3  -7   1   33.30    1.07
  -3  -7   0   27.38    0.95
  -3   7  -1   30.81    0.70
   3  -7   1   30.29    0.69
  -3   7  -2   59.98    1.37
  -3  -7  -2   59.48    1.71
  -3   7  -3   13.10    0.45
   3  -7   3   14.13    0.46
  -3  -7  -3   13.27    0.65
  -3  -7  -4    0.18    0.13
   3  -7   4    0.37    0.10
  -3   7  -4    0.20    0.07
  -3  -7  -5    1.49    0.23
  -3   7  -5    1.54    0.17
   3  -7   6   12.90    0.52
  -3  -7  -6   13.36    0.66
  -3   7  -6   12.89    0.53
  -3   7  -7   14.17    0.63
  -3  -7  -7   14.90    0.74
  -3  -7  -8   14.64    0.76
  -3   7  -8   15.05    0.68
  -3  -7  -9   34.83    1.29
  -3   7  -9   32.70    1.16
  -3  -7 -10    1.56    0.28
  -3   7 -10    1.47    0.24
  -3  -7 -11    3.91    0.43
  -3   7 -11    3.49    0.38
  -3  -7 -12    2.09    0.33
  -3   7 -12    1.95    0.30
  -3   7 -13    2.97    0.39
  -3  -7 -13    2.92    0.39
  -3  -7 -14    9.40    0.69
  -3  -7 -14    9.63    0.72
  -3   7 -14    9.08    0.67
  -3   7 -15   17.01    0.98
  -3  -7 -15   18.42    1.00
  -3  -7 -15   17.30    1.04
  -3  -7 -16    7.36    0.62
  -3  -7 -16    6.86    0.66
  -3   7 -16    6.28    0.61
  -3  -7 -17    9.15    0.72
  -3   7 -17    8.47    0.73
  -3  -7 -17    7.86    0.73
  -3  -7 -18    5.14    0.55
  -3   7 -18    5.02    0.57
  -3  -7 -18    5.58    0.64
  -3  -7 -19    3.34    0.46
  -3  -7 -19    3.18    0.50
  -3   7 -19    3.56    0.51
  -3  -7 -20    0.92    0.28
  -3  -7 -20    0.64    0.28
  -3   7 -20    0.96    0.26
  -3  -7 -21    0.67    0.28
  -3   7 -21    0.32    0.26
  -3  -7 -22    0.66    0.27
  -3   7 -22    0.17    0.17
  -3   7 -23    0.78    0.32
   3  -9 -25    0.26    0.24
   3   9 -24    0.31    0.25
   3  -9 -24    0.61    0.24
   3   9 -23    1.56    0.38
   3  -9 -23    1.73    0.38
   3   9 -22    1.85    0.41
   3  -9 -22    2.43    0.44
   3   9 -21    1.56    0.38
   3  -9 -21    1.40    0.32
   3   9 -20    0.13    0.18
   3  -9 -20   -0.03    0.18
   3   9 -19    1.88    0.38
   3  -9 -19    1.77    0.33
   3  -9 -18    8.99    0.72
   3   9 -18    7.28    0.70
   3   9 -17    2.61    0.42
   3  -9 -17    2.67    0.38
   3  -9 -16    7.07    0.59
   3   9 -16    6.04    0.59
   3   9 -15    2.50    0.38
   3  -9 -15    1.91    0.30
   3   9 -14    5.19    0.52
   3  -9 -14    5.01    0.45
   3   9 -13    2.58    0.36
   3   9 -13    2.98    0.28
   3  -9 -13    2.99    0.19
   3  -9 -13    3.42    0.36
   3   9 -12    8.77    0.62
   3  -9 -12    8.67    0.56
   3   9 -12    8.65    0.48
   3  -9 -12    8.52    0.36
   3   9 -11    0.70    0.16
   3  -9 -11    0.97    0.20
   3   9 -11    0.63    0.21
   3   9 -10    9.33    0.60
   3   9 -10    9.94    0.51
   3  -9 -10    9.82    0.54
   3   9  -9   -0.10    0.14
   3   9  -9    0.11    0.09
   3  -9  -9    0.02    0.08
  -3  -9   9    0.14    0.11
  -3   9   8    2.52    0.24
   3   9  -8    2.48    0.25
  -3  -9   8    2.52    0.25
   3   9  -8    3.15    0.32
   3  -9  -8    2.90    0.25
  -3   9   7   10.38    0.46
   3   9  -7   10.56    0.58
   3  -9  -7   10.83    0.47
  -3  -9   7   10.28    0.52
   3  -9  -6   34.07    0.95
   3   9  -6   32.92    1.13
  -3   9   6   36.51    0.96
  -3  -9   6   35.30    1.13
  -3   9   5   12.97    0.44
  -3  -9   5   13.98    0.63
  -3   9   4   25.90    0.67
  -3  -9   4   27.70    0.96
  -3   9   3   11.19    0.31
  -3  -9   3   12.52    0.61
  -3  -9   2   14.26    0.67
  -3  -9   1   23.84    0.93
  -3  -9   0    2.13    0.27
  -3   9  -1   24.02    0.56
  -3  -9  -1   25.63    0.98
  -3  -9  -2   21.65    0.91
  -3   9  -2   21.10    0.57
   3  -9   3   11.56    0.40
  -3  -9  -3   10.56    0.62
  -3   9  -3   11.08    0.40
  -3  -9  -4    6.30    0.49
  -3   9  -4    6.75    0.33
   3  -9   4    6.57    0.32
  -3  -9  -5    5.94    0.49
   3  -9   5    6.30    0.33
  -3   9  -5    5.67    0.33
  -3  -9  -6   18.22    0.88
   3  -9   6   18.42    0.53
  -3   9  -6   17.85    0.69
   3  -9   6   19.00    0.68
  -3  -9  -7    4.73    0.45
  -3   9  -7    4.57    0.33
  -3  -9  -8    7.41    0.57
  -3   9  -8    7.45    0.47
  -3  -9  -9    1.69    0.31
  -3   9  -9    2.01    0.26
  -3  -9 -10   21.65    1.03
  -3   9 -10   19.89    0.89
  -3  -9 -11    1.74    0.32
  -3   9 -11    2.02    0.29
  -3  -9 -12   18.83    1.01
  -3   9 -12   18.06    0.92
  -3  -9 -13    6.47    0.60
  -3   9 -13    6.74    0.55
  -3  -9 -14    1.77    0.33
  -3   9 -14    0.99    0.26
  -3  -9 -15    4.72    0.52
  -3   9 -15    4.26    0.48
  -3  -9 -16    1.79    0.37
  -3   9 -16    1.53    0.28
  -3   9 -17    0.77    0.24
  -3  -9 -17    0.97    0.28
  -3  -9 -18    3.55    0.50
  -3   9 -18    3.57    0.49
  -3  -9 -19    0.31    0.19
  -3   9 -19    0.43    0.26
  -3  -9 -20    1.73    0.37
  -3   9 -20    2.17    0.42
  -3  -9 -21    2.69    0.45
  -3   9 -21    2.19    0.46
  -3   9 -22    1.53    0.39
  -3   9 -23   -0.11    0.24
   3 -11 -25    0.77    0.33
   3 -11 -25    1.45    0.40
   3  11 -24    1.17    0.36
   3 -11 -24    0.37    0.21
   3  11 -23    2.05    0.44
   3 -11 -23    1.90    0.39
   3  11 -22    0.80    0.30
   3 -11 -22    0.57    0.25
   3  11 -21    1.95    0.42
   3 -11 -21    1.71    0.36
   3  11 -20    0.75    0.27
   3 -11 -20    0.74    0.26
   3  11 -19    0.75    0.25
   3 -11 -19    1.57    0.32
   3  11 -18    2.08    0.40
   3 -11 -18    2.25    0.37
   3  11 -17    0.76    0.24
   3 -11 -17    1.17    0.27
   3  11 -16    0.26    0.19
   3 -11 -16    0.24    0.16
   3  11 -15    0.84    0.24
   3 -11 -15    0.64    0.17
   3 -11 -14    2.27    0.32
   3  11 -14    2.10    0.36
   3 -11 -13    0.96    0.21
   3  11 -13    0.51    0.24
   3  11 -12    0.98    0.27
   3 -11 -12    1.25    0.23
   3 -11 -11   17.57    0.80
  -3 -11  11   18.79    0.74
   3  11 -11   17.20    0.89
   3  11 -10    0.12    0.19
   3 -11 -10    0.31    0.13
  -3 -11  10    0.26    0.14
   3  11  -9    7.24    0.53
   3 -11  -9    8.56    0.47
  -3 -11   9    8.23    0.48
  -3  11   8    0.94    0.15
  -3 -11   8    0.65    0.16
   3 -11  -8    1.00    0.17
   3  11  -8    0.92    0.22
   3  11  -7    6.05    0.46
  -3 -11   7    7.23    0.47
  -3  11   7    7.05    0.37
  -3 -11   6   19.89    0.83
   3  11  -6   19.66    0.85
  -3  11   6   20.07    0.65
  -3 -11   5   10.57    0.59
  -3  11   5    9.83    0.38
  -3 -11   4   19.48    0.83
  -3  11   4   18.37    0.52
  -3 -11   3   11.91    0.64
  -3  11   3   11.09    0.32
  -3 -11   2   13.96    0.72
  -3 -11   1    2.58    0.31
  -3 -11   0   18.97    0.87
  -3 -11  -1    5.57    0.46
  -3  11  -1    5.08    0.19
  -3  11  -2   24.24    0.64
  -3 -11  -2   24.62    1.04
  -3  11  -3    5.98    0.28
  -3 -11  -3    6.25    0.51
  -3  11  -4    1.17    0.14
  -3 -11  -4    0.80    0.21
  -3 -11  -5   20.03    0.97
  -3  11  -5   20.36    0.70
   3 -11   5   21.01    0.70
   3 -11   5   20.86    0.69
  -3 -11  -6    9.20    0.66
   3 -11   6    9.49    0.40
   3 -11   6    9.24    0.45
  -3  11  -6    9.47    0.47
  -3 -11  -7    4.29    0.47
   3 -11   7    3.86    0.21
  -3  11  -7    4.75    0.35
   3 -11   8    1.10    0.09
  -3 -11  -8    1.35    0.30
  -3  11  -8    1.12    0.19
  -3 -11  -9    6.95    0.62
  -3  11  -9    8.46    0.53
  -3 -11 -10    0.95    0.26
  -3  11 -10    1.15    0.22
  -3 -11 -11    0.66    0.26
  -3  11 -11    0.49    0.17
  -3 -11 -12    1.47    0.32
  -3  11 -12    1.06    0.23
  -3  11 -13    3.98    0.44
  -3 -11 -13    4.61    0.54
  -3 -11 -14    6.44    0.64
  -3  11 -14    5.72    0.54
  -3 -11 -15    8.99    0.76
  -3  11 -15    8.22    0.67
  -3 -11 -16    0.50    0.29
  -3  11 -16   -0.11    0.18
  -3 -11 -17    2.15    0.43
  -3  11 -17    1.44    0.31
  -3 -11 -18    4.15    0.57
  -3  11 -18    3.92    0.50
  -3 -11 -19    0.79    0.29
  -3  11 -19    1.05    0.31
  -3 -11 -20   -0.01    0.22
  -3  11 -20    0.36    0.21
  -3 -11 -21    3.53    0.54
  -3  11 -21    4.37    0.59
  -3 -11 -22    0.62    0.28
  -3  11 -22    0.12    0.22
  -3  11 -23    1.85    0.45
   3 -13 -24    2.56    0.50
   3 -13 -24    2.50    0.51
   3  13 -23    1.85    0.45
   3 -13 -23    1.91    0.39
   3  13 -22    0.85    0.36
   3 -13 -22    0.82    0.32
   3  13 -21    0.23    0.23
   3 -13 -21    0.45    0.24
   3  13 -20    0.26    0.24
   3 -13 -20    0.36    0.22
   3  13 -19    1.63    0.38
   3 -13 -19    1.99    0.37
   3  13 -18    1.03    0.31
   3 -13 -18    1.19    0.30
   3  13 -17    4.24    0.53
   3 -13 -17    4.11    0.48
   3  13 -16    0.49    0.23
   3 -13 -16    0.74    0.22
   3  13 -15    4.00    0.49
   3 -13 -15    4.39    0.46
   3 -13 -14    6.93    0.55
   3  13 -14    6.85    0.61
   3  13 -13   10.82    0.76
   3 -13 -13   10.30    0.65
   3  13 -12    6.23    0.55
  -3 -13  12    5.72    0.40
   3 -13 -12    5.47    0.45
   3  13 -11   10.97    0.72
  -3 -13  11   11.39    0.60
   3  13 -10    7.92    0.59
  -3 -13  10    8.92    0.52
   3  13  -9    2.86    0.33
  -3 -13   9    3.30    0.34
  -3  13   8    0.36    0.11
  -3 -13   8    0.61    0.19
   3  13  -8    0.56    0.21
  -3 -13   7    3.69    0.36
  -3  13   7    3.97    0.28
   3  13  -7    4.05    0.40
  -3 -13   6    2.57    0.31
  -3  13   6    2.46    0.20
  -3 -13   5    5.07    0.43
  -3  13   5    4.47    0.25
  -3 -13   4   42.27    1.40
  -3  13   4   38.23    0.95
  -3 -13   3    2.30    0.33
  -3  13   3    1.93    0.12
  -3 -13   2    4.09    0.42
  -3 -13   1   19.68    0.94
  -3 -13   0   17.96    0.90
  -3 -13  -1    4.61    0.44
  -3  13  -1    3.49    0.16
  -3 -13  -2   10.28    0.68
  -3  13  -2   10.58    0.37
  -3  13  -3   14.10    0.48
   3 -13   3   13.51    0.65
  -3 -13  -3   14.09    0.83
   3 -13   4   16.88    0.72
  -3  13  -4   17.78    0.60
  -3 -13  -4   18.47    0.96
  -3 -13  -5    1.87    0.34
  -3  13  -5    2.35    0.22
  -3 -13  -6   10.27    0.73
  -3  13  -6    9.57    0.48
   3 -13   6    9.57    0.45
  -3 -13  -7    0.86    0.28
   3 -13   7    0.85    0.14
  -3  13  -7    0.83    0.17
  -3 -13  -8   14.79    0.91
  -3  13  -8   15.47    0.70
   3 -13   8   13.90    0.49
  -3 -13  -9    4.85    0.54
  -3  13  -9    5.18    0.42
  -3 -13 -10    0.90    0.27
  -3  13 -10    0.85    0.20
  -3 -13 -11    3.84    0.49
  -3  13 -11    2.81    0.33
  -3 -13 -12    1.09    0.32
  -3  13 -12    1.68    0.28
  -3 -13 -13    1.87    0.41
  -3  13 -13    1.35    0.26
  -3 -13 -14   22.10    1.26
  -3  13 -14   20.47    1.06
  -3  13 -15    1.88    0.33
  -3 -13 -15    2.18    0.41
  -3 -13 -16    4.56    0.58
  -3  13 -16    3.88    0.49
  -3 -13 -17   -0.08    0.23
  -3  13 -17   -0.21    0.19
  -3 -13 -18    5.03    0.65
  -3  13 -18    4.49    0.56
  -3 -13 -19    1.56    0.42
  -3  13 -19    1.28    0.35
  -3 -13 -20    0.58    0.27
  -3  13 -20    1.07    0.33
  -3 -13 -21    0.12    0.29
  -3  13 -21    0.17    0.21
  -3  13 -22    1.56    0.41
  -3 -13 -22    0.96    0.36
  -3  13 -23    0.55    0.28
   3  15 -22    1.91    0.43
   3 -15 -22    2.81    0.55
   3  15 -21    1.91    0.41
   3  15 -20    4.54    0.60
   3  15 -19    0.33    0.24
   3  15 -18    1.33    0.32
   3  15 -17    9.30    0.80
   3  15 -16    4.12    0.52
   3  15 -15    2.16    0.40
   3  15 -14    1.97    0.35
   3  15 -13    1.84    0.33
   3  15 -12    3.50    0.44
  -3 -15  12    3.86    0.35
   3  15 -11    2.60    0.37
  -3 -15  11    2.16    0.27
  -3 -15  10    1.36    0.24
   3  15 -10    0.69    0.18
   3  15  -9    5.26    0.47
  -3 -15   9    5.38    0.46
   3  15  -8    2.77    0.35
  -3 -15   8    2.20    0.32
   3  15  -7    1.31    0.27
  -3 -15   7    1.16    0.23
  -3 -15   6    4.87    0.44
  -3  15   6    5.01    0.30
  -3  15   5    0.83    0.11
  -3 -15   5    1.00    0.24
  -3 -15   4    2.97    0.37
  -3  15   4    2.18    0.16
  -3 -15   3   15.51    0.82
  -3  15   3   12.23    0.39
  -3  15   2    3.69    0.16
  -3  15   2    3.77    0.16
  -3  15   1    4.38    0.16
  -3  15   1    4.12    0.16
  -3 -15   0    5.90    0.53
  -3  15   0    5.47    0.20
  -3  15   0    5.38    0.20
  -3  15  -1    4.22    0.20
   3 -15   1    5.03    0.43
  -3 -15  -1    4.21    0.46
   3 -15   2    5.09    0.44
  -3 -15  -2    5.02    0.51
  -3  15  -2    4.37    0.22
  -3  15  -3    0.41    0.08
   3 -15   3    0.66    0.19
  -3 -15  -3    0.84    0.25
  -3  15  -4    0.90    0.13
  -3 -15  -4    0.53    0.24
   3 -15   4    0.98    0.20
  -3  15  -5    0.61    0.13
  -3 -15  -5    0.33    0.21
   3 -15   5    0.60    0.15
   3 -15   6    4.10    0.33
  -3  15  -6    4.64    0.33
  -3 -15  -6    3.91    0.49
   3 -15   7   24.65    0.85
  -3 -15  -7   25.59    1.29
  -3  15  -7   24.99    0.91
  -3 -15  -8    4.18    0.54
  -3  15  -8    4.55    0.37
  -3 -15  -9    2.97    0.47
  -3  15  -9    3.08    0.32
  -3  15 -10    0.96    0.21
  -3 -15 -10    0.86    0.31
  -3 -15 -11    1.86    0.39
  -3  15 -11    1.47    0.25
  -3 -15 -12    0.21    0.20
  -3  15 -12    0.48    0.17
  -3  15 -13    1.15    0.27
  -3 -15 -13    1.26    0.35
  -3 -15 -14    4.08    0.57
  -3  15 -14    4.11    0.47
  -3 -15 -15    2.38    0.49
  -3  15 -15    1.63    0.32
  -3 -15 -16    0.59    0.29
  -3  15 -16    0.50    0.22
  -3  15 -17    1.37    0.31
  -3 -15 -17    1.47    0.38
  -3 -15 -18    0.44    0.28
  -3  15 -18    0.16    0.17
  -3 -15 -19    0.44    0.28
  -3 -15 -20    1.19    0.39
  -3 -15 -21    1.19    0.39
   3  17 -22    0.61    0.27
   3  17 -21    2.06    0.45
   3 -17 -20    0.80    0.38
   3  17 -20    0.27    0.22
   3  17 -19    2.88    0.50
   3 -17 -19    5.07    0.70
   3  17 -18    0.45    0.24
   3  17 -17    7.61    0.74
   3  17 -16    0.43    0.25
   3  17 -15    0.28    0.22
   3  17 -14   -0.01    0.17
   3  17 -13    5.18    0.54
   3  17 -12    0.53    0.23
  -3 -17  11    2.12    0.29
   3  17 -11    1.32    0.26
   3  17 -10    5.62    0.52
  -3 -17  10    6.08    0.49
  -3 -17   9    0.29    0.16
   3  17  -9    0.29    0.19
  -3 -17   8    0.18    0.15
   3  17  -8    0.54    0.21
   3  17  -7    3.56    0.41
  -3 -17   7    2.92    0.38
   3  17  -6    0.72    0.23
  -3 -17   6    0.34    0.18
   3  17  -5   12.94    0.73
  -3 -17   5   10.84    0.73
  -3 -17   4   12.41    0.80
  -3 -17   3   10.12    0.71
  -3 -17   2    2.23    0.36
   3 -17  -2    1.68    0.32
  -3 -17   1    9.15    0.70
   3 -17  -1    8.52    0.65
  -3 -17   0    2.56    0.40
   3 -17   0    2.33    0.36
  -3 -17  -1    2.79    0.40
   3 -17   1    3.38    0.40
   3 -17   2    1.54    0.27
  -3 -17  -2    1.42    0.32
   3 -17   3    0.04    0.13
  -3 -17  -3    0.54    0.24
   3 -17   4    1.61    0.26
  -3 -17  -4    1.77    0.36
  -3 -17  -5    0.09    0.22
   3 -17   5    0.53    0.16
  -3 -17  -6    1.39    0.35
   3 -17   6    1.41    0.22
  -3 -17  -7    1.79    0.35
  -3 -17  -8    3.59    0.52
  -3 -17  -9    2.07    0.44
  -3 -17 -10    0.33    0.24
  -3 -17 -11    2.53    0.45
  -3 -17 -12    1.93    0.42
  -3 -17 -13    0.30    0.29
  -3 -17 -14    0.26    0.33
  -3 -17 -15    1.06    0.34
  -3 -17 -16    1.09    0.39
  -3 -17 -17    3.05    0.55
  -3 -17 -18    1.16    0.43
   3  19 -21   -0.32    0.32
   3  19 -20    1.26    0.38
   3  19 -19    0.24    0.19
   3  19 -18    1.70    0.40
   3  19 -17    1.56    0.35
   3 -19 -17    1.55    0.42
   3  19 -16    1.02    0.30
   3 -19 -16    1.24    0.40
   3  19 -15   -0.16    0.26
   3 -19 -15    0.00    0.24
   3 -19 -14    3.64    0.62
   3  19 -14    2.43    0.41
   3 -19 -13    0.41    0.29
   3  19 -13    0.62    0.24
   3  19 -12    1.88    0.36
   3 -19 -12    2.10    0.45
   3  19 -11   -0.14    0.22
   3 -19 -11    0.13    0.26
   3 -19 -10    5.61    0.66
   3  19 -10    5.63    0.55
  -3 -19   9    1.56    0.29
   3 -19  -9    1.99    0.42
   3  19  -9    2.12    0.34
  -3 -19   8   13.24    0.81
   3  19  -8   12.70    0.79
   3 -19  -8   12.59    0.96
  -3 -19   7    4.59    0.49
   3  19  -7    5.52    0.51
   3 -19  -7    5.92    0.65
  -3 -19   6   10.44    0.74
   3  19  -6   11.93    0.73
   3 -19  -6   12.09    0.89
   3  19  -5    1.15    0.25
   3 -19  -5    0.86    0.31
  -3 -19   5    0.89    0.26
   3 -19  -4    4.58    0.54
  -3 -19   4    5.15    0.54
   3 -19  -3    5.23    0.57
  -3 -19   3    4.25    0.51
  -3 -19   2    0.75    0.29
   3 -19  -2    1.14    0.34
   3 -19  -1    1.15    0.29
  -3 -19   1    1.04    0.31
   3 -19   0   13.20    0.84
  -3 -19   0   12.28    0.88
   3 -19   1    1.02    0.28
  -3 -19  -1    1.07    0.28
   3 -19   2    1.15    0.26
  -3 -19  -2    0.88    0.30
  -3 -19  -3    2.11    0.40
   3 -19   3    2.32    0.34
   3 -19   4    6.43    0.52
  -3 -19  -4    5.44    0.62
  -3 -19  -5    4.41    0.57
   3 -19   5    4.14    0.41
  -3 -19  -6    1.97    0.43
  -3 -19  -7    1.23    0.36
  -3 -19  -8    2.05    0.44
  -3 -19  -9    0.74    0.34
  -3 -19 -10    2.44    0.47
  -3 -19 -11    2.45    0.48
  -3 -19 -12    0.41    0.34
  -3 -19 -13    0.12    0.24
  -3 -19 -14    2.79    0.54
  -3 -19 -15    1.13    0.39
  -3 -19 -16    0.15    0.24
   3 -21 -15   -0.02    0.25
   3 -21 -14    0.67    0.33
   3  21 -13    4.32    0.53
   3 -21 -13    5.25    0.72
   3  21 -12    0.67    0.26
   3 -21 -12    0.76    0.30
   3  21 -11    0.20    0.16
   3 -21 -11    0.78    0.30
   3  21 -10    0.87    0.24
   3 -21 -10    0.05    0.23
   3  21  -9    0.98    0.23
   3 -21  -9    0.66    0.31
   3  21  -8    0.14    0.16
  -3 -21   8    0.09    0.16
   3 -21  -8   -0.22    0.21
   3  21  -7    3.43    0.42
   3 -21  -7    3.72    0.54
  -3 -21   7    3.47    0.45
  -3 -21   6    2.47    0.40
   3  21  -6    2.42    0.38
   3 -21  -6    2.25    0.44
   3 -21  -5   -0.12    0.21
   3  21  -5    0.49    0.23
  -3 -21   5    0.33    0.20
   3 -21  -4    4.10    0.55
   3  21  -4    4.37    0.46
  -3 -21   4    4.12    0.53
  -3 -21   3    0.84    0.30
   3 -21  -3    0.49    0.23
  -3 -21   2    6.13    0.65
   3 -21  -2    5.54    0.61
  -3 -21   1    0.26    0.22
   3 -21  -1    0.09    0.24
   3 -21   0    6.76    0.63
  -3 -21   0    6.10    0.66
  -3 -21  -1    4.07    0.54
   3 -21   1    4.73    0.52
  -3 -21  -2    0.38    0.26
   3 -21   2    0.86    0.28
   3 -21   3    9.07    0.69
  -3 -21  -3    9.50    0.83
  -3 -21  -4    1.31    0.36
  -3 -21  -5    1.57    0.39
  -3 -21  -6    0.33    0.25
  -3 -21  -7    0.99    0.34
  -3 -21  -8    1.53    0.41
  -3 -21  -9    1.12    0.37
  -3 -21 -10    2.07    0.49
  -3 -21 -11    5.14    0.71
  -3 -21 -12    0.66    0.34
  -3 -21 -13    1.27    0.43
   3 -23 -12   -0.27    0.31
   3 -23 -11    1.52    0.46
   3 -23 -10    0.10    0.26
   3 -23  -9    0.03    0.22
   3 -23  -8    0.12    0.24
   3 -23  -7    2.75    0.53
  -3 -23   6    0.34    0.27
   3 -23  -6    0.34    0.27
  -3 -23   5    0.32    0.23
   3 -23  -5    0.24    0.26
   3 -23  -4    1.50    0.34
  -3 -23   4    1.36    0.34
   3 -23  -3    3.45    0.51
  -3 -23   3    3.57    0.54
   3 -23  -2    1.28    0.36
  -3 -23   2    1.19    0.38
   3 -23  -1    0.26    0.20
  -3 -23   1    0.17    0.20
  -3 -23   0    3.69    0.55
   3 -23   0    3.27    0.47
  -3 -23  -1    1.79    0.39
   3 -23   1    2.44    0.40
  -3 -23  -2    1.90    0.46
   3 -23   2    1.81    0.34
  -3 -23  -3    9.54    0.88
  -3 -23  -4    0.05    0.21
  -3 -23  -5    3.07    0.54
  -3 -23  -6    0.39    0.35
  -3 -23  -7    1.70    0.44
  -3 -23  -8    0.71    0.34
  -3 -23  -9    1.70    0.43
   3 -25  -8    2.14    0.48
   3 -25  -7    0.15    0.24
   3 -25  -6    0.91    0.35
   3 -25  -5    1.43    0.39
   3 -25  -4    5.96    0.69
  -3 -25   4    4.71    0.60
   3 -25  -3    0.91    0.34
  -3 -25   3    0.99    0.34
  -3 -25   2    0.53    0.29
   3 -25  -2    0.40    0.22
  -3 -25   1    1.38    0.34
   3 -25  -1    1.47    0.35
  -3 -25   0    2.22    0.44
   3 -25   0    1.04    0.34
  -3 -25  -1    0.01    0.26
  -3 -25  -2    0.41    0.29
  -3 -25  -3    0.08    0.22
  -3 -25  -4    3.83    0.60
  -3 -25  -5    0.68    0.36
   3 -27  -5    0.35    0.30
   3 -27  -4    0.21    0.27
  -3 -27   3    1.35    0.40
   3 -27  -3    1.14    0.38
   3 -27  -2    0.42    0.31
  -3 -27   2    0.30    0.30
  -3 -27   1   -0.16    0.28
  -3 -27   0    0.90    0.33
  -3 -27  -1    0.62    0.34
   4   0 -26    4.05    0.62
   4   0 -25    0.00    0.20
   4   0 -24    0.26    0.26
   4   0 -23   -0.06    0.18
   4   0 -22    1.53    0.38
   4   0 -21   -0.04    0.18
   4   0 -20    3.95    0.52
   4   0 -19   -0.07    0.18
   4   0 -18   10.05    0.76
   4   0 -17   -0.24    0.21
   4   0 -16    6.53    0.56
   4   0 -15   -0.28    0.22
   4   0 -14   14.33    0.81
   4   0 -13    0.04    0.14
  -4   0  13    0.02    0.03
   4   0 -12   28.69    1.09
  -4   0  12   25.27    0.63
  -4   0  11   -0.02    0.04
   4   0 -11    0.07    0.12
   4   0 -10    3.71    0.35
  -4   0  10    4.49    0.20
   4   0  -9   -0.07    0.11
  -4   0   9   -0.07    0.05
   4   0  -8   96.69    2.40
  -4   0   8  101.04    2.13
   4   0  -7   -0.02    0.10
  -4   0   7   -0.03    0.06
   4   0  -6   51.68    1.40
  -4   0   6   55.23    1.28
  -4   0   5    0.02    0.06
   4   0  -5    0.05    0.11
   4   0  -5    0.11    0.09
   4   0  -4   34.16    0.91
  -4   0   4   32.98    0.90
  -4   0   3    0.00    0.07
   4   0  -3   -0.05    0.10
  -4   0   2   99.01    2.24
  -4   0   1    0.06    0.09
  -4   0   0    5.32    0.30
  -4   0  -1    0.15    0.10
   4   0   1    0.14    0.09
  -4   0  -2   70.53    1.71
   4   0   2   73.35    1.72
   4   0   3    0.07    0.09
  -4   0  -3   -0.07    0.08
   4   0   4   18.43    0.62
  -4   0  -4   17.80    0.62
  -4   0  -5    0.10    0.09
   4   0   5   -0.03    0.10
   4   0   5    0.05    0.08
  -4   0  -6  155.62    3.42
   4   0   6  162.29    3.44
   4   0   6  157.00    3.62
  -4   0  -6  157.15    3.62
   4   0   7    0.18    0.14
  -4   0  -7    0.13    0.09
   4   0   7    0.00    0.07
  -4   0  -7    0.05    0.11
   4   0   8    9.31    0.44
  -4   0  -8    7.90    0.41
   4   0   8    8.89    0.52
   4   0   9    0.05    0.11
  -4   0  -9   -0.13    0.10
  -4   0  -9    0.16    0.15
  -4   0 -10   14.77    0.61
   4   0  10   14.15    0.72
  -4   0 -10   14.26    0.77
  -4   0 -11   -0.06    0.09
   4   0  11    0.00    0.13
  -4   0 -11   -0.06    0.15
  -4   0 -12    3.03    0.28
   4   0  12    2.75    0.33
  -4   0 -12    2.59    0.36
  -4   0 -13    0.16    0.12
   4   0  13    0.04    0.14
  -4   0 -13    0.35    0.23
  -4   0 -14   31.24    1.06
  -4   0 -14   30.28    1.36
   4   0  15    0.06    0.16
  -4   0 -15    0.09    0.11
  -4   0 -15   -0.13    0.19
   4   0  16    7.19    0.57
  -4   0 -16    7.39    0.47
  -4   0 -16    7.12    0.66
   4   0  17   -0.06    0.15
  -4   0 -17    0.01    0.21
   4   0  18   16.70    0.90
  -4   0 -18   16.22    1.08
   4   0  19    0.35    0.19
  -4   0 -19    0.67    0.32
  -4   0 -20   15.79    1.13
  -4   0 -21    0.14    0.22
  -4   0 -22    0.01    0.24
  -4   0 -23   -0.13    0.21
   4  -2 -26    1.90    0.45
   4  -2 -25    2.10    0.43
   4   2 -25    2.40    0.46
   4  -2 -24    0.75    0.30
   4   2 -24    0.70    0.32
   4   2 -23    0.94    0.32
   4  -2 -23    0.74    0.30
   4   2 -22   -0.18    0.20
   4  -2 -22    0.12    0.19
   4   2 -21    4.24    0.54
   4  -2 -21    3.76    0.52
   4   2 -20    0.09    0.16
   4  -2 -20   -0.06    0.19
   4  -2 -19    1.70    0.35
   4   2 -19    1.60    0.35
   4  -2 -18   10.27    0.77
   4   2 -18    9.60    0.76
   4  -2 -17    5.99    0.57
   4   2 -17    4.66    0.51
   4  -2 -16    2.34    0.36
   4   2 -16    2.22    0.35
   4  -2 -15   10.83    0.71
   4   2 -15   11.33    0.74
   4   2 -14    6.40    0.53
   4  -2 -14    6.35    0.51
   4   2 -13   16.42    0.85
   4  -2 -13   15.30    0.80
   4   2 -12    7.98    0.55
   4  -2 -12    7.66    0.52
   4   2 -11   17.70    0.82
   4  -2 -11   17.56    0.79
   4  -2 -10   50.40    1.49
   4   2 -10   49.50    1.52
   4  -2  -9    2.45    0.26
   4   2  -9    2.22    0.26
   4  -2  -8   95.71    2.34
   4   2  -8   94.02    2.40
  -4   2   8  102.34    2.35
   4   2  -8  100.48    2.36
   4  -2  -7   13.53    0.42
   4  -2  -7   13.98    0.57
   4   2  -7   13.31    0.60
   4   2  -7   14.33    0.60
   4  -2  -6    4.36    0.28
  -4  -2   6    4.84    0.27
   4  -2  -6    4.41    0.22
  -4   2   6    4.77    0.28
   4   2  -6    4.67    0.32
   4   2  -6    4.46    0.31
   4  -2  -5    2.55    0.21
   4  -2  -5    2.61    0.18
  -4  -2   5    2.68    0.21
   4  -2  -4  130.50    2.84
  -4  -2   4  133.20    2.91
  -4  -2   4  135.12    2.97
   4  -2  -4  133.46    2.84
  -4  -2   3    7.92    0.39
  -4  -2   3    8.31    0.41
  -4  -2   2   22.48    0.74
  -4  -2   2   22.91    0.76
  -4  -2   1  109.88    2.50
  -4  -2   1  108.75    2.50
  -4  -2   0    9.41    0.45
   4  -2   0    8.98    0.40
  -4  -2   0    8.99    0.44
  -4  -2  -1   27.47    0.89
   4  -2   1   27.86    0.80
  -4  -2  -1   26.72    0.86
  -4  -2  -2    4.42    0.30
   4   2   2    5.36    0.33
   4  -2   2    5.23    0.29
  -4  -2  -2    4.63    0.33
   4  -2   2    5.50    0.29
  -4  -2  -3   50.15    1.37
  -4   2  -3   48.88    1.24
  -4  -2  -3   52.10    1.43
   4  -2   3   51.96    1.33
   4   2   3   52.04    1.38
   4  -2   3   51.59    1.26
   4  -2   4    3.54    0.22
  -4  -2  -4    3.30    0.29
  -4  -2  -4    3.21    0.27
  -4   2  -4    3.49    0.22
   4  -2   4    3.93    0.28
   4   2   4    3.57    0.28
   4   2   5   39.88    1.15
  -4  -2  -5   38.35    1.14
  -4   2  -5   38.18    0.99
  -4   2  -5   38.50    1.15
   4  -2   5   38.68    1.00
   4  -2   5   39.30    1.16
   4   2   5   36.84    1.18
  -4  -2  -6    1.90    0.22
   4   2   6    1.89    0.22
   4   2   6    1.78    0.23
  -4   2  -6    2.02    0.23
  -4   2  -6    1.79    0.16
   4  -2   6    1.90    0.16
   4  -2   7    0.52    0.10
   4   2   7    0.41    0.12
  -4  -2  -7    0.96    0.17
  -4   2  -7    0.84    0.12
   4   2   7    0.24    0.12
  -4   2  -7    0.95    0.18
  -4  -2  -8    2.02    0.28
   4  -2   8    2.17    0.18
  -4  -2  -8    1.90    0.23
   4   2   8    1.51    0.22
  -4   2  -8    1.64    0.24
  -4   2  -8    1.96    0.17
  -4  -2  -9    2.27    0.26
   4   2   9    1.69    0.24
  -4  -2  -9    2.28    0.30
  -4   2  -9    2.49    0.29
  -4   2  -9    2.07    0.18
  -4   2 -10    5.69    0.30
  -4  -2 -10    5.69    0.49
  -4  -2 -10    6.18    0.42
  -4   2 -10    5.83    0.47
   4   2  10    5.57    0.42
  -4   2 -11    7.16    0.35
  -4  -2 -11    6.31    0.54
  -4  -2 -11    6.26    0.43
  -4   2 -11    5.99    0.50
   4   2  11    6.36    0.47
   4   2  12    0.20    0.15
  -4  -2 -12    0.27    0.15
  -4   2 -12    0.24    0.10
  -4   2 -12    0.16    0.15
  -4  -2 -12    0.34    0.19
  -4   2 -13    8.57    0.40
  -4   2 -13    8.50    0.65
  -4  -2 -13    8.46    0.52
  -4  -2 -13    9.60    0.70
   4   2  13    8.31    0.56
  -4  -2 -14    0.10    0.14
  -4   2 -14    0.11    0.09
   4   2  14   -0.29    0.18
  -4   2 -14   -0.35    0.21
  -4  -2 -14    0.08    0.18
  -4   2 -15    8.25    0.41
   4  -2  15    7.19    0.56
  -4   2 -15    7.55    0.65
  -4  -2 -15    8.52    0.71
  -4  -2 -15    8.41    0.54
   4   2  15    8.63    0.59
   4   2  16    2.95    0.37
  -4  -2 -16    3.15    0.36
  -4  -2 -16    3.22    0.46
  -4   2 -16    3.13    0.43
   4  -2  16    2.55    0.35
   4  -2  17    3.35    0.41
   4   2  17    3.72    0.41
  -4  -2 -17    4.26    0.53
  -4   2 -17    3.60    0.48
  -4  -2 -17    3.87    0.39
  -4   2 -18   -0.15    0.20
  -4  -2 -18    0.09    0.19
   4  -2  18    0.13    0.19
   4   2  18   -0.08    0.17
   4  -2  19    4.20    0.47
  -4  -2 -19    4.89    0.62
  -4   2 -19    3.97    0.57
  -4   2 -20    2.38    0.46
  -4  -2 -20    1.86    0.42
  -4  -2 -21    1.12    0.34
  -4   2 -21    1.10    0.34
  -4  -2 -22   -0.18    0.24
  -4   2 -22    0.06    0.19
  -4  -2 -23    0.93    0.37
  -4   2 -23    0.43    0.30
   4  -4 -26    0.56    0.27
   4  -4 -25    1.39    0.38
   4   4 -25    1.25    0.42
   4   4 -24    1.50    0.38
   4  -4 -24    1.39    0.35
   4   4 -23    1.51    0.38
   4  -4 -23    1.38    0.34
   4   4 -22    1.05    0.30
   4  -4 -22    1.11    0.32
   4   4 -21    2.55    0.47
   4  -4 -21    2.30    0.41
   4   4 -20    2.91    0.47
   4  -4 -20    2.75    0.45
   4  -4 -19    5.50    0.58
   4   4 -19    5.04    0.56
   4   4 -18    0.60    0.21
   4  -4 -18    0.56    0.24
   4   4 -17    1.73    0.32
   4  -4 -17    2.31    0.37
   4  -4 -16    0.71    0.22
   4   4 -16    0.87    0.28
   4   4 -15    8.29    0.64
   4  -4 -15    7.96    0.60
   4   4 -14    8.85    0.64
   4  -4 -14    9.13    0.62
   4  -4 -13    0.40    0.15
   4   4 -13    0.84    0.24
   4   4 -12   17.26    0.85
   4  -4 -12   16.82    0.79
   4   4 -11   31.43    1.19
   4  -4 -11   32.19    1.13
   4   4 -10    3.62    0.36
   4  -4 -10    3.05    0.29
   4   4  -9    5.80    0.42
   4  -4  -9    4.63    0.18
   4  -4  -9    5.66    0.37
  -4   4   8   18.97    0.68
   4   4  -8   16.41    0.73
   4   4  -8   17.67    0.70
   4  -4  -8   17.22    0.67
   4  -4  -7   51.82    1.37
  -4   4   7   52.74    1.36
   4   4  -7   50.87    1.48
   4   4  -7   54.29    1.46
   4  -4  -6   42.80    1.12
  -4   4   6   41.31    1.10
   4   4  -6   42.04    1.24
  -4  -4   6   41.18    1.21
   4   4  -6   43.73    1.24
   4  -4  -5    2.35    0.19
   4   4  -5    2.76    0.25
   4  -4  -4   19.78    0.57
  -4  -4   4   18.25    0.70
  -4  -4   3   46.94    1.29
  -4  -4   3   45.73    1.31
   4  -4  -3   47.55    1.09
  -4  -4   2    1.13    0.18
  -4  -4   2    1.14    0.17
  -4  -4   1  112.78    2.59
  -4  -4   1  108.76    2.59
  -4  -4   0    1.11    0.18
  -4  -4   0    1.17    0.19
   4  -4   1    8.42    0.33
  -4  -4  -1    9.42    0.48
  -4  -4  -1    8.78    0.46
  -4  -4  -2   69.10    1.83
  -4  -4  -2   71.63    1.84
   4  -4   2   73.15    1.65
   4  -4   2   70.33    1.65
  -4  -4  -3   87.94    2.23
   4  -4   3   91.44    2.07
   4  -4   3   90.54    2.00
   4   4   4   22.38    0.86
  -4  -4  -4   23.58    0.87
  -4   4  -4   24.64    0.78
   4  -4   4   23.24    0.76
   4  -4   4   23.37    0.67
  -4   4  -5    5.06    0.33
   4  -4   5    5.28    0.25
  -4  -4  -5    4.57    0.35
   4   4   5    5.86    0.40
   4  -4   5    6.06    0.36
   4   4   6   24.25    0.90
   4  -4   6   22.94    0.63
  -4  -4  -6   23.29    0.88
  -4   4  -6   23.73    0.85
   4  -4   7   12.21    0.39
   4   4   7   13.39    0.64
  -4  -4  -7   12.86    0.63
  -4   4  -7   13.13    0.62
   4   4   8    1.24    0.22
  -4  -4  -8    1.00    0.20
  -4   4  -8    1.59    0.23
  -4  -4  -9   19.48    0.83
  -4   4  -9   18.11    0.83
   4   4   9   19.61    0.83
  -4   4 -10    1.25    0.10
  -4  -4 -10    1.86    0.26
  -4   4 -10    1.28    0.22
   4   4  10    1.98    0.27
  -4  -4 -11    4.48    0.45
   4   4  11    4.04    0.38
  -4   4 -11    3.62    0.18
  -4  -4 -11    4.50    0.41
   4   4  12    6.28    0.47
  -4   4 -12    5.47    0.49
  -4  -4 -12    5.15    0.50
  -4  -4 -12    5.74    0.45
  -4   4 -13    0.93    0.10
  -4   4 -13    1.46    0.29
   4   4  13    1.03    0.22
  -4  -4 -13    1.29    0.27
   4   4  14   10.69    0.66
  -4   4 -14    9.95    0.72
  -4  -4 -14   10.74    0.78
  -4  -4 -14   11.73    0.69
  -4  -4 -15    2.91    0.36
  -4  -4 -15    2.59    0.43
  -4   4 -15    2.80    0.40
   4   4  15    2.32    0.32
   4   4  16    5.44    0.47
  -4  -4 -16    4.75    0.55
  -4  -4 -16    4.50    0.44
  -4   4 -16    4.30    0.51
   4   4  17    3.72    0.40
  -4  -4 -17    3.12    0.48
  -4   4 -17    3.05    0.46
  -4  -4 -17    2.62    0.37
   4   4  18    2.09    0.31
  -4  -4 -18    2.41    0.42
  -4  -4 -18    2.41    0.35
  -4   4 -18    2.11    0.41
  -4  -4 -19    0.16    0.25
   4  -4  19    0.65    0.23
  -4   4 -19    0.65    0.24
   4  -4  20    0.23    0.19
  -4  -4 -20    0.47    0.30
  -4   4 -20    0.44    0.24
  -4   4 -21    3.52    0.55
  -4  -4 -21    3.37    0.52
  -4   4 -22    0.44    0.28
  -4  -4 -22    0.32    0.25
  -4   4 -23    2.68    0.50
   4   6 -25    1.50    0.40
   4  -6 -25    1.32    0.37
   4   6 -24    0.54    0.29
   4  -6 -24    0.74    0.33
   4   6 -23    1.31    0.35
   4  -6 -23    0.59    0.27
   4  -6 -22    5.72    0.64
   4   6 -22    5.87    0.70
   4   6 -21    4.03    0.57
   4  -6 -21    3.86    0.52
   4   6 -20    1.99    0.40
   4  -6 -20    1.98    0.36
   4   6 -19    1.26    0.29
   4  -6 -19    1.28    0.27
   4  -6 -18    8.31    0.69
   4   6 -18    7.26    0.68
   4  -6 -17    9.00    0.68
   4   6 -17    8.54    0.71
   4   6 -16   12.43    0.83
   4  -6 -16   11.57    0.76
   4   6 -15    0.38    0.23
   4  -6 -15    0.17    0.13
   4   6 -14    6.91    0.57
   4  -6 -14    7.48    0.56
   4   6 -13    3.24    0.41
   4  -6 -13    2.81    0.33
   4   6 -12   17.63    0.89
   4  -6 -12   17.30    0.80
   4   6 -11    8.45    0.57
   4  -6 -11    8.49    0.52
   4   6 -10   24.34    1.00
   4  -6 -10   24.05    0.89
   4   6  -9   17.64    0.79
   4  -6  -9   16.43    0.68
  -4   6   8   26.51    0.85
   4   6  -8   25.66    0.98
  -4  -6   8   26.03    0.90
   4  -6  -8   25.68    0.85
  -4   6   7    6.36    0.34
   4   6  -7    6.15    0.43
  -4  -6   7    6.47    0.41
   4  -6  -7    5.96    0.33
  -4   6   6    3.61    0.22
  -4  -6   6    3.61    0.30
  -4   6   5    9.48    0.35
   4   6  -5    9.33    0.49
   4  -6  -5    9.49    0.36
  -4  -6   5    9.12    0.48
  -4  -6   4   23.05    0.84
   4  -6  -4   22.28    0.60
   4  -6  -3    4.03    0.17
  -4  -6   3    4.81    0.36
  -4  -6   2   28.73    0.99
  -4  -6   1    3.63    0.31
  -4  -6   0   26.30    0.93
   4  -6   0   24.99    0.60
  -4  -6  -1   13.27    0.64
   4  -6   1   14.25    0.42
  -4  -6  -2   28.57    1.03
   4  -6   2   29.55    0.77
  -4  -6  -3   50.73    1.51
  -4   6  -3   48.80    1.25
   4  -6   3   52.39    1.26
   4  -6   4    3.47    0.24
  -4   6  -4    3.46    0.25
  -4  -6  -4    4.25    0.36
   4  -6   4    3.53    0.21
  -4   6  -5   12.99    0.55
  -4  -6  -5   13.11    0.66
   4  -6   5   13.32    0.55
   4  -6   5   13.23    0.43
   4  -6   6   18.68    0.52
  -4  -6  -6   20.85    0.88
  -4   6  -6   20.47    0.75
   4  -6   7    3.77    0.15
  -4   6  -7    4.76    0.35
  -4  -6  -7    5.11    0.42
  -4   6  -8    0.36    0.14
  -4  -6  -8    0.27    0.15
  -4   6  -9   21.01    0.88
  -4  -6  -9   18.76    0.89
   4   6  10   34.45    1.20
  -4   6 -10   30.62    1.19
  -4  -6 -10   32.37    1.24
   4   6  11    8.82    0.57
  -4   6 -11    7.33    0.55
  -4  -6 -11    7.37    0.55
   4   6  12    3.93    0.40
  -4   6 -12    3.16    0.37
  -4  -6 -12    3.76    0.41
   4   6  13    9.58    0.61
  -4   6 -13    8.48    0.64
  -4  -6 -13    9.26    0.65
  -4  -6 -14    1.67    0.30
  -4   6 -14    1.50    0.31
  -4   6 -15   -0.11    0.16
  -4  -6 -15    0.14    0.16
  -4   6 -16    9.48    0.75
  -4  -6 -16   10.02    0.71
  -4   6 -17    0.38    0.21
  -4  -6 -17    0.18    0.23
  -4   6 -18    2.51    0.43
  -4  -6 -18    2.69    0.40
  -4   6 -19    1.65    0.36
  -4  -6 -19    0.98    0.25
  -4   6 -20    1.85    0.40
  -4   6 -21    0.08    0.22
  -4   6 -22    0.30    0.27
  -4   6 -23    0.20    0.26
   4  -8 -25    1.13    0.36
   4   8 -24    0.57    0.34
   4  -8 -24    0.30    0.21
   4   8 -23    2.02    0.46
   4  -8 -23    2.55    0.48
   4   8 -22    1.44    0.38
   4  -8 -22    1.86    0.40
   4   8 -21    2.56    0.46
   4  -8 -21    2.00    0.38
   4   8 -20    1.84    0.39
   4  -8 -20    2.04    0.38
   4   8 -19    3.67    0.51
   4  -8 -19    3.50    0.46
   4  -8 -18    4.10    0.49
   4   8 -18    5.14    0.58
   4   8 -17    1.67    0.34
   4  -8 -17    1.34    0.27
   4   8 -16    2.60    0.41
   4  -8 -16    1.97    0.30
   4   8 -15    6.19    0.58
   4  -8 -15    5.69    0.50
   4   8 -14    0.80    0.29
   4  -8 -14    0.60    0.18
   4   8 -13    3.97    0.46
   4  -8 -13    3.36    0.35
   4   8 -12   15.39    0.84
   4  -8 -12   17.67    0.80
   4   8 -11    4.39    0.41
   4  -8 -11    4.74    0.37
   4   8 -10    0.07    0.17
   4  -8 -10    0.35    0.12
  -4   8   9   27.44    0.90
   4   8  -9   24.47    1.02
  -4  -8   9   27.54    0.96
   4  -8  -9   25.84    0.90
  -4   8   8    2.83    0.24
   4  -8  -8    3.82    0.28
  -4  -8   8    3.18    0.31
   4   8  -8    3.56    0.36
  -4   8   7   41.53    1.08
   4  -8  -7   39.10    1.09
  -4  -8   7   41.23    1.26
  -4   8   6   24.90    0.71
   4  -8  -6   24.49    0.72
  -4  -8   6   23.55    0.90
  -4   8   5   17.66    0.52
   4  -8  -5   19.47    0.55
  -4  -8   5   17.33    0.76
   4  -8  -4    1.92    0.12
  -4  -8   4    1.69    0.23
  -4  -8   3   28.29    1.02
  -4  -8   2   11.70    0.62
  -4  -8   1   60.79    1.74
  -4  -8   0   13.00    0.67
   4  -8   1   12.06    0.33
  -4  -8  -1   10.75    0.62
   4  -8   2   21.93    0.59
  -4  -8  -2   22.43    0.93
  -4  -8  -3    1.47    0.26
  -4   8  -3    1.42    0.14
   4  -8   4    4.17    0.25
  -4  -8  -4    3.79    0.38
  -4   8  -4    3.65    0.24
   4  -8   5   15.37    0.57
  -4  -8  -5   13.58    0.73
  -4   8  -5   13.21    0.55
   4  -8   6    8.90    0.44
  -4   8  -6    7.53    0.42
   4  -8   6    7.29    0.28
  -4  -8  -6    7.90    0.56
  -4   8  -7   20.88    0.78
  -4  -8  -7   20.04    0.94
  -4   8  -8    0.78    0.17
  -4  -8  -8    0.88    0.23
  -4  -8  -9    0.92    0.25
  -4   8  -9    0.96    0.19
  -4   8 -10    7.67    0.53
  -4  -8 -10    7.33    0.58
  -4   8 -11    8.29    0.58
  -4  -8 -11    9.26    0.66
  -4   8 -12   13.13    0.77
  -4  -8 -12   12.87    0.80
  -4  -8 -13    1.02    0.28
  -4   8 -13    0.61    0.18
  -4   8 -14   19.17    1.02
  -4  -8 -14   19.80    1.04
  -4   8 -15    7.16    0.62
  -4  -8 -15    8.17    0.67
  -4   8 -16    7.26    0.65
  -4  -8 -16    7.69    0.67
  -4   8 -17    8.38    0.73
  -4  -8 -17    8.51    0.70
  -4   8 -18    0.44    0.19
  -4  -8 -18    0.35    0.22
  -4   8 -19    1.49    0.38
  -4  -8 -19    1.54    0.35
  -4   8 -20    0.39    0.24
  -4  -8 -20    0.19    0.19
  -4   8 -21    0.19    0.23
  -4   8 -22    0.71    0.32
  -4   8 -23    1.08    0.34
   4 -10 -25    0.30    0.19
   4  10 -24    3.95    0.62
   4 -10 -24    4.69    0.61
   4  10 -23    2.72    0.53
   4 -10 -23    3.01    0.51
   4  10 -22    1.74    0.41
   4 -10 -22    1.75    0.35
   4  10 -21    2.17    0.43
   4 -10 -21    2.29    0.40
   4 -10 -20    2.96    0.46
   4  10 -20    3.18    0.48
   4  10 -19    0.15    0.19
   4 -10 -19    0.28    0.16
   4  10 -18    2.04    0.40
   4 -10 -18    2.65    0.39
   4  10 -17    5.55    0.60
   4 -10 -17    5.51    0.53
   4  10 -16    1.47    0.31
   4 -10 -16    1.62    0.30
   4  10 -15    0.69    0.28
   4 -10 -15    0.99    0.23
   4  10 -14    7.20    0.62
   4 -10 -14    7.61    0.56
   4  10 -13    1.02    0.29
   4 -10 -13    0.53    0.16
   4  10 -12    1.55    0.28
   4 -10 -12    2.00    0.27
   4  10 -11    4.84    0.46
   4 -10 -11    5.49    0.41
   4  10 -10    2.79    0.35
   4 -10 -10    2.66    0.27
  -4 -10  10    2.82    0.30
  -4  10   9    9.26    0.46
   4 -10  -9    8.12    0.45
   4  10  -9    8.33    0.57
  -4 -10   9    9.49    0.53
  -4 -10   8    8.16    0.50
  -4  10   8    7.62    0.39
   4  10  -8    6.41    0.49
   4 -10  -8    7.00    0.38
  -4  10   7    0.78    0.13
  -4 -10   7    0.56    0.15
   4  10  -7    1.00    0.23
   4 -10  -7    0.78    0.12
  -4  10   6    8.92    0.36
   4 -10  -6   10.34    0.39
  -4 -10   6    9.56    0.56
  -4 -10   5    4.78    0.40
  -4  10   5    4.76    0.21
  -4 -10   4    1.19    0.22
  -4 -10   3   19.86    0.87
  -4 -10   2   33.92    1.21
  -4 -10   1   33.84    1.23
  -4 -10   0    4.66    0.41
  -4 -10  -1   11.13    0.66
  -4  10  -2    8.62    0.29
  -4 -10  -2    9.20    0.60
   4 -10   3    5.09    0.24
  -4  10  -3    4.52    0.24
  -4 -10  -3    4.82    0.44
   4 -10   4   10.77    0.42
  -4  10  -4    9.84    0.41
  -4 -10  -4    9.46    0.64
   4 -10   5    1.21    0.15
  -4 -10  -5    1.54    0.28
  -4  10  -5    1.06    0.14
   4 -10   6    4.85    0.33
  -4  10  -6    4.71    0.33
  -4 -10  -6    5.76    0.50
   4 -10   7    1.82    0.13
   4 -10   7    1.42    0.11
  -4  10  -7    1.35    0.20
  -4 -10  -7    1.94    0.32
  -4  10  -8    9.19    0.52
  -4 -10  -8    8.78    0.66
  -4  10  -9    6.86    0.48
  -4 -10  -9    7.48    0.61
  -4 -10 -10    0.70    0.25
  -4  10 -10    0.70    0.19
  -4  10 -11    5.51    0.47
  -4 -10 -11    4.53    0.51
  -4 -10 -12    3.27    0.42
  -4  10 -12    3.01    0.37
  -4 -10 -13    3.53    0.47
  -4  10 -13    3.30    0.39
  -4 -10 -14    1.03    0.29
  -4  10 -14    0.98    0.24
  -4 -10 -15    1.27    0.33
  -4  10 -15    1.22    0.27
  -4 -10 -16    0.37    0.25
  -4  10 -16    0.12    0.18
  -4 -10 -17    1.08    0.32
  -4  10 -17    1.54    0.35
  -4  10 -18    4.95    0.58
  -4 -10 -18    6.04    0.65
  -4  10 -19    1.28    0.31
  -4 -10 -19    1.04    0.34
  -4  10 -20    1.17    0.32
  -4 -10 -20    0.89    0.30
  -4  10 -21    1.31    0.38
  -4  10 -22    0.31    0.25
  -4  10 -23    1.16    0.37
   4 -12 -25    0.45    0.28
   4 -12 -24    1.02    0.31
   4  12 -23    1.71    0.40
   4 -12 -23    1.86    0.39
   4  12 -22    0.38    0.25
   4 -12 -22    0.61    0.26
   4  12 -21    0.22    0.22
   4 -12 -21    0.60    0.22
   4  12 -20    0.40    0.20
   4 -12 -20    0.21    0.20
   4  12 -19    0.16    0.21
   4 -12 -19   -0.12    0.19
   4  12 -18    0.34    0.21
   4 -12 -18    1.06    0.28
   4  12 -17    2.23    0.39
   4 -12 -17    3.68    0.45
   4  12 -16    8.36    0.72
   4 -12 -16    8.48    0.64
   4  12 -15    1.50    0.34
   4 -12 -15    1.12    0.23
   4  12 -14    2.92    0.42
   4 -12 -14    2.34    0.31
   4  12 -13    4.24    0.46
   4 -12 -13    4.97    0.43
   4  12 -12    1.42    0.29
   4 -12 -12    1.59    0.23
   4  12 -11    1.23    0.28
   4 -12 -11    1.19    0.20
  -4 -12  11    1.10    0.24
   4 -12 -10    4.24    0.34
   4  12 -10    3.79    0.41
  -4 -12  10    4.33    0.38
  -4  12   9    3.77    0.29
   4 -12  -9    3.97    0.31
  -4 -12   9    3.95    0.38
   4  12  -9    3.82    0.41
  -4  12   8   10.96    0.47
   4  12  -8   10.01    0.64
  -4 -12   8    9.95    0.60
  -4  12   7    2.47    0.21
  -4 -12   7    2.62    0.31
   4  12  -7    2.36    0.32
  -4 -12   6    0.92    0.21
  -4  12   6    0.96    0.12
  -4 -12   5    9.35    0.59
  -4  12   5    7.62    0.27
  -4 -12   4    7.32    0.53
  -4 -12   3   17.77    0.86
  -4 -12   2    2.73    0.33
  -4 -12   1   10.92    0.68
  -4 -12   0   11.13    0.69
  -4 -12  -1    3.38    0.40
  -4  12  -2   44.37    0.99
  -4 -12  -2   47.71    1.63
  -4  12  -3    7.66    0.31
  -4 -12  -3    8.27    0.62
  -4  12  -4    1.00    0.13
  -4 -12  -4    1.26    0.31
   4 -12   5   11.17    0.47
  -4  12  -5   11.32    0.48
  -4 -12  -5   11.13    0.74
   4 -12   6    1.31    0.19
   4 -12   6    1.15    0.15
  -4  12  -6    0.95    0.15
  -4 -12  -6    1.50    0.33
  -4 -12  -7    0.35    0.20
   4 -12   7    0.43    0.10
  -4  12  -7    0.48    0.13
  -4 -12  -8    3.21    0.43
   4 -12   8    2.04    0.13
  -4  12  -8    2.97    0.29
  -4 -12  -9    0.75    0.24
  -4  12  -9    0.82    0.18
  -4  12 -10   11.07    0.64
  -4 -12 -10   10.80    0.79
  -4 -12 -11    2.66    0.43
  -4  12 -11    3.70    0.38
  -4  12 -12    4.73    0.45
  -4 -12 -12    4.41    0.55
  -4 -12 -13    1.04    0.33
  -4  12 -13    0.81    0.22
  -4 -12 -14    1.05    0.35
  -4  12 -14    1.45    0.31
  -4  12 -15   17.48    1.01
  -4 -12 -15   20.40    1.19
  -4 -12 -16    2.48    0.45
  -4  12 -16    2.37    0.40
  -4 -12 -17    1.79    0.42
  -4  12 -17    0.89    0.26
  -4 -12 -18    2.57    0.46
  -4  12 -18    2.38    0.42
  -4  12 -19    0.16    0.19
  -4 -12 -19    1.08    0.34
  -4  12 -20    3.07    0.51
  -4 -12 -20    2.81    0.51
  -4  12 -21    0.77    0.29
  -4 -12 -21    0.50    0.30
  -4  12 -22    0.68    0.30
   4  14 -23    2.63    0.51
   4 -14 -22   -0.05    0.20
   4  14 -22   -0.27    0.28
   4  14 -21    0.49    0.25
   4 -14 -21    0.64    0.26
   4  14 -20    0.83    0.33
   4 -14 -20    0.35    0.21
   4  14 -19    0.07    0.22
   4 -14 -19    0.39    0.19
   4  14 -18    1.34    0.35
   4 -14 -18    1.36    0.29
   4  14 -17    4.40    0.57
   4 -14 -17    5.24    0.53
   4 -14 -16    1.28    0.26
   4  14 -16    1.50    0.32
   4  14 -15    2.31    0.38
   4 -14 -15    2.22    0.33
   4  14 -14    3.94    0.48
   4 -14 -14    3.56    0.39
   4  14 -13   12.04    0.82
   4  14 -12   12.71    0.81
  -4 -14  12   12.88    0.69
  -4 -14  11   11.28    0.65
   4  14 -11   11.36    0.76
   4  14 -10    2.71    0.37
  -4 -14  10    3.14    0.35
   4  14  -9   11.71    0.73
  -4 -14   9   11.81    0.69
   4  14  -8    3.29    0.41
  -4 -14   8    3.19    0.36
  -4  14   7    6.85    0.33
   4  14  -7    7.02    0.55
  -4 -14   7    8.26    0.58
  -4 -14   6    8.42    0.60
  -4  14   6    8.07    0.32
  -4 -14   5    5.31    0.48
  -4  14   5    4.88    0.19
  -4 -14   4    2.81    0.36
  -4 -14   3   34.30    1.35
  -4 -14   2    9.64    0.68
  -4 -14   1    2.96    0.39
  -4 -14   0    4.43    0.46
  -4 -14  -1    9.29    0.68
  -4 -14  -2    2.51    0.38
  -4  14  -3   18.76    0.55
  -4 -14  -3   21.31    1.08
   4 -14   4   14.07    0.67
  -4  14  -4   14.68    0.51
  -4 -14  -4   15.54    0.93
  -4  14  -5    3.28    0.24
   4 -14   5    4.18    0.33
  -4 -14  -5    4.35    0.52
   4 -14   6    1.83    0.21
  -4  14  -6    1.67    0.19
  -4 -14  -6    1.45    0.33
   4 -14   7   13.33    0.54
  -4  14  -7   14.52    0.64
  -4 -14  -7   15.66    0.96
  -4 -14  -8    3.00    0.45
  -4  14  -8    3.00    0.30
  -4 -14  -9    1.42    0.34
  -4  14  -9    1.63    0.23
  -4  14 -10    3.82    0.37
  -4 -14 -10    5.12    0.60
  -4 -14 -11    2.98    0.46
  -4  14 -11    3.21    0.35
  -4 -14 -12    2.06    0.42
  -4  14 -12    2.80    0.34
  -4 -14 -13    0.37    0.23
  -4  14 -13    0.20    0.15
  -4 -14 -14    2.14    0.43
  -4  14 -14    1.68    0.30
  -4 -14 -15    1.94    0.41
  -4  14 -15    2.13    0.35
  -4 -14 -16   -0.06    0.22
  -4  14 -16   -0.07    0.20
  -4 -14 -17    0.75    0.32
  -4  14 -17    1.12    0.30
  -4  14 -18    0.48    0.25
  -4 -14 -18    0.15    0.21
  -4  14 -19    4.24    0.55
  -4 -14 -19    3.57    0.59
  -4 -14 -20    0.53    0.30
  -4 -14 -21    1.45    0.39
   4  16 -22    0.26    0.24
   4  16 -21    0.13    0.21
   4  16 -20    3.45    0.54
   4  16 -19    1.52    0.37
   4  16 -18    3.34    0.52
   4  16 -17    0.10    0.21
   4  16 -16    7.47    0.71
   4  16 -15    1.37    0.34
   4  16 -14    2.17    0.39
   4  16 -13    0.54    0.21
   4  16 -12    0.99    0.25
  -4 -16  12    1.86    0.29
  -4 -16  11    0.80    0.21
   4  16 -11    0.81    0.22
   4  16 -10    2.83    0.38
  -4 -16  10    2.03    0.30
   4  16  -9    6.65    0.56
  -4 -16   9    6.24    0.51
   4  16  -8    4.17    0.45
  -4 -16   8    4.14    0.42
   4  16  -7    3.53    0.43
  -4 -16   7    3.38    0.41
  -4 -16   6    2.77    0.39
  -4 -16   5    1.41    0.28
  -4 -16   4    2.26    0.35
  -4 -16   3    2.92    0.40
  -4 -16   2   15.97    0.94
  -4 -16   1    0.66    0.26
  -4 -16   0    6.53    0.59
  -4 -16  -1   -0.05    0.22
   4 -16   2    2.64    0.34
  -4 -16  -2    1.74    0.37
   4 -16   3    4.89    0.43
  -4 -16  -3    4.26    0.51
  -4 -16  -4   15.01    0.96
   4 -16   4   15.13    0.74
   4 -16   5    1.47    0.23
  -4 -16  -5    2.02    0.41
   4 -16   6    8.64    0.50
  -4 -16  -6    9.50    0.78
  -4 -16  -7   -0.14    0.23
  -4 -16  -8    2.52    0.43
  -4 -16  -9    5.41    0.62
  -4 -16 -10    1.23    0.35
  -4 -16 -11    4.64    0.61
  -4 -16 -12    8.45    0.80
  -4 -16 -13    0.72    0.32
  -4 -16 -14    2.99    0.50
  -4 -16 -15   -0.14    0.25
  -4 -16 -16    0.39    0.27
  -4 -16 -17    1.35    0.41
  -4 -16 -18    2.71    0.52
  -4 -16 -19   -0.40    0.29
   4  18 -21    0.89    0.36
   4  18 -20    2.25    0.47
   4  18 -19   -0.01    0.20
   4  18 -18    0.60    0.25
   4  18 -17    1.73    0.37
   4  18 -16    1.07    0.29
   4  18 -15    0.06    0.19
   4  18 -14    1.92    0.41
   4  18 -13    2.73    0.42
   4  18 -12    0.91    0.24
   4  18 -11    5.10    0.53
  -4 -18  11    5.27    0.49
  -4 -18  10    2.42    0.35
   4  18 -10    2.20    0.35
   4  18  -9    4.79    0.50
  -4 -18   9    5.59    0.53
   4  18  -8    2.28    0.36
  -4 -18   8    1.62    0.31
  -4 -18   7    1.94    0.33
   4  18  -7    1.93    0.35
  -4 -18   6    4.49    0.48
   4  18  -6    5.77    0.53
  -4 -18   5    0.54    0.24
  -4 -18   4    0.95    0.27
  -4 -18   3    2.62    0.41
  -4 -18   2    3.45    0.45
   4 -18  -1    8.94    0.68
  -4 -18   1    7.89    0.70
   4 -18   0    9.80    0.72
  -4 -18   0    9.03    0.74
   4 -18   1    6.57    0.57
  -4 -18  -1    6.12    0.63
   4 -18   2    1.67    0.30
  -4 -18  -2    1.50    0.34
   4 -18   3    0.42    0.17
  -4 -18  -3    0.23    0.22
   4 -18   4    0.36    0.17
  -4 -18  -4    1.14    0.31
   4 -18   5    3.50    0.37
  -4 -18  -5    3.10    0.48
  -4 -18  -6    1.52    0.37
  -4 -18  -7    0.66    0.25
  -4 -18  -8    0.56    0.27
  -4 -18  -9    0.77    0.32
  -4 -18 -10    1.46    0.36
  -4 -18 -11    1.39    0.38
  -4 -18 -12    1.97    0.44
  -4 -18 -13    0.29    0.24
  -4 -18 -14    1.33    0.37
  -4 -18 -15    4.52    0.65
  -4 -18 -16    0.06    0.24
   4  20 -20    0.30    0.25
   4  20 -19    0.17    0.25
   4  20 -18    0.33    0.24
   4  20 -17    2.02    0.41
   4  20 -16    0.87    0.30
   4 -20 -16    0.53    0.31
   4  20 -15    0.32    0.26
   4  20 -14    0.43    0.24
   4  20 -13    3.56    0.49
   4  20 -12    0.44    0.20
   4  20 -11    2.11    0.36
   4  20 -10    5.19    0.56
   4  20  -9    7.30    0.64
  -4 -20   9    6.84    0.62
   4  20  -8    0.08    0.17
  -4 -20   8    0.32    0.16
   4  20  -7    2.51    0.38
  -4 -20   7    2.73    0.41
   4  20  -6    1.24    0.30
  -4 -20   6    1.29    0.31
   4  20  -5    1.21    0.29
  -4 -20   5    0.95    0.26
   4 -20  -5    0.98    0.28
   4 -20  -4    1.41    0.34
  -4 -20   4    1.64    0.35
   4 -20  -3   10.38    0.81
  -4 -20   3   12.07    0.87
   4 -20  -2    4.95    0.56
  -4 -20   2    3.85    0.51
  -4 -20   1    2.51    0.41
   4 -20  -1    2.35    0.38
   4 -20   0    1.99    0.34
  -4 -20   0    1.69    0.37
  -4 -20  -1    1.78    0.37
   4 -20   1    2.06    0.35
   4 -20   2    0.43    0.16
  -4 -20  -2    0.46    0.30
   4 -20   3    3.40    0.40
  -4 -20  -3    3.48    0.53
  -4 -20  -4    0.55    0.30
  -4 -20  -5    7.43    0.75
  -4 -20  -6    1.47    0.39
  -4 -20  -7    0.43    0.24
  -4 -20  -8    0.50    0.31
  -4 -20  -9    0.96    0.35
  -4 -20 -10    2.80    0.56
  -4 -20 -11    5.97    0.76
  -4 -20 -12    0.72    0.34
  -4 -20 -13    0.97    0.35
  -4 -20 -14    0.76    0.33
   4 -22 -13    1.70    0.46
   4 -22 -12    0.77    0.35
   4  22 -11    0.74    0.23
   4 -22 -11    1.37    0.41
   4  22 -10    2.17    0.36
   4 -22 -10    2.04    0.46
   4 -22  -9    0.23    0.30
   4  22  -9    0.08    0.18
   4 -22  -8    0.96    0.32
  -4 -22   8    0.75    0.24
   4  22  -8    0.85    0.29
   4  22  -7    1.08    0.28
  -4 -22   7    0.86    0.28
   4 -22  -7    0.54    0.25
   4  22  -6    3.64    0.44
  -4 -22   6    3.42    0.49
   4 -22  -6    3.38    0.51
   4 -22  -5    1.44    0.41
   4  22  -5    2.18    0.37
  -4 -22   5    1.60    0.36
   4 -22  -4    3.05    0.50
  -4 -22   4    3.76    0.50
   4 -22  -3    0.46    0.28
  -4 -22   3    0.44    0.25
  -4 -22   2    5.09    0.63
   4 -22  -2    5.45    0.60
  -4 -22   1    0.50    0.25
   4 -22  -1    0.37    0.23
  -4 -22   0    2.01    0.42
   4 -22   0    2.14    0.37
   4 -22   1    4.00    0.50
  -4 -22  -1    4.44    0.61
  -4 -22  -2    3.06    0.51
   4 -22   2    2.77    0.40
  -4 -22  -3    0.14    0.26
  -4 -22  -4    2.83    0.53
  -4 -22  -5    1.96    0.41
  -4 -22  -6    0.76    0.34
  -4 -22  -7   -0.40    0.28
  -4 -22  -8    3.22    0.56
  -4 -22  -9    0.43    0.36
  -4 -22 -10    0.95    0.35
   4 -24 -10    1.51    0.42
   4 -24  -9    2.03    0.51
   4 -24  -8    0.20    0.25
   4 -24  -7    2.98    0.53
  -4 -24   6    1.29    0.34
   4 -24  -6    0.80    0.36
   4 -24  -5    0.84    0.30
  -4 -24   5    0.91    0.29
   4 -24  -4    0.02    0.19
  -4 -24   4   -0.07    0.19
   4 -24  -3    1.06    0.32
  -4 -24   3    1.33    0.37
   4 -24  -2    1.38    0.35
  -4 -24   2    1.53    0.40
  -4 -24   1    0.16    0.26
   4 -24  -1    1.31    0.35
  -4 -24   0    1.98    0.43
   4 -24   0    1.93    0.38
  -4 -24  -1    0.87    0.34
  -4 -24  -2    0.64    0.34
  -4 -24  -3    0.83    0.38
  -4 -24  -4    4.36    0.64
  -4 -24  -5    2.01    0.50
  -4 -24  -6    0.88    0.36
   4 -26  -7   -0.13    0.24
   4 -26  -6    0.38    0.24
   4 -26  -5    0.60    0.31
   4 -26  -4    0.95    0.36
  -4 -26   4    0.02    0.23
  -4 -26   3    1.27    0.35
   4 -26  -3    1.68    0.44
   4 -26  -2   -0.22    0.24
  -4 -26   2    0.17    0.24
  -4 -26   1    2.16    0.46
  -4 -26   0    0.31    0.24
  -4 -26  -1    0.57    0.30
  -4 -26  -2    0.92    0.38
   5  -1 -26    0.19    0.27
   5  -1 -25    3.55    0.56
   5   1 -25    3.79    0.60
   5  -1 -24    1.25    0.35
   5   1 -24    0.99    0.35
   5   1 -23   -0.21    0.26
   5  -1 -23    0.10    0.22
   5  -1 -22    0.17    0.24
   5   1 -22   -0.05    0.19
   5  -1 -21    2.45    0.44
   5   1 -21    2.42    0.44
   5  -1 -20    1.13    0.33
   5   1 -20    1.19    0.30
   5  -1 -19    1.83    0.36
   5   1 -19    1.70    0.33
   5   1 -18    4.11    0.48
   5  -1 -18    4.34    0.51
   5   1 -17   10.78    0.77
   5  -1 -17    9.57    0.72
   5  -1 -16    1.93    0.33
   5   1 -16    1.13    0.28
   5   1 -15   11.83    0.75
  -5  -1  15   10.83    0.38
   5  -1 -15   11.57    0.74
   5   1 -14   14.47    0.82
  -5  -1  14   15.06    0.48
   5  -1 -14   15.07    0.83
   5  -1 -13   17.29    0.85
   5   1 -13   16.70    0.85
  -5  -1  13   16.50    0.53
   5  -1 -12    4.79    0.43
   5   1 -12    4.17    0.41
  -5  -1  12    4.31    0.24
   5  -1 -11   23.50    0.96
   5   1 -11   23.67    0.99
  -5  -1  11   26.47    0.74
   5  -1 -10    4.28    0.37
   5   1 -10    4.40    0.37
  -5  -1  10    4.42    0.26
   5  -1  -9   24.70    0.93
   5   1  -9   26.46    0.97
  -5  -1   9   27.29    0.79
   5  -1  -8    4.65    0.34
   5   1  -8    4.79    0.36
  -5  -1   8    5.37    0.30
   5  -1  -7   47.08    1.20
   5   1  -7   48.50    1.38
   5  -1  -7   47.83    1.34
  -5  -1   7   50.50    1.27
   5  -1  -6   13.35    0.50
  -5  -1   6   12.73    0.51
   5  -1  -6   13.83    0.56
   5   1  -6   13.66    0.59
   5   1  -5   10.60    0.46
   5  -1  -5   10.18    0.43
  -5  -1   5    9.15    0.43
   5   1  -4    4.04    0.28
  -5  -1   4    3.20    0.25
   5  -1  -4    4.10    0.27
   5  -1  -3    6.03    0.34
   5   1  -3    5.79    0.35
  -5  -1   3    5.38    0.33
  -5  -1   2   11.64    0.53
  -5  -1   2   11.40    0.51
   5  -1  -2   10.01    0.48
  -5  -1   1   13.46    0.58
  -5  -1   1   13.42    0.58
  -5  -1   0    0.44    0.13
   5  -1   0    0.70    0.14
  -5  -1   0    0.49    0.14
   5   1   1   41.58    1.18
  -5   1  -1   37.84    1.11
  -5  -1  -1   38.02    1.14
   5  -1   1   41.91    1.15
   5   1   2    7.57    0.42
  -5   1  -2    6.53    0.37
  -5  -1  -2    6.49    0.39
   5  -1   2    7.15    0.38
   5  -1   3   75.92    1.83
   5   1   3   74.68    1.89
   5  -1   3   76.26    1.89
  -5   1  -3   72.64    1.81
  -5  -1  -3   75.98    1.89
   5  -1   4   19.91    0.70
   5   1   4   20.13    0.74
  -5   1  -4   19.48    0.68
  -5  -1  -4   20.43    0.75
  -5  -1  -5   29.96    0.98
   5  -1   5   31.37    0.93
   5   1   5   31.09    1.09
  -5   1  -5   29.18    0.91
   5   1   5   31.51    1.00
  -5  -1  -6    8.25    0.45
   5   1   6    8.75    0.46
   5   1   6    7.88    0.51
   5  -1   6    8.06    0.41
  -5   1  -6    7.95    0.40
  -5  -1  -7   22.63    0.82
   5  -1   7   21.69    0.75
   5   1   7   21.83    0.92
  -5   1  -7   22.32    0.75
   5   1   8    1.22    0.23
  -5   1  -8    1.14    0.16
   5  -1   8    0.73    0.18
   5  -1   8    1.13    0.16
  -5   1  -8    1.08    0.22
  -5  -1  -8    0.85    0.16
   5  -1   9    0.69    0.17
   5   1   9    0.83    0.21
  -5   1  -9    0.89    0.23
  -5   1  -9    0.90    0.15
  -5  -1  -9    1.10    0.19
   5  -1   9    0.85    0.14
  -5   1 -10    2.93    0.25
   5   1  10    2.88    0.34
  -5  -1 -10    3.22    0.31
   5  -1  10    2.72    0.33
  -5  -1 -10    3.39    0.39
  -5   1 -10    3.31    0.38
  -5   1 -11    5.75    0.37
   5   1  11    7.01    0.53
  -5  -1 -11    5.59    0.41
   5  -1  11    6.37    0.52
  -5  -1 -11    6.60    0.55
  -5   1 -11    5.58    0.51
  -5   1 -12    3.51    0.30
   5   1  12    4.29    0.43
  -5  -1 -12    4.05    0.35
  -5   1 -12    4.37    0.47
  -5  -1 -12    4.44    0.48
   5  -1  12    3.74    0.42
  -5   1 -13    4.35    0.33
   5  -1  13    5.10    0.50
   5   1  13    5.30    0.49
  -5  -1 -13    4.82    0.39
  -5  -1 -13    4.60    0.51
  -5   1 -13    4.45    0.50
  -5   1 -14   20.55    0.78
  -5  -1 -14   20.67    0.87
   5   1  14   20.90    1.01
  -5  -1 -14   19.46    1.09
  -5   1 -14   19.55    1.08
   5  -1  14   20.33    1.01
  -5  -1 -15   14.77    0.71
   5   1  15   12.56    0.79
   5  -1  15   12.74    0.81
  -5  -1 -15   13.91    0.93
  -5   1 -15   14.13    0.93
  -5  -1 -16    5.92    0.46
   5  -1  16    3.89    0.46
   5   1  16    4.30    0.47
  -5   1 -16    5.22    0.58
  -5  -1 -16    6.66    0.66
   5  -1  17    8.85    0.68
   5   1  17    7.92    0.63
  -5  -1 -17    9.95    0.82
  -5   1 -17    8.92    0.78
  -5  -1 -18    1.72    0.40
   5  -1  18    2.08    0.35
   5   1  18    1.74    0.33
  -5   1 -18    1.32    0.33
   5  -1  19    0.61    0.24
  -5  -1 -19    0.95    0.33
  -5   1 -19    0.91    0.27
   5   1  19    0.45    0.21
  -5  -1 -20    0.37    0.21
  -5   1 -20    0.54    0.31
  -5  -1 -21    1.83    0.43
  -5   1 -21    1.61    0.39
  -5  -1 -22    0.77    0.34
  -5   1 -22    0.69    0.33
   5  -3 -26    1.18    0.36
   5   3 -25    0.00    0.23
   5  -3 -25    0.09    0.22
   5   3 -24    3.59    0.57
   5  -3 -24    3.49    0.54
   5   3 -23   -0.18    0.23
   5  -3 -23   -0.08    0.19
   5   3 -22    1.86    0.41
   5  -3 -22    2.05    0.40
   5   3 -21    1.11    0.34
   5  -3 -21    1.77    0.37
   5  -3 -20    3.27    0.47
   5   3 -20    2.41    0.43
   5  -3 -19    0.48    0.24
   5   3 -19    0.10    0.16
   5  -3 -18   23.65    1.19
   5   3 -18   21.60    1.17
   5   3 -17    4.40    0.50
   5  -3 -17    4.37    0.50
   5  -3 -16    1.76    0.32
   5   3 -16    1.52    0.31
   5  -3 -15    0.68    0.20
   5   3 -15    0.74    0.21
   5   3 -14   11.91    0.75
   5  -3 -14   11.65    0.70
   5  -3 -13    0.13    0.13
   5   3 -13    1.03    0.28
   5  -3 -12    2.45    0.30
   5   3 -12    2.46    0.33
   5  -3 -11   13.88    0.69
   5   3 -11   14.90    0.75
   5  -3 -10    7.72    0.48
   5   3 -10    8.30    0.53
   5  -3  -9   16.05    0.67
   5  -3  -9   14.76    0.45
   5   3  -9   14.21    0.70
  -5  -3   9   14.33    0.58
   5  -3  -8   15.22    0.64
   5   3  -8   15.05    0.70
   5  -3  -8   16.14    0.51
  -5   3   8   16.91    0.65
  -5  -3   8   15.53    0.61
   5  -3  -7    0.77    0.13
   5   3  -7    1.01    0.20
  -5  -3   7    0.85    0.14
   5  -3  -7    0.83    0.11
   5  -3  -6   17.97    0.63
  -5  -3   6   16.82    0.65
   5  -3  -6   17.01    0.59
   5  -3  -5   44.87    1.18
  -5  -3   5   45.29    1.27
  -5  -3   5   46.67    1.33
  -5  -3   4   64.09    1.67
  -5  -3   4   64.23    1.71
  -5  -3   3   20.68    0.76
  -5  -3   3   20.42    0.78
  -5  -3   2   24.78    0.86
  -5  -3   2   24.17    0.86
  -5  -3   1    7.05    0.43
   5  -3   0   76.82    1.85
  -5  -3   0   74.51    1.95
   5  -3   1    3.19    0.25
  -5  -3  -1    3.00    0.28
   5  -3   2    1.41    0.16
  -5  -3  -2    2.09    0.24
   5  -3   2    1.76    0.17
  -5  -3  -3    4.73    0.36
   5  -3   3    4.55    0.30
   5  -3   3    5.29    0.31
   5  -3   4   12.67    0.50
  -5  -3  -4   11.13    0.58
   5  -3   4   12.78    0.56
  -5  -3  -5   19.78    0.80
   5  -3   5   20.10    0.66
   5   3   5   20.50    0.86
  -5  -3  -6   25.36    0.93
  -5   3  -6   24.52    0.91
   5  -3   6   23.49    0.73
  -5   3  -6   23.90    0.73
   5   3   6   23.93    0.96
  -5  -3  -7    2.45    0.28
  -5   3  -7    2.03    0.25
   5   3   7    2.11    0.27
  -5   3  -7    1.62    0.17
   5  -3   7    2.25    0.19
   5   3   8    2.49    0.31
   5  -3   8    2.84    0.21
  -5   3  -8    2.98    0.32
  -5   3  -8    3.31    0.23
  -5  -3  -8    3.05    0.31
   5   3   9    1.47    0.26
   5  -3   9    2.11    0.18
  -5  -3  -9    1.51    0.24
  -5   3  -9    1.69    0.17
  -5   3  -9    2.02    0.29
   5   3  10    7.49    0.53
  -5  -3 -10    6.98    0.48
  -5   3 -10    6.72    0.53
  -5   3 -10    6.85    0.33
  -5   3 -11    1.22    0.14
  -5  -3 -11    1.42    0.24
   5   3  11    0.84    0.22
  -5   3 -11    1.28    0.26
  -5  -3 -12    1.81    0.28
   5   3  12    1.44    0.28
  -5   3 -12    1.73    0.30
  -5   3 -12    2.12    0.19
   5   3  13    5.82    0.51
  -5   3 -13    5.74    0.54
  -5  -3 -13    5.96    0.48
  -5   3 -13    5.50    0.30
  -5   3 -14    6.65    0.60
   5   3  14    7.56    0.58
  -5  -3 -14    6.86    0.52
  -5  -3 -14    6.34    0.63
  -5  -3 -15    0.11    0.16
  -5  -3 -15    0.29    0.22
   5   3  15   -0.09    0.16
  -5   3 -15   -0.21    0.21
   5   3  16    5.75    0.52
  -5  -3 -16    4.58    0.44
   5  -3  16    3.91    0.46
  -5  -3 -16    4.55    0.56
  -5   3 -16    5.61    0.59
  -5  -3 -17   -0.02    0.15
   5  -3  17   -0.03    0.16
  -5  -3 -17   -0.14    0.23
   5   3  17   -0.12    0.16
  -5   3 -17   -0.26    0.19
  -5   3 -18    1.33    0.35
  -5  -3 -18    1.53    0.37
   5   3  18    2.03    0.35
   5  -3  18    1.86    0.36
  -5  -3 -19    0.75    0.31
   5  -3  19    0.87    0.24
   5  -3  20    0.66    0.23
  -5  -3 -20    0.65    0.31
  -5   3 -20    0.37    0.19
  -5   3 -21    0.32    0.25
  -5  -3 -21    0.29    0.30
  -5   3 -22    0.91    0.36
   5  -5 -26   -0.16    0.27
   5   5 -25    0.74    0.30
   5  -5 -25    0.37    0.25
   5   5 -24    1.19    0.39
   5  -5 -24    0.91    0.31
   5   5 -23    0.35    0.24
   5  -5 -23    0.50    0.26
   5   5 -22    0.80    0.26
   5  -5 -22    1.34    0.37
   5   5 -21    3.67    0.52
   5  -5 -21    4.71    0.57
   5   5 -20    1.11    0.34
   5  -5 -20    0.39    0.19
   5  -5 -19    8.57    0.72
   5   5 -19    8.44    0.75
   5   5 -18    3.80    0.49
   5  -5 -18    4.62    0.52
   5   5 -17   23.90    1.22
   5  -5 -17   22.90    1.15
   5   5 -16    3.40    0.45
   5  -5 -16    3.70    0.43
   5  -5 -15    0.26    0.17
   5   5 -15    0.09    0.20
   5   5 -14   14.93    0.85
   5  -5 -14   13.75    0.77
   5   5 -13    5.43    0.52
   5  -5 -13    6.24    0.49
   5  -5 -12    2.19    0.28
   5   5 -12    2.22    0.30
   5   5 -11   35.67    1.33
   5  -5 -11   40.03    1.28
   5   5 -10   19.30    0.88
   5  -5 -10   19.60    0.55
   5  -5 -10   20.15    0.80
   5   5  -9    9.48    0.58
   5  -5  -9    9.82    0.50
   5  -5  -8    1.29    0.18
   5   5  -8    1.01    0.22
  -5   5   8    1.44    0.18
   5  -5  -7   52.07    1.37
   5   5  -7   50.86    1.54
  -5  -5   7   55.05    1.53
   5  -5  -6    2.61    0.21
  -5  -5   6    2.65    0.27
   5  -5  -5   50.78    1.25
  -5  -5   5   52.76    1.51
   5  -5  -4   10.16    0.38
  -5  -5   4   11.21    0.57
   5  -5  -3   20.43    0.57
  -5  -5   3   17.64    0.76
  -5  -5   2    5.39    0.39
  -5  -5   1   19.91    0.81
  -5  -5   0   85.90    2.27
   5  -5   0   90.86    1.96
  -5  -5  -1    4.55    0.37
   5  -5   1    5.45    0.27
   5  -5   2    2.79    0.21
   5  -5   2    2.98    0.23
  -5  -5  -2    2.59    0.29
  -5  -5  -3   52.12    1.56
   5  -5   3   53.23    1.35
   5  -5   3   50.76    1.32
  -5  -5  -4   18.20    0.81
   5   5   4   19.30    0.83
   5  -5   4   18.93    0.68
   5  -5   4   18.78    0.62
  -5  -5  -5    4.67    0.39
   5   5   5    5.28    0.42
  -5   5  -5    4.24    0.32
   5  -5   5    5.41    0.28
   5   5   6    9.13    0.57
   5  -5   6    9.33    0.38
  -5  -5  -6   10.30    0.59
  -5   5  -6    9.06    0.50
   5  -5   7   18.81    0.58
  -5  -5  -7   20.04    0.88
   5   5   7   20.09    0.87
  -5   5  -7   19.40    0.81
   5  -5   8    1.97    0.15
  -5  -5  -8    2.52    0.31
   5   5   8    2.21    0.31
  -5   5  -8    2.33    0.28
   5   5   9    9.19    0.60
  -5  -5  -9    9.15    0.59
  -5   5  -9    8.54    0.56
   5   5  10    4.89    0.45
  -5   5 -10    3.89    0.40
  -5  -5 -10    4.15    0.41
   5   5  11   12.02    0.71
  -5   5 -11   12.14    0.73
  -5  -5 -11   12.11    0.71
   5   5  12    4.15    0.44
  -5  -5 -12    4.13    0.42
  -5   5 -12    3.75    0.42
   5   5  13    4.93    0.47
  -5  -5 -13    4.77    0.46
  -5   5 -13    4.24    0.47
  -5  -5 -14    1.14    0.26
   5   5  14    2.16    0.34
  -5   5 -14    1.70    0.32
  -5  -5 -15    1.76    0.30
   5   5  15    2.06    0.32
  -5   5 -15    1.35    0.28
  -5  -5 -16    0.28    0.18
  -5   5 -16   -0.05    0.17
  -5  -5 -17    3.64    0.44
  -5   5 -17    2.92    0.46
  -5   5 -18    0.79    0.26
  -5  -5 -18    0.80    0.24
  -5   5 -19    1.87    0.40
   5  -5  19    2.45    0.41
   5  -5  20    0.52    0.23
  -5   5 -20    0.32    0.23
  -5   5 -21    3.19    0.53
  -5   5 -22    0.47    0.31
   5  -7 -26    0.95    0.34
   5  -7 -25    1.94    0.39
   5   7 -24    0.52    0.33
   5  -7 -24    0.34    0.21
   5   7 -23    0.21    0.19
   5  -7 -23    0.17    0.18
   5   7 -22    0.65    0.25
   5  -7 -22    0.43    0.25
   5  -7 -21   10.97    0.85
   5   7 -21   10.74    0.91
   5   7 -20    1.39    0.36
   5  -7 -20    2.13    0.39
   5   7 -19    2.09    0.41
   5  -7 -19    1.49    0.33
   5   7 -18    1.24    0.32
   5  -7 -18    1.16    0.25
   5   7 -17    5.60    0.59
   5  -7 -17    5.51    0.54
   5   7 -16    4.27    0.50
   5  -7 -16    5.17    0.49
   5   7 -15    5.05    0.53
   5  -7 -15    4.33    0.44
   5   7 -14   10.74    0.74
   5  -7 -14    9.80    0.63
   5   7 -13    0.98    0.23
   5  -7 -13    1.77    0.27
   5  -7 -12    3.98    0.17
   5   7 -12    3.26    0.39
   5   7 -11   11.93    0.71
   5  -7 -11   11.95    0.61
   5   7 -10    3.15    0.38
   5  -7 -10    3.41    0.30
   5  -7  -9    1.13    0.17
  -5   7   9    1.62    0.20
   5   7  -9    1.40    0.27
  -5   7   8    2.79    0.24
   5   7  -8    3.69    0.37
  -5  -7   8    2.73    0.30
   5  -7  -8    3.58    0.26
  -5   7   7    8.35    0.38
  -5  -7   7    7.92    0.49
   5  -7  -7    7.34    0.37
  -5  -7   6   12.61    0.62
   5  -7  -6   10.44    0.42
  -5  -7   5    6.14    0.43
   5  -7  -5    5.92    0.27
   5  -7  -4   26.76    0.68
  -5  -7   4   26.24    1.00
   5  -7  -3    0.73    0.07
  -5  -7   3    1.52    0.23
  -5  -7   2   30.11    1.07
   5  -7  -2   27.03    0.63
  -5  -7   1   19.04    0.81
   5  -7  -1   15.85    0.42
  -5  -7   0   29.35    1.11
   5  -7   0   31.24    0.74
  -5  -7  -1   15.74    0.76
   5  -7   1   17.04    0.50
   5  -7   2    6.31    0.29
  -5  -7  -2    6.31    0.47
  -5  -7  -3    6.20    0.48
   5  -7   3    7.09    0.34
  -5  -7  -4   22.18    0.96
   5  -7   4   22.19    0.70
   5  -7   4   22.73    0.74
  -5  -7  -5    7.85    0.56
   5  -7   5    8.52    0.36
   5  -7   5    8.55    0.43
  -5   7  -5    8.48    0.44
  -5   7  -6    2.37    0.24
  -5  -7  -6    2.80    0.34
   5  -7   6    2.21    0.17
  -5  -7  -7   15.37    0.81
   5  -7   7   15.62    0.48
  -5   7  -7   16.33    0.71
  -5   7  -8   16.56    0.73
  -5  -7  -8   17.36    0.85
  -5  -7  -9    8.78    0.62
  -5   7  -9    9.16    0.57
  -5  -7 -10    1.51    0.30
  -5   7 -10    1.66    0.27
  -5  -7 -11    1.46    0.29
  -5   7 -11    1.95    0.28
  -5   7 -12    3.20    0.40
  -5  -7 -12    3.49    0.43
  -5   7 -13   11.94    0.78
  -5  -7 -13   12.22    0.79
  -5   7 -14    4.91    0.52
  -5  -7 -14    6.03    0.57
  -5  -7 -15    1.04    0.30
  -5   7 -15    1.18    0.28
  -5   7 -16    5.30    0.57
  -5  -7 -16    6.41    0.61
  -5  -7 -17    2.68    0.42
  -5   7 -17    2.00    0.36
  -5  -7 -18    2.39    0.40
  -5   7 -18    2.08    0.40
  -5  -7 -19    0.14    0.19
  -5   7 -19    0.01    0.19
  -5   7 -20    0.57    0.29
  -5   7 -21    0.61    0.26
  -5   7 -22    0.29    0.26
   5  -9 -25    0.90    0.31
   5   9 -24   -0.08    0.23
   5  -9 -24    0.19    0.18
   5   9 -23    0.82    0.31
   5  -9 -23    1.00    0.28
   5   9 -22    2.63    0.47
   5  -9 -22    2.16    0.41
   5   9 -21    4.50    0.61
   5  -9 -21    5.25    0.60
   5   9 -20    0.34    0.22
   5  -9 -20    0.23    0.18
   5   9 -19    0.71    0.31
   5  -9 -19    0.41    0.21
   5   9 -18    1.25    0.32
   5  -9 -18    1.78    0.31
   5   9 -17    1.25    0.32
   5  -9 -17    0.71    0.21
   5   9 -16    2.81    0.43
   5  -9 -16    3.20    0.40
   5   9 -15    4.57    0.52
   5  -9 -15    4.23    0.42
   5   9 -14   21.24    1.08
   5  -9 -14   20.12    0.94
   5   9 -13    3.47    0.43
   5  -9 -13    4.00    0.39
   5   9 -12    3.25    0.40
   5  -9 -12    3.31    0.33
   5   9 -11   -0.26    0.19
   5  -9 -11    0.00    0.10
   5   9 -10    4.26    0.43
  -5  -9  10    4.25    0.38
   5  -9 -10    3.54    0.31
   5   9  -9   18.60    0.89
  -5   9   9   19.80    0.72
  -5  -9   9   20.39    0.86
   5  -9  -9   18.44    0.72
  -5  -9   8    7.43    0.50
  -5   9   8    8.27    0.40
   5  -9  -8    8.52    0.41
   5   9  -8    8.13    0.56
  -5  -9   7    0.15    0.14
  -5   9   7    0.29    0.11
   5  -9  -7    0.25    0.08
   5  -9  -6    7.54    0.32
  -5  -9   6    8.12    0.53
   5  -9  -5   18.28    0.51
  -5  -9   5   18.56    0.84
  -5  -9   4    4.97    0.42
  -5  -9   3    1.01    0.22
  -5  -9   2    4.52    0.41
  -5  -9   1   34.20    1.26
  -5  -9   0   36.72    1.32
   5  -9   1    3.99    0.16
  -5  -9  -1    5.24    0.45
   5  -9   2   53.09    1.21
  -5  -9  -2   51.86    1.70
   5  -9   3    2.85    0.20
  -5  -9  -3    3.00    0.36
  -5  -9  -4    0.47    0.21
  -5   9  -4    0.25    0.09
  -5  -9  -5    2.32    0.34
  -5   9  -5    2.80    0.24
  -5   9  -6    5.17    0.35
   5  -9   6    4.79    0.26
  -5   9  -7    2.69    0.28
   5  -9   7    2.71    0.17
  -5  -9  -8    2.88    0.39
  -5   9  -8    2.21    0.27
  -5   9  -9    9.33    0.57
  -5  -9  -9    9.54    0.70
  -5   9 -10    5.58    0.46
  -5  -9 -10    5.98    0.57
  -5   9 -11   10.48    0.66
  -5  -9 -11   10.19    0.75
  -5   9 -12    6.26    0.53
  -5  -9 -12    5.85    0.58
  -5   9 -13    3.34    0.41
  -5  -9 -13    3.09    0.42
  -5   9 -14    4.48    0.49
  -5  -9 -14    4.73    0.54
  -5  -9 -15    1.79    0.37
  -5   9 -15    1.94    0.35
  -5  -9 -16    4.61    0.54
  -5   9 -16    4.96    0.55
  -5  -9 -17    0.33    0.26
  -5   9 -17    0.62    0.25
  -5  -9 -18    1.58    0.38
  -5   9 -18    1.27    0.33
  -5  -9 -19    1.25    0.34
  -5   9 -19    0.52    0.23
  -5   9 -20    1.80    0.40
  -5   9 -21    1.01    0.32
  -5   9 -22    0.87    0.33
   5 -11 -25    2.81    0.50
   5 -11 -24    0.28    0.22
   5  11 -23   -0.27    0.29
   5 -11 -23   -0.10    0.22
   5  11 -22   -0.10    0.23
   5 -11 -22    0.06    0.18
   5  11 -21   -0.28    0.30
   5 -11 -21    0.67    0.25
   5  11 -20    2.72    0.49
   5 -11 -20    2.24    0.39
   5  11 -19    0.59    0.29
   5 -11 -19    0.21    0.17
   5  11 -18    0.20    0.18
   5 -11 -18    0.04    0.18
   5  11 -17    3.73    0.49
   5 -11 -17    4.49    0.48
   5  11 -16    0.64    0.26
   5 -11 -16    0.54    0.18
   5  11 -15    1.17    0.30
   5 -11 -15    1.10    0.22
   5  11 -14    4.73    0.53
   5 -11 -14    4.29    0.41
   5  11 -13   17.05    0.96
   5 -11 -13   19.07    0.86
   5  11 -12   13.12    0.82
   5 -11 -12   14.59    0.71
   5  11 -11    0.20    0.20
   5 -11 -11    0.26    0.10
  -5 -11  11    0.43    0.16
   5 -11 -10    2.81    0.26
  -5 -11  10    2.89    0.33
   5  11 -10    3.07    0.39
  -5  11   9    7.23    0.39
   5  11  -9    6.64    0.54
   5 -11  -9    6.22    0.37
  -5 -11   9    6.89    0.50
  -5  11   8    2.98    0.23
   5 -11  -8    2.97    0.23
  -5 -11   8    3.49    0.37
   5  11  -8    3.87    0.42
  -5  11   7   19.00    0.60
   5 -11  -7   20.69    0.63
  -5 -11   7   19.98    0.91
  -5 -11   6    2.03    0.31
  -5 -11   5   15.06    0.79
  -5 -11   4    0.04    0.14
  -5 -11   3    8.79    0.60
  -5 -11   2    1.97    0.30
  -5 -11   1   30.58    1.24
  -5 -11   0   13.56    0.78
  -5 -11  -1    1.47    0.29
  -5 -11  -2    2.75    0.37
  -5 -11  -3    2.08    0.34
   5 -11   3    2.43    0.16
   5 -11   4    2.97    0.21
  -5  11  -4    2.74    0.20
  -5 -11  -4    2.92    0.39
   5 -11   5    4.00    0.26
  -5 -11  -5    3.48    0.43
  -5  11  -5    3.24    0.25
   5 -11   6    2.62    0.24
  -5  11  -6    2.37    0.23
   5 -11   7    1.18    0.12
  -5  11  -7    1.27    0.20
  -5  11  -8   14.61    0.67
  -5 -11  -8   15.88    0.92
  -5  11  -9    9.51    0.58
  -5 -11  -9   10.78    0.78
  -5 -11 -10    0.84    0.26
  -5  11 -10    0.35    0.15
  -5  11 -11   11.41    0.68
  -5 -11 -11   10.78    0.81
  -5 -11 -12    1.99    0.40
  -5  11 -12    2.79    0.36
  -5  11 -13    7.97    0.62
  -5 -11 -13    7.08    0.68
  -5 -11 -14    1.37    0.34
  -5  11 -14    1.40    0.31
  -5 -11 -15    1.06    0.32
  -5  11 -15    0.63    0.22
  -5 -11 -16    1.31    0.33
  -5  11 -16    1.44    0.30
  -5 -11 -17    2.53    0.45
  -5  11 -17    1.79    0.36
  -5 -11 -18    0.03    0.20
  -5  11 -18    0.00    0.17
  -5 -11 -19    2.32    0.47
  -5  11 -19    3.29    0.49
  -5 -11 -20    2.53    0.47
  -5  11 -20    1.80    0.41
  -5  11 -21    0.94    0.32
  -5  11 -22   -0.24    0.25
   5  13 -23    0.87    0.35
   5 -13 -23    0.80    0.30
   5  13 -22    0.56    0.25
   5 -13 -22    0.58    0.25
   5  13 -21    0.33    0.24
   5 -13 -21    0.58    0.24
   5  13 -20    1.04    0.30
   5 -13 -20    0.91    0.27
   5  13 -19    1.17    0.35
   5 -13 -19    1.13    0.27
   5  13 -18    1.50    0.35
   5 -13 -18    2.06    0.35
   5  13 -17    3.20    0.48
   5 -13 -17    3.02    0.38
   5  13 -16   10.21    0.82
   5 -13 -16    9.50    0.67
   5  13 -15    5.97    0.61
   5 -13 -15    5.89    0.50
   5  13 -14    3.07    0.42
   5 -13 -14    2.32    0.30
   5  13 -13    3.46    0.45
   5 -13 -13    3.42    0.35
   5 -13 -12    3.77    0.34
   5  13 -12    3.31    0.42
  -5 -13  12    3.64    0.38
   5  13 -11    8.01    0.63
   5 -13 -11    9.05    0.51
  -5 -13  11    8.22    0.59
   5  13 -10    3.24    0.42
   5 -13 -10    3.19    0.28
  -5 -13  10    3.65    0.39
   5  13  -9    7.26    0.59
  -5 -13   9    8.22    0.57
   5  13  -8    6.09    0.53
  -5  13   8    5.64    0.30
  -5 -13   8    6.02    0.50
  -5  13   7    3.43    0.20
  -5 -13   7    3.69    0.41
  -5 -13   6   17.65    0.91
  -5 -13   5    0.84    0.23
  -5 -13   4    0.33    0.18
  -5 -13   3    4.79    0.46
  -5 -13   2   10.78    0.72
  -5 -13   1   32.71    1.34
  -5 -13   0   15.93    0.90
  -5 -13  -1    7.70    0.64
  -5 -13  -2    7.31    0.61
  -5 -13  -3    1.80    0.35
  -5 -13  -4    6.42    0.58
  -5  13  -4    5.75    0.28
  -5  13  -5    5.84    0.33
  -5 -13  -5    5.39    0.56
   5 -13   6   11.26    0.49
   5 -13   6   11.43    0.51
  -5  13  -6    9.96    0.49
  -5 -13  -6   10.43    0.78
   5 -13   7   -0.03    0.08
  -5 -13  -7    0.20    0.28
  -5  13  -7    0.04    0.09
  -5  13  -8    6.12    0.42
  -5 -13  -8    6.69    0.63
  -5  13  -9    3.20    0.32
  -5 -13  -9    3.37    0.47
  -5  13 -10    6.72    0.50
  -5 -13 -10    6.98    0.68
  -5 -13 -11    0.68    0.26
  -5  13 -11    0.50    0.18
  -5  13 -12    5.31    0.48
  -5 -13 -12    7.18    0.70
  -5 -13 -13    0.57    0.26
  -5  13 -13    0.25    0.15
  -5 -13 -14    2.80    0.48
  -5  13 -14    2.12    0.34
  -5 -13 -15    0.01    0.23
  -5  13 -15    0.14    0.16
  -5 -13 -16    1.40    0.37
  -5  13 -16    2.00    0.39
  -5 -13 -17    1.70    0.40
  -5  13 -17    2.46    0.42
  -5 -13 -18    1.49    0.37
  -5  13 -18    1.54    0.35
  -5 -13 -19    0.40    0.29
  -5 -13 -20    0.71    0.32
  -5 -13 -21    0.94    0.36
   5  15 -22    0.30    0.23
   5  15 -21   -0.06    0.29
   5  15 -20    0.46    0.26
   5  15 -19    4.33    0.60
   5  15 -18    3.27    0.52
   5  15 -17    0.71    0.26
   5  15 -16    3.05    0.48
   5  15 -15    0.47    0.30
   5  15 -14    1.10    0.27
   5  15 -13    1.34    0.30
  -5 -15  13    1.64    0.28
   5  15 -12    5.33    0.55
  -5 -15  12    5.91    0.51
   5  15 -11    9.10    0.70
  -5 -15  11    9.24    0.65
  -5 -15  10    3.08    0.37
   5  15 -10    3.34    0.42
  -5 -15   9    7.08    0.57
   5  15  -9    7.32    0.60
   5  15  -8    2.30    0.37
  -5 -15   8    1.49    0.29
  -5 -15   7    1.44    0.29
  -5 -15   6    1.70    0.32
  -5 -15   5    6.31    0.57
  -5 -15   4    3.77    0.45
  -5 -15   3    1.99    0.35
  -5 -15   2    2.43    0.38
  -5 -15   1   10.90    0.77
  -5 -15   0    4.10    0.48
  -5 -15  -1   14.57    0.92
  -5 -15  -2    4.55    0.54
  -5 -15  -3   14.18    0.93
  -5 -15  -4    6.12    0.60
   5 -15   5    5.33    0.41
  -5 -15  -5    5.78    0.61
   5 -15   6    0.30    0.12
  -5 -15  -6    0.29    0.20
  -5 -15  -7    1.46    0.35
  -5 -15  -8    5.84    0.64
  -5 -15  -9    3.75    0.53
  -5 -15 -10   10.67    0.88
  -5 -15 -11    4.50    0.58
  -5 -15 -12    2.63    0.48
  -5 -15 -13    1.07    0.33
  -5 -15 -14    1.49    0.39
  -5 -15 -15    0.58    0.28
  -5 -15 -16    0.53    0.27
  -5 -15 -17    0.62    0.29
  -5 -15 -18    2.09    0.43
  -5 -15 -19    0.91    0.36
  -5 -15 -20    0.45    0.30
   5  17 -21   -0.43    0.34
   5  17 -20    0.26    0.22
   5  17 -19    1.22    0.33
   5  17 -18    0.47    0.25
   5  17 -17    0.50    0.24
   5  17 -16    2.40    0.44
   5  17 -15    3.12    0.49
   5  17 -14    1.53    0.34
   5  17 -13    0.68    0.21
   5  17 -12    2.29    0.39
  -5 -17  12    2.28    0.34
  -5 -17  11    0.43    0.19
   5  17 -11    0.67    0.25
  -5 -17  10   -0.17    0.17
   5  17 -10    0.16    0.21
   5  17  -9   18.85    1.02
  -5 -17   9   19.69    1.02
  -5 -17   8    0.37    0.20
   5  17  -8    0.87    0.29
   5  17  -7    6.19    0.56
  -5 -17   7    5.66    0.55
  -5 -17   6    4.03    0.47
  -5 -17   5    5.54    0.55
  -5 -17   4    0.39    0.26
  -5 -17   3    1.00    0.28
  -5 -17   2    4.18    0.51
  -5 -17   1    7.34    0.66
  -5 -17   0    2.37    0.41
  -5 -17  -1    1.76    0.36
  -5 -17  -2    0.43    0.24
  -5 -17  -3    0.37    0.26
   5 -17   3    0.05    0.13
  -5 -17  -4    3.40    0.50
   5 -17   4    2.96    0.34
  -5 -17  -5    1.68    0.35
   5 -17   5    2.90    0.32
  -5 -17  -6    3.65    0.52
  -5 -17  -7    8.55    0.78
  -5 -17  -8    0.75    0.30
  -5 -17  -9    4.80    0.61
  -5 -17 -10    0.48    0.31
  -5 -17 -11    4.56    0.63
  -5 -17 -12    1.68    0.41
  -5 -17 -13    1.64    0.40
  -5 -17 -14   -0.14    0.29
  -5 -17 -15    2.33    0.48
  -5 -17 -16    2.33    0.50
  -5 -17 -17    0.43    0.26
   5  19 -20    0.14    0.26
   5  19 -19    0.45    0.27
   5  19 -18   -0.21    0.26
   5  19 -17   -0.10    0.25
   5  19 -16    2.84    0.47
   5  19 -15    0.54    0.29
   5  19 -14    2.11    0.38
   5  19 -13    1.05    0.29
   5  19 -12    7.10    0.66
  -5 -19  11    0.21    0.19
   5  19 -11    0.19    0.20
   5  19 -10    7.45    0.67
  -5 -19  10    7.03    0.61
  -5 -19   9    0.88    0.23
   5  19  -9    1.40    0.32
  -5 -19   8    1.75    0.35
   5  19  -8    1.98    0.37
  -5 -19   7    1.39    0.30
   5  19  -7    1.85    0.36
  -5 -19   6    1.97    0.37
  -5 -19   5    1.46    0.33
  -5 -19   4   10.08    0.79
  -5 -19   3    3.02    0.46
  -5 -19   2    9.63    0.79
  -5 -19   1    0.98    0.32
  -5 -19   0    1.20    0.33
   5 -19   0    1.23    0.30
  -5 -19  -1    3.29    0.50
   5 -19   1    3.53    0.43
  -5 -19  -2   16.11    1.08
   5 -19   2   16.02    0.89
  -5 -19  -3    0.40    0.31
   5 -19   3   -0.05    0.17
  -5 -19  -4    1.79    0.43
  -5 -19  -5    0.33    0.26
  -5 -19  -6    1.93    0.40
  -5 -19  -7   -0.02    0.21
  -5 -19  -8    2.88    0.52
  -5 -19  -9    0.54    0.28
  -5 -19 -10    0.17    0.27
  -5 -19 -11    0.22    0.29
  -5 -19 -12    4.96    0.69
  -5 -19 -13    0.06    0.25
  -5 -19 -14    2.25    0.50
   5  21 -18    0.17    0.21
   5  21 -17    1.33    0.38
   5  21 -16    0.41    0.27
   5  21 -15    1.52    0.39
   5  21 -14    0.03    0.19
   5  21 -13    6.78    0.68
   5  21 -12    2.52    0.42
   5  21 -11   -0.10    0.21
   5  21 -10    2.81    0.44
  -5 -21   9    1.56    0.34
   5  21  -9    1.61    0.32
   5  21  -8    0.80    0.27
  -5 -21   8    0.52    0.25
  -5 -21   7    1.80    0.38
   5  21  -7    2.12    0.38
  -5 -21   6    5.77    0.61
   5  21  -6    4.29    0.52
  -5 -21   5    4.02    0.53
  -5 -21   4    0.53    0.21
   5 -21  -4    0.58    0.22
   5 -21  -3    1.44    0.35
  -5 -21   3    2.16    0.41
   5 -21  -2    1.39    0.34
  -5 -21   2    1.10    0.30
   5 -21  -1    1.26    0.31
  -5 -21   1    0.74    0.29
  -5 -21   0    3.83    0.55
   5 -21   0    3.26    0.44
  -5 -21  -1    0.99    0.31
   5 -21   1    0.89    0.25
  -5 -21  -2    1.66    0.44
   5 -21   2    1.30    0.29
  -5 -21  -3    0.42    0.29
  -5 -21  -4    0.79    0.37
  -5 -21  -5    1.91    0.42
  -5 -21  -6    0.25    0.25
  -5 -21  -7    1.28    0.38
  -5 -21  -8    1.99    0.48
  -5 -21  -9    2.30    0.49
  -5 -21 -10    0.14    0.25
  -5 -21 -11    1.79    0.47
   5 -23 -11    0.42    0.32
   5 -23 -10    0.25    0.28
   5 -23  -9    1.21    0.38
   5  23  -8    0.09    0.19
   5 -23  -8    0.01    0.25
  -5 -23   8    0.24    0.21
   5  23  -7    0.22    0.23
  -5 -23   7   -0.05    0.18
   5 -23  -7    0.14    0.24
   5 -23  -6    0.12    0.21
  -5 -23   6    0.16    0.28
   5  23  -6    0.52    0.27
  -5 -23   5    3.63    0.52
   5  23  -5    4.58    0.53
   5 -23  -5    4.05    0.57
   5 -23  -4    0.88    0.34
  -5 -23   4    0.04    0.22
   5 -23  -3    1.09    0.37
  -5 -23   3    1.44    0.37
   5 -23  -2    2.81    0.48
  -5 -23   2    2.84    0.50
   5 -23  -1    2.70    0.45
  -5 -23   1    1.56    0.42
  -5 -23   0    1.58    0.42
   5 -23   0    2.60    0.44
  -5 -23  -1    5.94    0.70
  -5 -23  -2    0.02    0.27
  -5 -23  -3    0.15    0.23
  -5 -23  -4    1.26    0.38
  -5 -23  -5    0.21    0.26
  -5 -23  -6    1.62    0.44
  -5 -23  -7    0.57    0.33
   5 -25  -8    1.10    0.32
   5 -25  -7    0.25    0.25
  -5 -25   6    1.20    0.38
   5 -25  -6    1.51    0.41
  -5 -25   5    0.28    0.21
   5 -25  -5    0.56    0.23
   5 -25  -4    0.33    0.25
  -5 -25   4    0.55    0.30
   5 -25  -3    0.76    0.35
  -5 -25   3   -0.03    0.22
   5 -25  -2    1.01    0.31
  -5 -25   2    1.20    0.39
  -5 -25   1    0.62    0.30
  -5 -25   0    2.57    0.53
  -5 -25  -1    0.38    0.23
  -5 -25  -2    2.45    0.54
  -5 -25  -3    0.22    0.23
   5 -27  -4    0.59    0.29
  -5 -27   4    0.57    0.30
  -5 -27   3    0.41    0.28
   6   0 -25    0.59    0.35
   6   0 -24    1.86    0.41
   6   0 -23   -0.17    0.24
   6   0 -22    1.79    0.41
   6   0 -21    0.55    0.28
   6   0 -20    4.49    0.54
   6   0 -19   -0.28    0.26
   6   0 -18    1.72    0.32
   6   0 -17   -0.25    0.24
   6   0 -16   27.47    1.24
   6   0 -15    0.23    0.19
   6   0 -14   11.33    0.71
   6   0 -13    0.05    0.17
  -6   0  13    0.03    0.05
   6   0 -12    3.72    0.40
  -6   0  12    3.51    0.22
   6   0 -11   -0.21    0.21
  -6   0  11   -0.04    0.06
   6   0 -10   12.89    0.67
  -6   0  10   13.98    0.52
  -6   0   9    0.16    0.08
   6   0  -9    0.07    0.13
  -6   0   8   60.55    1.54
   6   0  -8   63.22    1.71
   6   0  -7    0.18    0.12
   6   0  -7   -0.05    0.12
  -6   0   7    0.01    0.07
  -6   0   6   57.34    1.51
   6   0  -6   58.03    1.51
  -6   0   5   -0.05    0.08
   6   0  -5    0.12    0.12
   6   0  -4   19.93    0.75
   6   0  -3    0.18    0.10
   6   0  -2   20.33    0.79
  -6   0   1    0.05    0.10
  -6   0   0   36.50    1.14
  -6   0  -1    0.03    0.09
  -6   0  -2   37.96    1.16
  -6   0  -3   -0.06    0.11
  -6   0  -4   31.52    1.03
  -6   0  -5    0.01    0.09
   6   0   6   13.75    0.74
  -6   0  -6   13.63    0.62
  -6   0  -7    0.01    0.10
   6   0   7    0.18    0.15
   6   0   8    3.67    0.38
  -6   0  -8    3.12    0.29
   6   0   9   -0.05    0.15
  -6   0  -9   -0.10    0.11
   6   0  10   17.51    0.90
  -6   0 -10   15.11    0.69
  -6   0 -11   -0.08    0.10
   6   0  11    0.01    0.17
  -6   0 -12    6.10    0.43
   6   0  12    7.12    0.58
   6   0  13    0.41    0.28
  -6   0 -13    0.14    0.17
  -6   0 -14   37.42    1.22
   6   0  14   32.97    1.43
  -6   0 -14   36.54    1.57
   6   0  15    0.22    0.22
  -6   0 -15   -0.12    0.20
   6   0  16    2.70    0.41
  -6   0 -16    2.88    0.46
   6   0  17   -0.12    0.20
  -6   0 -17   -0.08    0.18
   6   0  18    6.30    0.61
  -6   0 -18    5.46    0.65
   6   0  19   -0.10    0.17
  -6   0 -19    0.05    0.20
  -6   0 -20    1.37    0.39
  -6   0 -21    0.46    0.29
   6  -2 -26    0.36    0.25
   6   2 -25    2.04    0.48
   6  -2 -25    1.96    0.44
   6   2 -24    2.66    0.52
   6  -2 -24    2.99    0.52
   6  -2 -23    3.67    0.54
   6   2 -23    3.59    0.56
   6  -2 -22    0.54    0.26
   6   2 -22   -0.09    0.21
   6  -2 -21    2.25    0.40
   6   2 -21    1.85    0.37
   6  -2 -20    0.96    0.28
   6   2 -20    1.11    0.29
   6  -2 -19    1.53    0.32
   6   2 -19    1.93    0.36
   6  -2 -18    2.04    0.35
   6   2 -18    2.61    0.41
   6   2 -17   30.37    1.37
   6  -2 -17   28.68    1.31
   6  -2 -16    3.28    0.41
   6   2 -16    2.96    0.42
   6  -2 -15    0.69    0.22
   6   2 -15    0.31    0.19
   6  -2 -14    3.06    0.36
   6   2 -14    2.54    0.36
  -6  -2  14    3.46    0.25
   6  -2 -13   15.54    0.80
   6   2 -13   16.81    0.86
   6  -2 -12   39.38    1.36
   6   2 -12   40.23    1.42
  -6  -2  12   40.72    1.13
   6  -2 -11    3.40    0.34
   6   2 -11    3.71    0.38
  -6  -2  11    3.37    0.26
   6  -2 -10   16.94    0.76
   6   2 -10   17.51    0.81
  -6  -2  10   17.92    0.66
   6  -2  -9    8.68    0.49
   6   2  -9    8.36    0.52
  -6  -2   9    7.15    0.40
   6  -2  -9    8.89    0.38
   6  -2  -8   14.24    0.54
   6  -2  -8   14.82    0.64
  -6  -2   8   14.89    0.60
   6   2  -8   13.56    0.67
  -6  -2   7   13.25    0.58
   6  -2  -7   14.11    0.55
   6  -2  -7   14.31    0.61
   6   2  -7   13.96    0.65
   6  -2  -6    9.21    0.45
  -6  -2   6    9.43    0.48
   6  -2  -6   10.49    0.49
   6  -2  -5   25.77    0.87
  -6  -2   5   27.38    0.92
   6  -2  -4   19.90    0.75
   6   2  -4   19.77    0.77
   6  -2  -3   21.00    0.79
  -6  -2   3   22.39    0.86
   6   2  -3   21.33    0.81
   6  -2  -2   11.26    0.56
  -6  -2   2   11.68    0.58
  -6  -2   1    3.54    0.32
  -6  -2   0   26.12    0.94
   6  -2   1    0.77    0.15
  -6  -2  -1    0.81    0.18
   6  -2   2   11.00    0.52
  -6  -2  -2   10.17    0.55
   6  -2   2   11.89    0.54
   6  -2   3   16.23    0.65
  -6   2  -3   15.42    0.63
  -6  -2  -3   16.36    0.71
   6  -2   4    9.59    0.48
  -6   2  -4   10.13    0.49
  -6  -2  -4   10.25    0.55
   6  -2   5    9.45    0.46
   6   2   5    8.26    0.54
  -6   2  -5    8.11    0.43
  -6  -2  -5    8.57    0.51
  -6  -2  -6    5.63    0.41
   6   2   6    4.21    0.40
   6  -2   6    5.10    0.34
  -6   2  -6    4.86    0.33
  -6  -2  -7    9.45    0.54
   6   2   7    9.94    0.62
  -6   2  -7    9.87    0.47
   6  -2   7    9.86    0.48
  -6  -2  -8    5.47    0.41
   6  -2   8    5.74    0.35
   6   2   8    5.19    0.46
  -6   2  -8    5.57    0.34
  -6  -2  -9    6.52    0.46
   6   2   9    7.56    0.55
   6  -2   9    7.02    0.40
  -6   2  -9    6.67    0.39
   6  -2  10    0.42    0.12
  -6   2 -10    0.16    0.09
   6   2  10    0.16    0.18
   6  -2  10    0.19    0.17
  -6  -2 -11   14.92    0.75
   6  -2  11   14.86    0.86
   6   2  11   13.66    0.81
  -6   2 -11   14.64    0.86
  -6   2 -11   14.82    0.61
  -6  -2 -12   20.18    0.90
   6  -2  12   21.29    1.06
   6   2  12   21.71    1.04
  -6   2 -12   19.50    1.03
  -6   2 -12   20.12    0.74
  -6  -2 -13    9.96    0.61
   6  -2  13    8.45    0.67
  -6   2 -13   10.02    0.74
  -6   2 -13    8.84    0.46
   6   2  13    9.09    0.67
  -6  -2 -14   10.79    0.65
   6  -2  14   11.20    0.78
   6   2  14    9.47    0.70
  -6   2 -14   11.54    0.82
   6   2  15   -0.11    0.20
   6  -2  15    0.11    0.17
  -6   2 -15    0.30    0.18
  -6  -2 -15    0.31    0.16
   6   2  16    1.20    0.28
   6  -2  16    1.01    0.29
  -6   2 -16    1.27    0.33
   6   2  17    6.54    0.60
   6  -2  17    6.95    0.65
  -6   2 -17    5.35    0.62
   6  -2  18    1.62    0.35
   6   2  18    1.86    0.35
  -6   2 -18    1.51    0.38
   6  -2  19    1.57    0.34
   6   2  19    1.32    0.31
  -6   2 -19    1.50    0.43
   6  -2  20    1.33    0.32
  -6   2 -20    2.08    0.45
  -6   2 -21    3.15    0.55
  -6   2 -22    0.59    0.28
   6  -4 -26   -0.02    0.25
   6   4 -25    1.10    0.33
   6  -4 -25    0.83    0.28
   6   4 -24   -0.09    0.20
   6  -4 -24    0.12    0.22
   6   4 -23    0.27    0.22
   6  -4 -23    0.47    0.22
   6   4 -22    1.68    0.39
   6  -4 -22    1.72    0.36
   6   4 -21    2.56    0.44
   6  -4 -21    4.28    0.54
   6  -4 -20    2.54    0.42
   6   4 -20    3.64    0.50
   6  -4 -19   -0.12    0.19
   6   4 -19   -0.25    0.19
   6  -4 -18    0.99    0.29
   6   4 -18    1.20    0.30
   6   4 -17   21.32    1.14
   6  -4 -17   20.02    1.05
   6   4 -16    3.84    0.49
   6  -4 -16    3.50    0.41
   6  -4 -15    0.20    0.16
   6   4 -15    0.65    0.27
   6  -4 -14    1.70    0.28
   6   4 -14    2.42    0.40
   6   4 -13    5.56    0.50
   6  -4 -13    5.58    0.46
   6  -4 -12    1.05    0.22
   6   4 -12    0.98    0.23
   6  -4 -11    2.72    0.30
   6  -4 -11    2.68    0.17
   6   4 -11    2.77    0.34
   6  -4 -10   13.86    0.66
   6   4 -10   13.12    0.72
   6  -4 -10   14.43    0.49
   6  -4  -9   23.57    0.87
   6   4  -9   24.08    0.97
   6  -4  -9   23.37    0.72
   6  -4  -8   11.16    0.53
   6  -4  -8   10.24    0.45
   6   4  -8   10.61    0.61
   6  -4  -7   20.76    0.73
   6  -4  -7   20.61    0.71
   6  -4  -6   19.83    0.68
  -6  -4   6   19.48    0.82
   6  -4  -5    0.03    0.09
  -6  -4   5    0.06    0.12
  -6  -4   4   16.03    0.73
  -6  -4   3   82.64    2.18
  -6  -4   2   13.70    0.67
  -6  -4   1   16.86    0.76
  -6  -4   0   23.99    0.93
   6  -4   1   10.04    0.44
   6  -4   1    9.79    0.48
   6  -4   2    1.81    0.21
  -6  -4  -2    1.59    0.25
   6  -4   2    1.52    0.18
  -6  -4  -3    8.23    0.52
   6  -4   3    8.47    0.44
   6  -4   3    7.70    0.41
  -6  -4  -4   24.94    0.99
   6  -4   4   25.93    0.84
   6  -4   5    2.21    0.21
   6   4   5    1.96    0.28
  -6  -4  -5    1.62    0.24
  -6  -4  -6    5.36    0.44
   6  -4   6    5.84    0.34
   6   4   6    6.15    0.49
  -6  -4  -7    4.68    0.40
   6   4   7    4.92    0.45
   6  -4   7    4.49    0.29
  -6  -4  -8    8.92    0.57
   6   4   8    8.34    0.59
   6  -4   8    7.29    0.37
   6  -4   9    0.83    0.14
   6   4   9    0.76    0.21
  -6   4  -9    1.37    0.25
  -6  -4  -9    0.95    0.22
  -6   4 -10    2.02    0.32
  -6  -4 -10    2.54    0.33
  -6   4 -11    7.65    0.60
   6   4  11    6.87    0.56
  -6  -4 -11    8.29    0.59
  -6  -4 -12    0.46    0.20
   6   4  12    0.54    0.23
  -6   4 -12    0.62    0.21
  -6  -4 -13    3.29    0.39
   6   4  13    2.43    0.36
  -6   4 -13    2.51    0.37
   6   4  14    8.26    0.64
  -6  -4 -14    7.82    0.59
  -6   4 -14    7.18    0.65
  -6  -4 -15    1.67    0.31
  -6   4 -15    1.38    0.31
   6   4  15    1.71    0.33
  -6  -4 -16    1.28    0.27
   6   4  16    1.25    0.29
   6  -4  16    1.26    0.29
  -6   4 -16    1.10    0.31
   6  -4  17    4.11    0.51
   6   4  17    4.54    0.52
  -6   4 -17    3.76    0.51
   6  -4  18   -0.05    0.19
   6   4  18    0.11    0.19
  -6   4 -18   -0.01    0.18
  -6   4 -19    1.22    0.34
   6  -4  19    1.55    0.35
   6  -4  20    0.06    0.18
  -6   4 -20    0.65    0.28
  -6   4 -21    0.53    0.29
  -6   4 -22    1.61    0.45
   6  -6 -26    0.25    0.23
   6   6 -25    0.17    0.34
   6  -6 -25    0.58    0.26
   6   6 -24    2.45    0.50
   6  -6 -24    2.01    0.42
   6   6 -23    0.55    0.23
   6  -6 -23    0.88    0.32
   6   6 -22    0.20    0.18
   6  -6 -22    0.55    0.28
   6   6 -21    2.92    0.48
   6  -6 -21    2.80    0.43
   6   6 -20    2.83    0.46
   6  -6 -20    2.73    0.42
   6   6 -19    2.63    0.44
   6  -6 -19    2.38    0.39
   6   6 -18    2.64    0.45
   6  -6 -18    3.46    0.44
   6   6 -17    5.67    0.58
   6  -6 -17    5.68    0.55
   6   6 -16   23.15    1.18
   6  -6 -16   24.68    1.13
   6   6 -15   14.98    0.91
   6  -6 -15   14.39    0.81
   6   6 -14   17.79    0.98
   6  -6 -14   17.57    0.87
   6  -6 -13    0.50    0.18
   6   6 -13    0.56    0.21
   6   6 -12    3.40    0.42
   6  -6 -12    2.83    0.16
   6  -6 -12    3.27    0.33
   6  -6 -11    6.59    0.30
   6   6 -11    6.77    0.53
   6  -6 -11    5.87    0.43
   6  -6 -10   12.18    0.47
   6   6 -10   11.26    0.69
   6  -6 -10   12.78    0.61
   6   6  -9   23.24    1.00
   6  -6  -9   23.99    0.85
   6  -6  -8    6.58    0.38
   6   6  -8    6.94    0.52
  -6  -6   8    7.80    0.51
   6  -6  -7    6.65    0.36
  -6  -6   7    6.70    0.49
   6  -6  -6   16.38    0.58
  -6  -6   6   15.30    0.75
   6  -6  -5   13.74    0.49
  -6  -6   5   14.22    0.71
   6  -6  -4   33.18    0.87
  -6  -6   4   31.81    1.16
  -6  -6   3    3.01    0.33
  -6  -6   2   17.34    0.81
  -6  -6   1   69.62    1.98
  -6  -6   0    2.43    0.30
   6  -6   0    1.67    0.15
  -6  -6  -1   16.15    0.78
   6  -6   1   15.73    0.55
   6  -6   2    2.65    0.21
  -6  -6  -2    2.25    0.30
   6  -6   2    2.43    0.23
  -6  -6  -3   24.47    1.02
   6  -6   3   24.82    0.81
   6  -6   3   25.48    0.84
  -6  -6  -4   29.57    1.16
   6   6   4   29.77    1.17
   6  -6   4   32.17    0.99
   6  -6   4   29.61    0.92
   6  -6   5    1.23    0.16
   6   6   5    1.46    0.28
  -6  -6  -5    1.30    0.24
   6  -6   6   14.89    0.55
  -6  -6  -6   13.38    0.74
   6   6   6   13.41    0.76
  -6  -6  -7    0.77    0.25
   6   6   7    0.94    0.27
   6  -6   7    0.68    0.11
  -6  -6  -8   28.33    1.17
   6   6   8   29.28    1.18
  -6   6  -8   27.06    1.06
   6  -6   8   26.93    0.77
  -6  -6  -9    2.62    0.35
   6  -6   9    2.87    0.18
   6   6   9    3.37    0.41
  -6   6  -9    2.91    0.34
  -6  -6 -10   11.96    0.74
   6   6  10   11.69    0.73
  -6   6 -10   11.79    0.70
  -6  -6 -11    1.87    0.31
   6   6  11    2.30    0.36
  -6   6 -11    2.06    0.31
  -6  -6 -12    4.44    0.47
   6   6  12    3.43    0.41
  -6   6 -12    3.66    0.42
  -6  -6 -13    3.10    0.40
   6   6  13    3.76    0.46
  -6   6 -13    2.46    0.38
  -6  -6 -14   11.88    0.79
   6   6  14   12.06    0.79
  -6   6 -14   13.63    0.87
   6   6  15    4.71    0.52
  -6   6 -15    4.56    0.54
  -6  -6 -15    4.99    0.53
   6   6  16    5.17    0.53
  -6  -6 -16    4.04    0.48
  -6   6 -16    3.64    0.48
  -6  -6 -17    0.76    0.23
  -6   6 -17    1.16    0.34
  -6   6 -18    5.46    0.62
   6  -6  19    0.36    0.24
  -6   6 -19    0.49    0.25
   6  -6  20    1.11    0.29
  -6   6 -20    0.89    0.32
  -6   6 -21   -0.26    0.21
  -6   6 -22    1.36    0.39
   6  -8 -26   -0.01    0.22
   6  -8 -25    1.20    0.34
   6   8 -24    1.65    0.41
   6  -8 -24    2.21    0.45
   6   8 -23    0.44    0.29
   6  -8 -23    0.16    0.19
   6   8 -22    0.07    0.21
   6  -8 -22   -0.25    0.23
   6   8 -21    1.22    0.32
   6  -8 -21    1.03    0.25
   6   8 -20    3.73    0.54
   6  -8 -20    2.85    0.41
   6   8 -19    0.34    0.24
   6  -8 -19    0.05    0.15
   6   8 -18    0.56    0.25
   6  -8 -18    0.47    0.20
   6   8 -17    5.47    0.60
   6  -8 -17    6.51    0.57
   6   8 -16    2.25    0.40
   6  -8 -16    2.00    0.32
   6   8 -15    6.65    0.63
   6  -8 -15    7.01    0.55
   6  -8 -14    3.99    0.39
   6   8 -14    4.33    0.48
   6  -8 -13    0.69    0.19
   6  -8 -13    1.06    0.10
   6   8 -13    0.70    0.20
   6   8 -12    6.88    0.56
   6  -8 -12    6.11    0.45
   6   8 -11    3.86    0.43
   6  -8 -11    4.27    0.36
   6  -8 -10    0.79    0.16
   6   8 -10    0.66    0.24
  -6   8   9   11.59    0.53
   6   8  -9   12.37    0.72
  -6  -8   9   11.06    0.66
   6  -8  -9   11.71    0.54
   6  -8  -8    2.17    0.21
  -6  -8   8    1.90    0.28
  -6  -8   7    8.42    0.55
   6  -8  -7    8.34    0.39
  -6  -8   6    0.46    0.18
   6  -8  -6    0.46    0.09
  -6  -8   5   30.20    1.13
   6  -8  -5   28.18    0.76
   6  -8  -4    8.25    0.29
  -6  -8   4    8.71    0.57
   6  -8  -3   19.68    0.50
  -6  -8   3   19.76    0.91
   6  -8  -2    1.77    0.11
   6  -8  -2    2.15    0.12
  -6  -8   2    1.88    0.29
  -6  -8   1    0.17    0.15
   6  -8  -1    0.21    0.04
  -6  -8   0   12.68    0.71
   6  -8   0   12.25    0.39
  -6  -8  -1   36.18    1.36
   6  -8   1   38.97    0.96
   6  -8   2    0.92    0.11
  -6  -8  -2    0.83    0.22
  -6  -8  -3    7.76    0.57
   6  -8   3    7.66    0.37
   6  -8   4    0.79    0.13
   6  -8   4    0.84    0.14
  -6  -8  -5   18.14    0.94
   6  -8   5   18.71    0.66
  -6  -8  -6   12.46    0.76
   6  -8   6   12.17    0.48
   6  -8   7   15.27    0.52
  -6  -8  -7   13.36    0.81
  -6   8  -7   13.32    0.66
  -6  -8  -8   11.90    0.76
   6  -8   8   10.79    0.39
  -6   8  -8   11.37    0.63
  -6  -8  -9    1.10    0.30
  -6   8  -9    1.41    0.25
  -6  -8 -10   32.35    1.37
  -6   8 -10   32.63    1.26
  -6  -8 -11    0.82    0.27
  -6   8 -11    0.42    0.17
  -6  -8 -12    4.79    0.51
  -6   8 -12    4.73    0.47
  -6  -8 -13    1.28    0.29
  -6   8 -13    1.60    0.31
  -6  -8 -14    0.12    0.21
  -6   8 -14    0.12    0.16
  -6  -8 -15    3.53    0.47
  -6   8 -15    2.87    0.42
  -6  -8 -16    3.54    0.48
  -6   8 -16    3.02    0.45
  -6  -8 -17    0.63    0.27
  -6   8 -17    0.41    0.22
  -6   8 -18    3.44    0.51
  -6  -8 -18    3.89    0.52
  -6   8 -19    0.21    0.19
  -6   8 -20    0.02    0.24
  -6   8 -21    1.89    0.43
  -6   8 -22    1.93    0.45
   6 -10 -25    1.54    0.37
   6 -10 -24   -0.09    0.22
   6  10 -23    0.66    0.27
   6 -10 -23    0.78    0.25
   6  10 -22   -0.08    0.20
   6 -10 -22   -0.13    0.16
   6  10 -21    2.17    0.44
   6 -10 -21    1.99    0.38
   6  10 -20    0.06    0.22
   6 -10 -20    0.31    0.20
   6  10 -19    2.23    0.43
   6 -10 -19    1.91    0.35
   6  10 -18    1.70    0.39
   6 -10 -18    1.48    0.28
   6  10 -17    0.75    0.25
   6 -10 -17    0.97    0.24
   6  10 -16    1.22    0.33
   6 -10 -16    1.40    0.27
   6  10 -15    0.34    0.20
   6 -10 -15    0.62    0.17
   6  10 -14    0.25    0.20
   6 -10 -14    0.46    0.16
   6  10 -13    9.97    0.73
   6 -10 -13   10.45    0.61
   6  10 -12    1.84    0.34
   6 -10 -12    1.47    0.23
   6  10 -11    2.76    0.39
   6 -10 -11    2.81    0.28
   6  10 -10    7.00    0.57
  -6 -10  10    6.01    0.49
   6 -10 -10    6.44    0.40
   6  10  -9    5.11    0.50
   6 -10  -9    4.49    0.31
  -6 -10   9    4.45    0.42
  -6  10   9    4.47    0.31
   6 -10  -8    8.02    0.39
  -6 -10   8    7.41    0.55
   6 -10  -7    6.79    0.32
  -6 -10   7    6.69    0.51
   6 -10  -6    8.56    0.33
  -6 -10   6    8.32    0.58
   6 -10  -5    4.16    0.17
  -6 -10   5    3.80    0.40
  -6 -10   4    3.78    0.41
  -6 -10   3    3.59    0.40
  -6 -10   2   14.08    0.79
  -6 -10   1    1.36    0.28
  -6 -10   0    0.68    0.22
   6 -10   1    7.37    0.24
  -6 -10  -1    9.16    0.64
   6 -10   2   11.36    0.38
  -6 -10  -2   10.71    0.72
  -6 -10  -3    0.55    0.26
   6 -10   3    0.19    0.08
   6 -10   4    3.81    0.26
  -6 -10  -4    3.17    0.42
  -6 -10  -5    0.03    0.17
   6 -10   5    0.39    0.13
   6 -10   5    0.11    0.07
  -6 -10  -6    4.48    0.49
   6 -10   6    4.06    0.26
  -6  10  -7    3.00    0.30
   6 -10   7    2.89    0.21
  -6 -10  -8    1.37    0.32
  -6  10  -8    0.90    0.18
  -6 -10  -9    0.29    0.23
  -6  10  -9    0.03    0.11
  -6 -10 -10    4.76    0.52
  -6  10 -10    4.75    0.43
  -6 -10 -11    5.54    0.57
  -6  10 -11    5.89    0.50
  -6 -10 -12    1.31    0.33
  -6  10 -12    1.22    0.24
  -6 -10 -13    0.95    0.26
  -6  10 -13    1.03    0.26
  -6 -10 -14    0.94    0.27
  -6  10 -14    0.64    0.22
  -6 -10 -15    1.10    0.28
  -6  10 -15    0.45    0.20
  -6 -10 -16    7.17    0.70
  -6  10 -16    7.36    0.69
  -6 -10 -17    1.61    0.37
  -6  10 -17    2.14    0.42
  -6 -10 -18    1.81    0.39
  -6  10 -18    1.89    0.39
  -6 -10 -19    1.07    0.34
  -6  10 -19    0.59    0.32
  -6  10 -20    0.84    0.32
  -6  10 -21    0.78    0.31
  -6  10 -22    0.21    0.24
   6  12 -23    0.42    0.27
   6 -12 -23    0.75    0.30
   6  12 -22    0.28    0.26
   6 -12 -22    0.02    0.16
   6  12 -21    0.45    0.26
   6 -12 -21    0.26    0.20
   6  12 -20    0.94    0.34
   6 -12 -20    1.36    0.30
   6  12 -19    2.46    0.45
   6 -12 -19    2.27    0.37
   6  12 -18    1.11    0.33
   6 -12 -18    1.03    0.26
   6  12 -17   -0.08    0.19
   6 -12 -17   -0.04    0.15
   6  12 -16    1.94    0.37
   6 -12 -16    1.53    0.27
   6  12 -15    1.81    0.35
   6 -12 -15    2.61    0.34
   6  12 -14    2.31    0.37
   6 -12 -14    2.54    0.31
   6  12 -13   -0.03    0.23
   6 -12 -13    0.14    0.11
   6  12 -12    0.11    0.19
  -6 -12  12    0.09    0.14
   6 -12 -12   -0.06    0.10
   6  12 -11   15.55    0.91
   6 -12 -11   15.56    0.68
  -6 -12  11   15.08    0.82
   6  12 -10    3.09    0.43
   6 -12 -10    3.07    0.27
  -6 -12  10    2.19    0.33
  -6  12   9   10.24    0.45
   6 -12  -9   10.08    0.46
   6  12  -9   10.14    0.71
  -6 -12   9   11.68    0.70
   6 -12  -8    6.61    0.33
  -6 -12   8    7.41    0.57
  -6 -12   7    0.62    0.21
  -6 -12   6   18.86    0.96
  -6 -12   5    9.10    0.65
  -6 -12   4    5.70    0.53
  -6 -12   3    3.34    0.41
  -6 -12   2    8.41    0.64
  -6 -12   1    0.97    0.27
  -6 -12   0   12.31    0.78
  -6 -12  -1    2.51    0.36
  -6 -12  -2    4.57    0.50
  -6 -12  -3    1.87    0.33
   6 -12   3    1.82    0.14
   6 -12   4    6.20    0.31
  -6 -12  -4    6.53    0.60
  -6 -12  -5    4.36    0.49
   6 -12   5    4.78    0.29
  -6 -12  -6    1.15    0.29
  -6 -12  -7    1.62    0.33
  -6  12  -7    1.73    0.22
  -6 -12  -8    0.67    0.29
  -6  12  -8    0.35    0.14
  -6 -12  -9   11.89    0.87
  -6  12  -9   11.54    0.64
  -6 -12 -10    5.06    0.58
  -6  12 -10    5.06    0.44
  -6 -12 -11    5.94    0.63
  -6  12 -11    5.50    0.48
  -6 -12 -12    2.25    0.44
  -6  12 -12    3.08    0.38
  -6 -12 -13   10.62    0.86
  -6  12 -13    9.38    0.69
  -6 -12 -14    1.64    0.36
  -6  12 -14    1.86    0.34
  -6 -12 -15    1.05    0.30
  -6  12 -15    1.56    0.33
  -6 -12 -16    0.06    0.22
  -6  12 -16   -0.07    0.16
  -6  12 -17    0.26    0.21
  -6 -12 -17    0.13    0.21
  -6 -12 -18    0.49    0.28
  -6  12 -18    1.20    0.32
  -6 -12 -19    0.72    0.34
   6  14 -22    0.89    0.31
   6  14 -21    1.86    0.44
   6  14 -20    0.39    0.29
   6  14 -19    3.72    0.55
   6  14 -18    2.06    0.43
   6  14 -17    1.33    0.34
   6  14 -16    0.55    0.27
   6  14 -15   12.45    0.90
   6  14 -14    5.48    0.58
   6  14 -13    4.28    0.51
   6 -14 -13    4.55    0.38
   6  14 -12    0.55    0.22
   6 -14 -12    0.70    0.15
  -6 -14  12    0.56    0.20
   6  14 -11    3.48    0.44
   6 -14 -11    3.28    0.29
  -6 -14  11    3.37    0.39
  -6 -14  10    0.42    0.18
   6  14 -10    1.06    0.30
   6  14  -9    7.60    0.63
  -6 -14   9    8.79    0.64
   6  14  -8    8.02    0.65
  -6 -14   8    7.54    0.61
  -6 -14   7    2.31    0.36
  -6 -14   6    0.24    0.20
  -6 -14   5    2.16    0.35
  -6 -14   4    0.88    0.27
  -6 -14   3   11.89    0.79
  -6 -14   2    0.05    0.21
  -6 -14   1   17.60    1.00
  -6 -14   0    6.99    0.63
  -6 -14  -1    0.18    0.19
  -6 -14  -2   11.78    0.82
  -6 -14  -3    0.51    0.24
  -6 -14  -4    3.75    0.50
  -6 -14  -5    5.35    0.59
  -6 -14  -6    5.37    0.58
  -6 -14  -7    3.93    0.52
  -6 -14  -8    0.20    0.23
  -6 -14  -9    4.91    0.58
  -6 -14 -10   -0.22    0.20
  -6 -14 -11    3.52    0.53
  -6 -14 -12    0.87    0.31
  -6 -14 -13    2.63    0.49
  -6 -14 -14    0.72    0.30
  -6 -14 -15    3.36    0.54
  -6 -14 -16    0.94    0.35
  -6 -14 -17    2.05    0.45
  -6 -14 -18    0.55    0.29
  -6 -14 -19    0.00    0.28
  -6 -14 -20    1.08    0.39
   6  16 -21   -0.01    0.26
   6  16 -20    2.49    0.50
   6  16 -19   -0.05    0.21
   6  16 -18    0.62    0.24
   6  16 -17    1.07    0.33
   6  16 -16    1.82    0.39
   6  16 -15    0.54    0.24
   6  16 -14    3.96    0.52
   6  16 -13    0.54    0.26
  -6 -16  13    0.71    0.21
   6  16 -12    7.77    0.69
  -6 -16  12    6.08    0.58
   6  16 -11    7.89    0.68
  -6 -16  11    6.41    0.58
  -6 -16  10    3.00    0.41
   6  16 -10    3.40    0.48
  -6 -16   9    2.00    0.35
   6  16  -9    2.66    0.43
   6  16  -8    7.81    0.64
  -6 -16   8    6.34    0.60
  -6 -16   7    2.51    0.38
  -6 -16   6    4.99    0.54
  -6 -16   5    3.35    0.46
  -6 -16   4    6.31    0.60
  -6 -16   3    4.04    0.51
  -6 -16   2    4.74    0.55
  -6 -16   1    4.82    0.54
  -6 -16   0    9.97    0.78
  -6 -16  -1    6.19    0.64
  -6 -16  -2    6.72    0.66
  -6 -16  -3    1.90    0.38
  -6 -16  -4    0.97    0.31
  -6 -16  -5    0.76    0.30
  -6 -16  -6    9.52    0.82
  -6 -16  -7    2.41    0.45
  -6 -16  -8    4.14    0.58
  -6 -16  -9    1.94    0.41
  -6 -16 -10    5.53    0.66
  -6 -16 -11    2.97    0.50
  -6 -16 -12    2.70    0.50
  -6 -16 -13    0.60    0.28
  -6 -16 -14    0.94    0.34
  -6 -16 -15    0.71    0.28
  -6 -16 -16    1.34    0.42
  -6 -16 -17   -0.18    0.25
   6  18 -20    0.16    0.26
   6  18 -19    0.90    0.37
   6  18 -18   -0.31    0.26
   6  18 -17    0.28    0.28
   6  18 -16    0.60    0.31
   6  18 -15    3.13    0.49
   6  18 -14   -0.09    0.24
   6  18 -13    1.00    0.30
   6  18 -12    2.63    0.43
  -6 -18  12    2.18    0.35
  -6 -18  11    3.38    0.44
   6  18 -11    3.95    0.51
  -6 -18  10    1.04    0.28
   6  18 -10    1.34    0.36
  -6 -18   9    3.70    0.46
   6  18  -9    2.69    0.43
  -6 -18   8    0.03    0.19
   6  18  -8    0.46    0.25
  -6 -18   7    1.83    0.34
  -6 -18   6    0.35    0.20
  -6 -18   5    9.57    0.78
  -6 -18   4    1.62    0.35
  -6 -18   3    3.90    0.52
  -6 -18   2    5.26    0.60
  -6 -18   1    8.89    0.79
  -6 -18   0    1.83    0.39
  -6 -18  -1    5.19    0.62
  -6 -18  -2    4.02    0.54
  -6 -18  -3    4.06    0.56
  -6 -18  -4   -0.01    0.22
  -6 -18  -5    2.30    0.42
  -6 -18  -6    3.66    0.56
  -6 -18  -7    1.07    0.39
  -6 -18  -8   -0.05    0.27
  -6 -18  -9    2.31    0.51
  -6 -18 -10    0.53    0.32
  -6 -18 -11    0.64    0.37
  -6 -18 -12    1.35    0.42
  -6 -18 -13    4.37    0.66
  -6 -18 -14    1.47    0.46
   6  20 -18    2.80    0.52
   6  20 -17    1.29    0.38
   6  20 -16    1.13    0.39
   6  20 -15    2.23    0.44
   6  20 -14    2.35    0.41
   6  20 -13    3.26    0.49
   6  20 -12    0.88    0.31
   6  20 -11    6.23    0.64
  -6 -20  11    4.96    0.55
  -6 -20  10    0.31    0.22
   6  20 -10    0.18    0.19
  -6 -20   9    3.62    0.49
   6  20  -9    3.63    0.49
   6  20  -8    1.11    0.31
  -6 -20   8    0.99    0.29
  -6 -20   7    0.14    0.22
   6  20  -7    0.55    0.29
  -6 -20   6    0.10    0.21
  -6 -20   5    3.89    0.51
  -6 -20   4    0.18    0.21
  -6 -20   3    0.74    0.28
  -6 -20   2    0.25    0.23
  -6 -20   1    5.56    0.64
  -6 -20   0    3.42    0.54
  -6 -20  -1    1.28    0.37
   6 -20   1    0.70    0.23
  -6 -20  -2    0.76    0.34
  -6 -20  -3    3.13    0.51
  -6 -20  -4    0.48    0.28
  -6 -20  -5    3.13    0.53
  -6 -20  -6    1.27    0.38
  -6 -20  -7   -0.29    0.27
  -6 -20  -8    0.09    0.23
  -6 -20  -9    1.61    0.42
  -6 -20 -10    1.86    0.47
  -6 -20 -11    1.57    0.47
   6  22 -17    0.20    0.26
   6  22 -16    2.58    0.51
   6  22 -15    0.81    0.31
   6  22 -14    0.29    0.25
   6  22 -13   -0.31    0.31
   6  22 -12    3.15    0.48
   6  22 -11    0.32    0.23
   6  22 -10    0.04    0.20
  -6 -22   9    1.44    0.34
   6  22  -9    1.52    0.35
  -6 -22   8    0.91    0.31
   6  22  -8    1.03    0.32
  -6 -22   7    0.10    0.20
   6  22  -7    0.23    0.23
  -6 -22   6    1.78    0.37
   6  22  -6    1.88    0.41
  -6 -22   5    0.55    0.25
  -6 -22   4    1.42    0.38
   6 -22  -3    1.43    0.35
  -6 -22   3    0.96    0.34
  -6 -22   2   12.37    0.98
   6 -22  -2   11.49    0.88
   6 -22  -1    0.47    0.27
  -6 -22   1    0.59    0.30
   6 -22   0   -0.05    0.18
  -6 -22   0    0.42    0.28
  -6 -22  -1    1.47    0.40
  -6 -22  -2    0.90    0.38
  -6 -22  -3   -0.01    0.26
  -6 -22  -4    1.70    0.45
  -6 -22  -5    1.46    0.42
  -6 -22  -6    2.91    0.55
  -6 -22  -7   -0.19    0.24
  -6 -22  -8    1.71    0.46
   6 -24  -9    0.41    0.29
   6 -24  -8    0.96    0.36
  -6 -24   7    1.27    0.35
   6 -24  -7    1.29    0.38
   6 -24  -6    0.72    0.30
  -6 -24   6    0.37    0.28
   6 -24  -5    0.22    0.22
  -6 -24   5    0.45    0.28
  -6 -24   4    0.29    0.28
   6 -24  -4   -0.05    0.22
   6 -24  -3    0.69    0.30
  -6 -24   3    1.23    0.39
   6 -24  -2    1.91    0.40
  -6 -24   2    1.63    0.42
  -6 -24   1    0.83    0.38
  -6 -24   0   -0.08    0.21
  -6 -24  -1    0.54    0.28
  -6 -24  -2    0.83    0.36
  -6 -24  -3    0.88    0.38
   6 -26  -6    0.32    0.31
  -6 -26   5    1.18    0.42
   6 -26  -5    0.38    0.28
  -6 -26   4   -0.37    0.32
   6 -26  -4    0.11    0.23
  -6 -26   3    0.20    0.29
   7  -1 -25    0.43    0.30
   7   1 -25    0.36    0.24
   7  -1 -24    0.24    0.19
   7   1 -24    0.34    0.19
   7  -1 -23    4.25    0.61
   7   1 -23    4.64    0.61
   7  -1 -22    1.49    0.36
   7   1 -22    0.69    0.24
   7  -1 -21    0.59    0.26
   7   1 -21    0.76    0.27
   7  -1 -20    3.86    0.50
   7   1 -20    3.85    0.51
   7  -1 -19    9.92    0.78
   7   1 -19    9.78    0.79
   7  -1 -18    6.26    0.59
   7   1 -18    5.29    0.56
   7   1 -17   19.43    1.07
   7  -1 -17   20.28    1.08
   7  -1 -16    1.80    0.32
   7   1 -16    1.74    0.34
   7  -1 -15    2.60    0.38
   7   1 -15    2.94    0.39
   7  -1 -14    7.43    0.57
   7   1 -14    7.64    0.60
  -7  -1  14    6.17    0.34
   7  -1 -13    9.36    0.63
   7   1 -13    9.72    0.65
  -7  -1  13   10.41    0.46
   7   1 -12    8.46    0.59
  -7  -1  12    8.24    0.42
  -7  -1  11    3.03    0.25
   7  -1 -11    2.48    0.30
   7   1 -11    3.02    0.34
   7  -1 -10    5.23    0.42
   7   1 -10    5.24    0.44
  -7  -1  10    6.07    0.37
   7   1  -9   45.68    1.45
   7  -1  -9   46.04    1.41
   7  -1  -9   45.27    1.26
  -7  -1   9   44.62    1.30
  -7  -1   8    7.51    0.43
   7  -1  -8    7.27    0.46
   7  -1  -8    7.35    0.41
   7   1  -8    7.03    0.48
   7  -1  -7    2.63    0.26
   7  -1  -7    2.78    0.29
   7  -1  -6    3.14    0.29
   7   1  -6    3.76    0.32
   7   1  -5   26.71    0.96
   7  -1  -5   26.52    0.94
   7  -1  -4    6.35    0.42
   7   1  -4    6.18    0.42
   7  -1  -3   16.26    0.72
   7   1  -3   16.43    0.73
   7  -1  -2    5.23    0.40
  -7  -1   2    5.31    0.40
   7   1  -2    5.24    0.41
  -7  -1   1    4.77    0.39
  -7  -1   0    7.42    0.48
  -7   1  -1   57.27    1.58
  -7  -1  -1   52.66    1.60
  -7  -1  -2    1.14    0.21
  -7   1  -2    1.30    0.21
  -7  -1  -3    1.19    0.21
  -7   1  -3    1.18    0.20
  -7   1  -4   14.69    0.67
  -7  -1  -4   14.89    0.70
   7   1   5   23.84    1.05
  -7   1  -5   24.57    0.91
  -7  -1  -5   24.84    0.96
   7  -1   6    8.94    0.62
   7   1   6   10.02    0.66
  -7   1  -6    9.38    0.52
  -7  -1  -6   10.85    0.59
   7  -1   7    8.77    0.64
  -7   1  -7    7.95    0.47
  -7  -1  -7    8.49    0.53
   7   1   7    8.90    0.63
   7   1   8   13.84    0.82
   7  -1   8   14.06    0.83
  -7   1  -8   14.62    0.66
  -7  -1  -8   14.15    0.71
  -7   1  -9    0.99    0.18
  -7  -1  -9    1.12    0.23
   7  -1   9    1.97    0.33
   7   1   9    1.84    0.30
  -7   1 -10   10.92    0.56
   7  -1  10   10.27    0.72
  -7  -1 -10   10.21    0.60
   7  -1  11   13.35    0.85
   7   1  11   12.15    0.81
  -7   1 -11   14.04    0.66
  -7  -1 -11   13.35    0.70
   7   1  12    5.06    0.52
  -7   1 -12    4.34    0.35
   7  -1  12    4.38    0.49
  -7  -1 -12    4.83    0.42
  -7   1 -13    1.42    0.23
   7  -1  13    1.64    0.35
  -7  -1 -13    1.75    0.26
   7   1  13    0.83    0.26
   7  -1  14    1.18    0.31
  -7  -1 -14    0.93    0.21
   7   1  14    1.24    0.27
   7  -1  15    1.96    0.37
   7   1  15    1.43    0.32
   7   1  16    3.46    0.47
   7  -1  16    3.51    0.47
   7  -1  17    1.85    0.35
   7   1  17    0.67    0.23
   7  -1  18    0.94    0.30
   7   1  18    1.44    0.34
   7   1  19    2.76    0.44
   7  -1  19    2.99    0.46
   7  -3 -26    3.11    0.55
   7   3 -25    0.23    0.25
   7  -3 -25    0.34    0.26
   7   3 -24    0.15    0.24
   7  -3 -24    0.48    0.27
   7  -3 -23    0.44    0.28
   7   3 -23   -0.14    0.27
   7  -3 -22    2.34    0.44
   7   3 -22    2.12    0.42
   7  -3 -21   -0.12    0.17
   7   3 -21    0.22    0.18
   7  -3 -20    6.64    0.65
   7   3 -20    5.55    0.62
   7  -3 -19    1.09    0.29
   7   3 -19    1.33    0.33
   7  -3 -18    2.79    0.40
   7   3 -18    2.70    0.43
   7  -3 -17    0.44    0.20
   7   3 -17    0.53    0.26
   7   3 -16    7.86    0.65
   7  -3 -16    7.48    0.60
   7   3 -15    9.86    0.72
   7  -3 -15   10.01    0.67
   7  -3 -14    2.26    0.33
  -7  -3  14    2.84    0.27
   7   3 -14    2.55    0.36
   7  -3 -13   11.88    0.70
   7   3 -13   13.16    0.77
   7  -3 -12    1.08    0.25
   7   3 -12    0.59    0.20
   7  -3 -11    2.20    0.30
   7   3 -11    2.16    0.31
   7  -3 -10   19.35    0.82
   7   3 -10   19.12    0.89
   7  -3 -10   19.59    0.67
   7  -3  -9    6.76    0.44
   7  -3  -9    6.78    0.38
   7   3  -9    7.15    0.51
   7  -3  -8    1.52    0.19
   7  -3  -8    1.95    0.24
   7  -3  -7    4.28    0.32
   7  -3  -7    4.17    0.32
   7  -3  -6   48.21    1.32
   7  -3  -6   45.29    1.35
   7  -3  -5    2.08    0.24
  -7  -3   5    2.36    0.30
   7   3  -4   20.22    0.84
   7  -3  -4   19.33    0.80
  -7  -3   4   21.42    0.90
   7   3  -3    1.23    0.23
   7  -3  -3    1.14    0.20
  -7  -3   3    1.03    0.21
   7  -3  -2   22.67    0.91
  -7  -3   2   22.73    0.94
  -7  -3   1    4.01    0.37
  -7  -3   0   33.59    1.18
  -7  -3  -1   38.32    1.30
  -7  -3  -2    0.25    0.14
  -7  -3  -3   21.97    0.93
  -7  -3  -4   15.45    0.77
  -7  -3  -5    0.50    0.16
   7   3   5    0.74    0.21
  -7  -3  -6    1.55    0.25
   7   3   6    1.26    0.25
   7   3   7    0.20    0.17
  -7  -3  -7    0.57    0.18
  -7  -3  -8   17.61    0.84
   7   3   8   17.62    0.92
  -7   3  -8   17.13    0.67
   7  -3   8   16.31    0.67
   7  -3   9    2.52    0.26
   7   3   9    2.63    0.37
  -7  -3  -9    2.71    0.35
  -7   3  -9    2.60    0.26
   7   3  10   -0.29    0.22
   7  -3  10    0.14    0.13
  -7  -3 -10   -0.07    0.17
  -7   3 -10    0.02    0.09
   7   3  11    1.27    0.30
   7  -3  11    1.39    0.33
  -7  -3 -11    1.72    0.31
  -7   3 -11    1.27    0.18
  -7  -3 -12   17.09    0.86
   7  -3  12   18.39    1.03
   7   3  12   17.25    0.96
   7   3  13   -0.01    0.18
   7  -3  13    0.13    0.19
  -7  -3 -13    0.25    0.15
  -7  -3 -14    4.39    0.45
   7   3  14    4.70    0.51
   7  -3  14    3.79    0.47
   7   3  15    0.13    0.21
   7  -3  15    0.14    0.20
  -7  -3 -15    0.08    0.15
   7  -3  16   15.37    1.00
   7   3  16   15.41    0.96
   7  -3  17    0.34    0.21
   7   3  17    0.40    0.22
   7  -3  18    3.44    0.49
   7   3  18    3.37    0.48
   7  -3  19    0.18    0.20
   7  -3  20    0.53    0.26
   7  -5 -26    0.96    0.31
   7   5 -25    0.76    0.36
   7  -5 -25    1.34    0.37
   7   5 -24   -0.05    0.24
   7  -5 -24   -0.03    0.18
   7   5 -23    2.63    0.49
   7  -5 -23    2.47    0.44
   7   5 -22    0.28    0.20
   7  -5 -22    0.60    0.27
   7  -5 -21    5.23    0.59
   7   5 -21    5.19    0.63
   7  -5 -20    1.92    0.37
   7   5 -20    1.74    0.39
   7  -5 -19    1.71    0.35
   7   5 -19    1.86    0.39
   7  -5 -18    0.74    0.27
   7   5 -18    0.81    0.30
   7  -5 -17    2.22    0.36
   7   5 -17    2.32    0.42
   7  -5 -16    3.64    0.41
   7   5 -16    3.23    0.44
   7   5 -15    9.41    0.72
   7  -5 -15    9.12    0.65
   7   5 -14    4.04    0.45
   7  -5 -14    4.37    0.42
   7   5 -13    4.16    0.45
   7  -5 -13    3.82    0.38
   7  -5 -12    3.83    0.37
   7   5 -12    4.18    0.45
   7  -5 -12    4.23    0.24
   7  -5 -11    3.24    0.34
   7  -5 -11    2.80    0.22
   7   5 -11    3.19    0.39
   7  -5 -10    3.99    0.34
   7  -5 -10    3.87    0.27
   7   5 -10    4.29    0.43
   7  -5  -9   23.48    0.81
   7  -5  -9   24.49    0.88
   7   5  -9   24.32    1.03
   7  -5  -8   14.46    0.62
   7  -5  -8   13.98    0.61
   7  -5  -7   30.57    0.96
  -7  -5   7   30.26    1.15
   7  -5  -6    6.04    0.35
  -7  -5   6    6.28    0.48
   7  -5  -5    2.52    0.22
  -7  -5   5    1.95    0.27
  -7  -5   4    0.90    0.22
  -7  -5   3    4.30    0.40
  -7  -5   2   31.81    1.19
  -7  -5   1    5.88    0.46
  -7  -5   0   29.36    1.14
   7  -5   1   16.18    0.63
  -7  -5  -1   16.18    0.81
   7  -5   2    4.95    0.33
  -7  -5  -2    4.85    0.43
  -7  -5  -3    2.68    0.33
  -7  -5  -4    6.37    0.50
   7   5   4    6.25    0.53
   7  -5   5   15.25    0.63
  -7  -5  -5   15.77    0.81
   7   5   5   14.50    0.80
   7  -5   6    2.26    0.24
   7   5   6    2.38    0.36
  -7  -5  -6    2.15    0.33
  -7  -5  -7   14.12    0.78
   7   5   7   15.47    0.85
   7  -5   7   14.49    0.59
  -7  -5  -8    4.46    0.45
   7   5   8    5.53    0.51
   7  -5   8    4.36    0.29
   7  -5   9    0.28    0.11
   7   5   9    0.21    0.21
  -7  -5  -9    0.60    0.20
   7   5  10    3.84    0.45
  -7  -5 -10    3.29    0.40
  -7  -5 -11   10.37    0.70
   7   5  11    9.53    0.71
  -7  -5 -12    8.97    0.67
   7   5  12    9.57    0.72
  -7  -5 -13    8.34    0.65
   7   5  13    9.65    0.72
  -7   5 -13    8.19    0.68
   7   5  14    2.97    0.43
  -7   5 -14    2.59    0.40
  -7  -5 -14    2.82    0.38
   7   5  15    3.03    0.44
  -7   5 -15    2.20    0.41
  -7  -5 -15    2.84    0.42
   7   5  16    4.04    0.50
   7  -5  16    3.34    0.49
  -7   5 -16    4.05    0.53
  -7  -5 -16    3.64    0.44
   7  -5  17    2.62    0.45
   7   5  17    2.65    0.43
  -7   5 -17    3.44    0.50
   7  -5  18    0.31    0.21
   7   5  18    0.06    0.19
  -7   5 -18    0.26    0.19
   7  -5  19    1.92    0.40
  -7   5 -19    2.67    0.49
   7  -5  20   -0.12    0.24
  -7   5 -20    0.43    0.28
  -7   5 -21    0.26    0.24
   7  -7 -26    0.55    0.27
   7  -7 -25    0.29    0.26
   7   7 -24    0.36    0.25
   7  -7 -24   -0.05    0.20
   7   7 -23    6.03    0.73
   7  -7 -23    7.41    0.74
   7   7 -22    2.24    0.46
   7  -7 -22    2.05    0.37
   7   7 -21    3.33    0.54
   7  -7 -21    3.00    0.45
   7   7 -20    2.43    0.44
   7  -7 -20    1.36    0.30
   7   7 -19    0.52    0.25
   7  -7 -19    0.31    0.20
   7   7 -18    7.70    0.71
   7  -7 -18    8.05    0.66
   7  -7 -17    0.67    0.22
   7   7 -17    0.15    0.19
   7  -7 -16    0.92    0.25
   7   7 -16    1.41    0.34
   7   7 -15    7.45    0.63
   7  -7 -15    7.56    0.58
   7   7 -14    3.32    0.40
   7  -7 -14    3.15    0.36
   7   7 -13   12.37    0.78
   7  -7 -13   10.95    0.40
   7  -7 -13   11.83    0.67
   7  -7 -12    4.54    0.27
   7   7 -12    4.26    0.45
   7  -7 -12    4.84    0.40
   7  -7 -11    0.86    0.18
   7  -7 -11    0.64    0.12
   7   7 -11    0.91    0.27
   7  -7 -10    1.17    0.19
   7   7 -10    1.22    0.29
   7  -7  -9    7.54    0.44
   7   7  -9    7.98    0.59
   7  -7  -8    4.92    0.33
  -7  -7   8    4.86    0.43
   7  -7  -7   10.13    0.46
  -7  -7   7   10.80    0.67
   7  -7  -6   18.24    0.62
  -7  -7   6   18.27    0.87
  -7  -7   5    0.11    0.15
   7  -7  -5    0.04    0.08
  -7  -7   4   17.08    0.84
   7  -7  -4   17.64    0.56
  -7  -7   3    9.65    0.62
  -7  -7   2   16.51    0.84
   7  -7  -1    5.36    0.28
  -7  -7   1    4.51    0.44
   7  -7   0    3.42    0.22
  -7  -7   0    3.17    0.37
  -7  -7  -1   22.02    1.02
   7  -7   1   23.09    0.74
  -7  -7  -2    5.62    0.50
   7  -7   2    5.14    0.31
  -7  -7  -3    9.28    0.64
   7  -7   3    9.47    0.47
  -7  -7  -4   20.30    0.98
  -7  -7  -5   31.49    1.28
   7  -7   5   31.15    0.99
  -7  -7  -6   20.78    1.02
   7  -7   6   21.06    0.74
   7  -7   7   12.61    0.52
  -7  -7  -7   12.86    0.79
  -7  -7  -8    5.11    0.52
   7  -7   8    5.24    0.31
   7   7   9    4.48    0.50
  -7  -7  -9    3.09    0.42
   7   7  10    3.55    0.45
  -7  -7 -10    4.28    0.48
   7   7  11    3.91    0.46
  -7   7 -11    4.85    0.48
  -7  -7 -11    3.54    0.44
  -7  -7 -12    1.92    0.35
  -7   7 -12    1.64    0.31
  -7  -7 -13    0.19    0.21
  -7   7 -13    0.12    0.15
  -7  -7 -14   10.38    0.78
  -7   7 -14    9.88    0.76
  -7  -7 -15    6.35    0.62
  -7   7 -15    5.51    0.59
  -7   7 -16    0.21    0.19
  -7  -7 -16    0.54    0.28
  -7   7 -17    1.17    0.32
  -7  -7 -17    0.89    0.31
  -7   7 -18    0.60    0.30
   7  -7  19    0.29    0.23
  -7   7 -19    0.82    0.29
   7  -7  20    1.72    0.41
  -7   7 -20    1.32    0.35
  -7   7 -21    0.65    0.29
   7  -7  21   -0.20    0.32
   7  -9 -26    0.46    0.20
   7  -9 -25    0.34    0.26
   7  -9 -24    2.21    0.43
   7   9 -23    0.83    0.28
   7  -9 -23    1.36    0.34
   7   9 -22    0.08    0.20
   7  -9 -22    0.71    0.29
   7   9 -21    1.33    0.35
   7  -9 -21    1.39    0.30
   7   9 -20    3.61    0.55
   7  -9 -20    2.71    0.40
   7   9 -19    0.18    0.17
   7  -9 -19    0.30    0.18
   7   9 -18    0.98    0.29
   7  -9 -18    1.06    0.25
   7   9 -17    1.38    0.35
   7  -9 -17    1.45    0.29
   7   9 -16    0.08    0.21
   7  -9 -16    0.42    0.15
   7   9 -15    5.81    0.57
   7  -9 -15    5.80    0.49
   7   9 -14    3.50    0.45
   7  -9 -14    3.71    0.38
   7  -9 -13    0.14    0.13
   7  -9 -13    0.14    0.08
   7   9 -13    0.00    0.23
   7   9 -12    5.61    0.55
   7  -9 -12    5.76    0.43
   7  -9 -11    1.39    0.21
   7   9 -11    1.61    0.35
  -7  -9  10    3.91    0.40
   7  -9 -10    3.56    0.30
   7   9 -10    4.01    0.46
   7  -9  -9    1.16    0.17
   7   9  -9    1.57    0.32
  -7  -9   9    0.99    0.27
  -7  -9   8   16.17    0.86
   7  -9  -8   16.77    0.62
  -7  -9   7   10.83    0.69
   7  -9  -7   11.53    0.46
  -7  -9   6   27.08    1.13
   7  -9  -6   25.80    0.74
  -7  -9   5   21.11    1.00
   7  -9  -5   21.32    0.60
   7  -9  -4    1.51    0.11
  -7  -9   4    1.49    0.28
   7  -9  -3    4.22    0.18
  -7  -9   3    4.56    0.46
   7  -9  -2   13.27    0.38
   7  -9  -2   14.61    0.40
  -7  -9   2   13.67    0.80
  -7  -9   1    6.63    0.55
   7  -9  -1    5.38    0.22
  -7  -9   0    6.16    0.53
   7  -9   0    5.74    0.25
  -7  -9  -1    4.26    0.45
   7  -9   1    4.23    0.23
  -7  -9  -2   11.61    0.75
   7  -9   2   11.42    0.45
  -7  -9  -3    2.65    0.36
   7  -9   3    3.34    0.25
   7  -9   4   -0.01    0.09
  -7  -9  -4    0.07    0.18
   7  -9   5    2.47    0.24
  -7  -9  -5    3.35    0.41
   7  -9   6    0.39    0.12
  -7  -9  -6    1.07    0.28
  -7  -9  -7   26.49    1.24
  -7  -9  -8   10.40    0.77
  -7  -9  -9    1.38    0.30
  -7  -9 -10    1.82    0.36
  -7   9 -10    1.55    0.27
  -7  -9 -11    0.39    0.23
  -7   9 -11    0.46    0.18
  -7  -9 -12    1.58    0.35
  -7   9 -12    1.74    0.31
  -7  -9 -13    1.14    0.32
  -7   9 -13    1.50    0.30
  -7  -9 -14    5.86    0.63
  -7   9 -14    5.39    0.56
  -7  -9 -15    1.82    0.39
  -7   9 -15    1.01    0.29
  -7  -9 -16    2.56    0.42
  -7   9 -16    2.31    0.40
  -7  -9 -17    0.67    0.28
  -7   9 -17    0.49    0.22
  -7  -9 -18    2.13    0.41
  -7   9 -18    1.77    0.38
  -7   9 -19    0.57    0.23
  -7   9 -20    0.53    0.29
  -7   9 -21    0.09    0.25
   7 -11 -24    0.52    0.25
   7  11 -23    1.16    0.38
   7 -11 -23    1.52    0.34
   7  11 -22   -0.10    0.25
   7 -11 -22    0.10    0.17
   7  11 -21    2.65    0.49
   7 -11 -21    3.55    0.48
   7  11 -20   -0.03    0.25
   7 -11 -20    0.01    0.15
   7  11 -19    1.63    0.39
   7 -11 -19    2.11    0.35
   7  11 -18    1.61    0.39
   7 -11 -18    1.55    0.31
   7  11 -17    2.51    0.44
   7 -11 -17    1.81    0.29
   7  11 -16    0.56    0.23
   7 -11 -16    0.87    0.21
   7  11 -15    0.92    0.24
   7 -11 -15    1.34    0.24
   7  11 -14    2.19    0.38
   7 -11 -14    2.72    0.32
   7  11 -13    4.90    0.53
   7 -11 -13    6.02    0.45
   7  11 -12    3.83    0.47
   7 -11 -12    3.81    0.34
   7  11 -11    9.89    0.72
  -7 -11  11    9.10    0.67
   7 -11 -11   10.05    0.53
   7  11 -10    5.34    0.52
  -7 -11  10    4.49    0.47
   7 -11 -10    4.80    0.33
   7  11  -9    8.42    0.66
   7 -11  -9    8.80    0.42
  -7 -11   9    7.96    0.60
   7 -11  -8    3.29    0.23
  -7 -11   8    3.69    0.41
   7 -11  -7   10.44    0.39
  -7 -11   7   11.72    0.73
  -7 -11   6    1.12    0.29
   7 -11  -6    1.33    0.10
  -7 -11   5   27.72    1.21
  -7 -11   4    3.82    0.44
  -7 -11   3    2.21    0.36
  -7 -11   2    3.81    0.46
  -7 -11   1   14.99    0.88
  -7 -11   0    2.17    0.38
   7 -11   1    0.28    0.05
  -7 -11  -1    0.23    0.22
   7 -11   2    3.11    0.18
  -7 -11  -2    2.84    0.40
   7 -11   3    2.56    0.19
  -7 -11  -3    1.77    0.35
   7 -11   4    0.27    0.10
  -7 -11  -4    0.36    0.24
  -7 -11  -5    0.72    0.27
  -7 -11  -6   11.39    0.82
  -7 -11  -7    5.25    0.59
  -7 -11  -8    7.51    0.68
  -7 -11  -9    6.11    0.62
  -7 -11 -10    2.65    0.45
  -7  11 -10    2.81    0.34
  -7 -11 -11    2.57    0.42
  -7  11 -11    2.48    0.34
  -7 -11 -12    1.52    0.36
  -7  11 -12    1.21    0.26
  -7 -11 -13    2.87    0.46
  -7  11 -13    2.94    0.39
  -7 -11 -14    1.27    0.37
  -7  11 -14    0.86    0.22
  -7 -11 -15    3.27    0.52
  -7  11 -15    2.33    0.38
  -7 -11 -16    0.23    0.25
  -7  11 -16    0.17    0.16
  -7 -11 -17    2.61    0.46
  -7  11 -17    2.32    0.42
  -7 -11 -18    0.70    0.30
  -7  11 -18    0.84    0.24
   7  13 -22    2.24    0.48
   7  13 -21    2.09    0.44
   7  13 -20   -0.25    0.23
   7  13 -19    0.42    0.29
   7  13 -18    6.06    0.68
   7  13 -17    2.93    0.49
   7  13 -16    3.27    0.48
   7  13 -15    0.61    0.24
   7  13 -14    0.18    0.22
   7 -13 -14    0.26    0.13
   7  13 -13    0.95    0.27
   7 -13 -13    1.45    0.22
   7  13 -12    4.22    0.51
   7 -13 -12    4.41    0.35
  -7 -13  12    4.61    0.48
   7  13 -11    0.32    0.24
   7 -13 -11    0.18    0.10
  -7 -13  11    0.36    0.20
  -7 -13  10    2.12    0.34
   7  13 -10    2.20    0.40
   7 -13 -10    2.24    0.20
  -7 -13   9    2.45    0.36
   7 -13  -9    2.96    0.22
   7  13  -9    2.67    0.39
  -7 -13   8    1.20    0.27
  -7 -13   7    9.88    0.71
  -7 -13   6    3.14    0.42
  -7 -13   5    3.51    0.44
  -7 -13   4    0.53    0.23
  -7 -13   3   10.69    0.78
  -7 -13   2   16.01    0.95
  -7 -13   1    7.85    0.66
  -7 -13   0    4.93    0.52
  -7 -13  -1    0.75    0.26
  -7 -13  -2    6.86    0.65
  -7 -13  -3    4.68    0.56
  -7 -13  -4    2.10    0.39
  -7 -13  -5   10.80    0.82
  -7 -13  -6    9.96    0.81
  -7 -13  -7    3.32    0.49
  -7 -13  -8    2.81    0.44
  -7 -13  -9    1.64    0.35
  -7 -13 -10    8.33    0.76
  -7 -13 -11    4.09    0.58
  -7 -13 -12    1.51    0.39
  -7 -13 -13    0.75    0.34
  -7 -13 -14    2.36    0.46
  -7 -13 -15    1.20    0.38
  -7 -13 -16   -0.19    0.23
  -7 -13 -17    1.12    0.37
  -7 -13 -18    0.23    0.26
  -7 -13 -19    0.75    0.30
   7  15 -21    1.06    0.36
   7  15 -20    0.14    0.21
   7  15 -19    3.01    0.53
   7  15 -18    0.75    0.29
   7  15 -17    2.27    0.44
   7  15 -16    0.28    0.26
   7  15 -15    4.19    0.54
   7  15 -14   12.43    0.91
   7  15 -13    3.96    0.51
  -7 -15  13    4.11    0.46
   7  15 -12    3.90    0.50
  -7 -15  12    4.77    0.53
   7  15 -11    2.04    0.39
  -7 -15  11    1.71    0.32
  -7 -15  10    0.24    0.17
   7  15 -10    0.41    0.21
  -7 -15   9    1.16    0.30
   7  15  -9    1.27    0.33
  -7 -15   8    1.15    0.29
  -7 -15   7    3.54    0.48
  -7 -15   6    3.38    0.45
  -7 -15   5   16.84    1.00
  -7 -15   4    3.97    0.50
  -7 -15   3   21.55    1.17
  -7 -15   2    8.83    0.74
  -7 -15   1   12.07    0.87
  -7 -15   0    3.85    0.49
  -7 -15  -1    2.30    0.41
  -7 -15  -2    3.17    0.49
  -7 -15  -3   14.00    0.97
  -7 -15  -4   11.99    0.91
  -7 -15  -5    0.99    0.34
  -7 -15  -6    2.22    0.42
  -7 -15  -7    1.69    0.36
  -7 -15  -8    0.84    0.29
  -7 -15  -9    0.32    0.28
  -7 -15 -10    1.32    0.38
  -7 -15 -11    0.74    0.29
  -7 -15 -12    2.43    0.46
  -7 -15 -13    0.30    0.21
  -7 -15 -14    1.44    0.42
  -7 -15 -15    0.61    0.30
  -7 -15 -16    1.19    0.38
  -7 -15 -17    4.97    0.69
  -7 -15 -18   -0.17    0.26
   7  17 -20    1.13    0.37
   7  17 -19    0.64    0.32
   7  17 -18    1.81    0.42
   7  17 -17    1.24    0.37
   7  17 -16    0.56    0.27
   7  17 -15    0.45    0.24
   7  17 -14    0.27    0.21
   7  17 -13    4.32    0.56
  -7 -17  13    4.82    0.52
   7  17 -12    2.05    0.41
  -7 -17  12    2.10    0.38
   7  17 -11   12.95    0.92
  -7 -17  11   11.17    0.82
  -7 -17  10    2.52    0.41
   7  17 -10    2.33    0.42
  -7 -17   9    0.80    0.25
   7  17  -9    0.66    0.31
  -7 -17   8    5.74    0.60
  -7 -17   7    1.83    0.36
  -7 -17   6    1.21    0.31
  -7 -17   5    5.64    0.59
  -7 -17   4    1.30    0.35
  -7 -17   3    3.19    0.46
  -7 -17   2    1.98    0.38
  -7 -17   1    7.30    0.72
  -7 -17   0    3.24    0.52
  -7 -17  -1    0.12    0.18
  -7 -17  -2    3.21    0.50
  -7 -17  -3    5.08    0.62
  -7 -17  -4    2.36    0.45
  -7 -17  -5    3.55    0.53
  -7 -17  -6    0.38    0.27
  -7 -17  -7    7.13    0.75
  -7 -17  -8    0.39    0.29
  -7 -17  -9    3.22    0.56
  -7 -17 -10    3.23    0.55
  -7 -17 -11    0.36    0.27
  -7 -17 -12    0.97    0.38
  -7 -17 -13    4.89    0.69
  -7 -17 -14    0.01    0.28
  -7 -17 -15    0.99    0.39
   7  19 -18    2.42    0.50
   7  19 -17   -0.27    0.23
   7  19 -16    0.82    0.32
   7  19 -15    0.03    0.28
   7  19 -14    5.30    0.65
   7  19 -13    2.42    0.44
   7  19 -12    3.95    0.55
  -7 -19  12    4.15    0.52
  -7 -19  11    0.29    0.23
   7  19 -11    0.16    0.27
  -7 -19  10    1.44    0.32
   7  19 -10    0.98    0.32
  -7 -19   9   -0.04    0.21
   7  19  -9    0.61    0.33
   7  19  -8    5.29    0.60
  -7 -19   8    5.29    0.59
  -7 -19   7    0.40    0.25
  -7 -19   6    2.07    0.41
  -7 -19   5    0.19    0.18
  -7 -19   4    6.11    0.66
  -7 -19   3    0.88    0.30
  -7 -19   2    8.42    0.79
  -7 -19   1    2.04    0.44
  -7 -19   0    3.11    0.50
  -7 -19  -1    0.09    0.21
  -7 -19  -2    2.50    0.46
  -7 -19  -3    0.38    0.26
  -7 -19  -4    1.97    0.47
  -7 -19  -5   -0.12    0.21
  -7 -19  -6    2.66    0.50
  -7 -19  -7    0.00    0.27
  -7 -19  -8    0.13    0.27
  -7 -19  -9    0.28    0.30
  -7 -19 -10    3.81    0.63
  -7 -19 -11    0.47    0.32
  -7 -19 -12    1.32    0.44
   7  21 -17    0.34    0.29
   7  21 -16    2.55    0.51
   7  21 -15    1.19    0.35
   7  21 -14    2.88    0.49
   7  21 -13    0.49    0.28
   7  21 -12    0.32    0.25
   7  21 -11    4.88    0.61
  -7 -21  10    0.09    0.26
   7  21 -10   -0.15    0.22
  -7 -21   9    0.12    0.22
   7  21  -9    0.61    0.30
  -7 -21   8    2.00    0.41
   7  21  -8    1.49    0.37
  -7 -21   7    0.32    0.19
   7  21  -7    0.95    0.33
  -7 -21   6    0.10    0.24
  -7 -21   5    1.27    0.36
  -7 -21   4    2.31    0.44
  -7 -21   3    0.52    0.28
  -7 -21   2    0.79    0.33
  -7 -21   1    3.34    0.55
  -7 -21   0    2.28    0.46
  -7 -21  -1    0.24    0.30
  -7 -21  -2    3.10    0.53
  -7 -21  -3    1.72    0.41
  -7 -21  -4    0.08    0.24
  -7 -21  -5    0.53    0.36
  -7 -21  -6    1.22    0.41
  -7 -21  -7    0.22    0.25
  -7 -21  -8    0.29    0.31
   7  23 -15    2.62    0.50
   7  23 -14    0.08    0.28
   7  23 -13    0.09    0.25
   7  23 -12    1.08    0.36
   7  23 -11    0.94    0.31
   7  23 -10    0.50    0.33
  -7 -23   9    1.00    0.32
   7  23  -9    0.50    0.28
  -7 -23   8    0.12    0.22
   7  23  -8    0.64    0.30
  -7 -23   7    1.87    0.43
   7  23  -7    2.37    0.47
  -7 -23   6    0.36    0.19
  -7 -23   5    2.17    0.47
  -7 -23   4    0.45    0.29
   7 -23  -3    0.94    0.33
  -7 -23   3    0.46    0.31
  -7 -23   2    0.36    0.29
   7 -23  -2    0.33    0.23
  -7 -23   1    4.01    0.61
  -7 -23   0    0.99    0.35
  -7 -23  -1    0.41    0.28
  -7 -23  -2    2.00    0.47
  -7 -23  -3   -0.02    0.21
  -7 -23  -4    0.43    0.31
  -7 -25   7    2.28    0.45
   7 -25  -7    2.16    0.48
   7 -25  -6    1.35    0.43
  -7 -25   6    0.86    0.30
   7 -25  -5    0.80    0.33
  -7 -25   5    0.67    0.26
  -7 -25   4    0.16    0.29
   7 -25  -4   -0.31    0.31
  -7 -25   3    0.31    0.25
  -7 -25   2    0.55    0.27
   8   0 -25    0.18    0.24
   8   0 -24    1.19    0.34
   8   0 -23   -0.93    0.31
   8   0 -22    2.16    0.39
   8   0 -21   -0.09    0.25
   8   0 -20    7.89    0.73
   8   0 -19   -0.17    0.21
   8   0 -18    4.65    0.53
   8   0 -17    0.07    0.19
   8   0 -16   12.08    0.81
   8   0 -15    0.50    0.28
   8   0 -14   15.38    0.87
   8   0 -13   -0.28    0.26
   8   0 -12   41.65    1.47
   8   0 -11    0.11    0.15
   8   0 -10   18.11    0.85
   8   0  -9    0.12    0.17
   8   0  -8    5.14    0.42
   8   0  -8    5.45    0.39
   8   0  -7    0.09    0.12
   8   0  -6    7.83    0.49
   8   0  -5    0.01    0.13
   8   0  -4   29.76    1.10
   8   0  -3   -0.03    0.16
   8   0  -2   38.34    1.33
   8   0  -1    0.02    0.15
  -8   0   0    6.69    0.47
  -8   0  -1    0.20    0.15
  -8   0  -2   35.86    1.25
  -8   0  -3   -0.12    0.11
   8   0   4    3.54    0.40
  -8   0  -4    3.66    0.36
  -8   0  -5   -0.04    0.13
   8   0   5   -0.14    0.20
  -8   0  -6    2.46    0.30
   8   0   6    2.62    0.37
  -8   0  -7    0.12    0.14
   8   0   7   -0.12    0.20
  -8   0  -8    2.24    0.28
   8   0   8    2.29    0.37
  -8   0  -9   -0.14    0.13
   8   0   9   -0.15    0.20
   8   0  10   11.18    0.79
  -8   0 -10   11.98    0.65
  -8   0 -11    0.00    0.13
   8   0  11    0.10    0.19
   8   0  12    5.98    0.60
  -8   0 -12    6.50    0.48
  -8   0 -13    0.16    0.14
   8   0  13    0.02    0.19
   8   0  14    0.21    0.22
   8   0  15    0.04    0.21
   8   0  16    2.69    0.44
   8   0  17   -0.06    0.21
   8   0  18    5.98    0.66
   8   0  19    0.11    0.21
   8  -2 -25    0.76    0.28
   8   2 -25    0.70    0.37
   8  -2 -24    0.25    0.18
   8   2 -24   -0.05    0.26
   8  -2 -23    1.68    0.42
   8   2 -23    1.77    0.38
   8  -2 -22    2.09    0.42
   8   2 -22    1.58    0.37
   8  -2 -21    0.91    0.30
   8   2 -21    1.11    0.32
   8  -2 -20    0.89    0.28
   8   2 -20    1.34    0.34
   8  -2 -19    2.89    0.44
   8   2 -19    2.90    0.43
   8  -2 -18    0.17    0.18
   8   2 -18    0.92    0.28
   8   2 -17    6.38    0.61
   8  -2 -17    5.94    0.57
   8  -2 -16   11.43    0.77
   8   2 -16   11.67    0.81
   8  -2 -15   33.10    1.35
   8   2 -15   32.82    1.40
   8  -2 -14    1.74    0.32
   8   2 -14    1.64    0.28
   8  -2 -13    2.13    0.32
   8   2 -13    1.56    0.29
   8  -2 -12   10.13    0.63
   8   2 -12    8.61    0.62
   8  -2 -11   11.14    0.64
   8   2 -11   11.29    0.69
   8  -2 -10    0.85    0.20
   8  -2 -10    1.24    0.19
   8   2 -10    1.48    0.26
   8  -2  -9   33.91    1.16
   8   2  -9   32.40    1.21
   8  -2  -9   31.45    1.04
   8  -2  -8    1.58    0.21
   8  -2  -8    2.12    0.28
   8  -2  -7    5.14    0.38
   8  -2  -7    4.84    0.39
   8  -2  -6    8.67    0.51
   8   2  -6    8.70    0.54
   8  -2  -5    8.26    0.51
   8   2  -5    8.47    0.53
   8   2  -4    5.42    0.44
   8  -2  -4    5.97    0.45
   8   2  -3    0.45    0.18
   8  -2  -3    0.51    0.18
  -8  -2   3    0.76    0.21
   8  -2  -2   35.70    1.27
   8   2  -2   35.66    1.29
  -8  -2   2   37.90    1.32
   8  -2  -1    6.72    0.51
  -8  -2   1    7.58    0.53
  -8  -2   0    7.93    0.54
  -8  -2  -1   18.17    0.85
  -8  -2  -2    8.17    0.55
  -8  -2  -3    0.43    0.19
   8  -2   4    9.20    0.65
   8   2   4    8.84    0.63
  -8  -2  -4    9.24    0.59
   8  -2   5   16.93    0.92
   8   2   5   17.52    0.93
  -8   2  -5   17.81    0.76
  -8  -2  -5   17.19    0.83
   8  -2   6    5.44    0.52
   8   2   6    3.94    0.45
  -8   2  -6    5.20    0.40
  -8  -2  -6    5.06    0.44
   8  -2   7    6.52    0.57
   8   2   7    6.40    0.56
  -8   2  -7    6.26    0.43
  -8  -2  -7    6.70    0.52
  -8  -2  -8    1.00    0.23
   8   2   8    1.17    0.28
   8  -2   8    0.99    0.26
  -8   2  -8    0.77    0.17
   8  -2   9    3.91    0.47
   8   2   9    3.28    0.42
  -8   2  -9    3.34    0.32
  -8  -2  -9    4.34    0.41
   8  -2  10    1.01    0.27
  -8  -2 -10    1.54    0.28
  -8   2 -10    1.10    0.19
   8  -2  11    0.82    0.28
   8   2  11    0.73    0.25
  -8   2 -11    0.70    0.19
  -8  -2 -11    1.09    0.25
   8   2  12    7.63    0.67
  -8   2 -12    7.74    0.49
   8  -2  12    9.12    0.74
  -8  -2 -12    8.83    0.60
   8  -2  13    7.34    0.67
   8   2  13    7.96    0.69
  -8  -2 -13    7.66    0.57
  -8  -2 -14    2.91    0.37
   8  -2  14    3.22    0.46
   8   2  14    3.19    0.47
   8  -2  15    4.00    0.53
   8   2  15    4.30    0.54
   8  -2  16    1.28    0.34
   8   2  16    1.39    0.33
   8  -2  17    0.41    0.24
   8   2  17    0.44    0.27
   8  -2  18    2.35    0.43
   8   2  18    2.73    0.46
   8  -2  19    2.42    0.44
   8   2  19    1.69    0.40
   8  -2  20   -0.04    0.27
   8  -4 -26    0.24    0.19
   8  -4 -25   -0.04    0.26
   8   4 -24    0.95    0.33
   8  -4 -24    0.25    0.25
   8  -4 -23    3.86    0.55
   8   4 -23    5.46    0.68
   8  -4 -22    0.39    0.22
   8   4 -22    0.43    0.28
   8  -4 -21    1.31    0.34
   8   4 -21    1.51    0.36
   8  -4 -20    2.38    0.41
   8   4 -20    2.50    0.44
   8  -4 -19    3.75    0.47
   8   4 -19    4.02    0.55
   8   4 -18    4.09    0.53
   8  -4 -18    4.73    0.51
   8   4 -17    8.05    0.70
   8  -4 -17    7.72    0.63
   8  -4 -16   -0.01    0.19
   8   4 -16    0.73    0.29
   8  -4 -15    2.61    0.36
   8   4 -15    2.84    0.41
   8  -4 -14    0.13    0.16
   8   4 -14    0.16    0.22
   8  -4 -13    3.82    0.39
   8   4 -13    3.51    0.41
   8  -4 -12    2.04    0.30
   8  -4 -12    2.37    0.21
   8   4 -12    1.88    0.34
   8  -4 -11    0.60    0.14
   8   4 -11    0.91    0.28
   8  -4 -10    0.82    0.18
   8  -4 -10    1.02    0.16
   8   4 -10    0.84    0.27
   8  -4  -9   21.03    0.83
   8  -4  -9   19.80    0.77
   8   4  -9   19.43    0.92
   8  -4  -8    7.58    0.46
   8  -4  -8    7.72    0.47
   8  -4  -7    1.33    0.21
   8  -4  -7    1.17    0.19
   8  -4  -6    4.55    0.37
   8  -4  -6    4.97    0.34
  -8  -4   6    4.00    0.40
   8  -4  -5   30.12    1.11
  -8  -4   5   31.14    1.20
   8  -4  -4    1.54    0.23
  -8  -4   4    1.97    0.29
   8  -4  -3    1.34    0.23
   8   4  -3    1.69    0.28
  -8  -4   3    2.08    0.30
   8   4  -2   12.08    0.69
  -8  -4   2   11.55    0.68
  -8  -4   1    4.50    0.42
  -8  -4   0    1.36    0.25
  -8  -4  -1   11.39    0.68
  -8  -4  -2    2.25    0.32
   8   4   3    4.39    0.46
  -8  -4  -3    5.23    0.47
   8   4   4   17.65    0.92
  -8  -4  -4   16.24    0.85
   8   4   5    9.68    0.69
  -8  -4  -5   10.93    0.68
   8   4   6    5.71    0.54
  -8  -4  -6    5.97    0.51
  -8  -4  -7    2.26    0.33
   8   4   7    2.20    0.37
  -8  -4  -8    3.80    0.41
   8   4   8    4.58    0.50
  -8  -4  -9   12.92    0.78
   8   4   9   13.00    0.85
   8   4  10    1.41    0.32
  -8  -4 -10    1.75    0.33
   8   4  11    0.99    0.28
  -8  -4 -11    1.36    0.29
   8  -4  11    1.08    0.31
  -8  -4 -12    0.90    0.23
   8  -4  12    0.48    0.25
   8   4  12    1.28    0.30
  -8  -4 -13    6.38    0.56
   8  -4  13    5.54    0.62
   8   4  13    6.67    0.63
  -8  -4 -14    6.04    0.55
   8  -4  14    7.36    0.71
   8   4  14    7.06    0.66
   8  -4  15    1.99    0.40
   8   4  15    1.60    0.36
  -8  -4 -15    1.91    0.33
   8  -4  16    1.73    0.38
   8   4  16    1.36    0.35
   8  -4  17    0.90    0.33
   8   4  17    1.02    0.32
   8  -4  18    1.17    0.38
   8   4  18    0.86    0.29
   8  -4  19    1.89    0.41
   8  -4  20    2.65    0.50
   8  -6 -26    2.84    0.53
   8  -6 -25    0.57    0.28
   8   6 -24   -0.25    0.28
   8  -6 -24   -0.29    0.29
   8   6 -23    0.76    0.29
   8  -6 -23    0.71    0.28
   8   6 -22    1.85    0.42
   8  -6 -22    1.56    0.36
   8  -6 -21    1.58    0.35
   8   6 -21    1.54    0.37
   8   6 -20    7.22    0.73
   8  -6 -20    7.16    0.67
   8  -6 -19    2.20    0.37
   8   6 -19    2.09    0.41
   8   6 -18    3.17    0.48
   8  -6 -18    3.81    0.46
   8  -6 -17    0.03    0.16
   8   6 -17   -0.03    0.18
   8   6 -16    4.78    0.57
   8  -6 -16    5.48    0.51
   8   6 -15   14.42    0.92
   8  -6 -15   16.37    0.87
   8   6 -14    6.20    0.58
   8  -6 -14    6.28    0.51
   8  -6 -13    0.58    0.20
   8  -6 -13    0.87    0.14
   8   6 -13    0.74    0.27
   8  -6 -12    3.44    0.36
   8  -6 -12    3.78    0.27
   8   6 -12    3.31    0.43
   8  -6 -11    1.26    0.23
   8   6 -11    1.47    0.32
   8  -6 -11    1.13    0.17
   8  -6 -10    0.65    0.17
   8  -6 -10    0.39    0.12
   8   6 -10    0.73    0.26
   8  -6  -9    4.20    0.34
   8  -6  -9    4.11    0.34
   8  -6  -8    8.97    0.48
   8  -6  -8    9.04    0.52
   8  -6  -7   10.43    0.50
  -8  -6   7    9.93    0.66
   8  -6  -6   12.09    0.52
  -8  -6   6   11.15    0.70
   8  -6  -5    5.91    0.34
  -8  -6   5    6.28    0.51
  -8  -6   4    2.91    0.36
  -8  -6   3    6.00    0.51
  -8  -6   2   29.50    1.20
  -8  -6   1    2.00    0.32
   8  -6   0    8.16    0.43
  -8  -6   0    9.13    0.63
   8  -6   1   23.07    0.82
  -8  -6  -1   23.80    1.07
   8   6   2   48.55    1.69
  -8  -6  -2   49.75    1.69
  -8  -6  -3    1.95    0.33
   8   6   3    2.82    0.41
  -8  -6  -4   28.39    1.22
   8   6   4   28.31    1.23
  -8  -6  -5    0.26    0.19
   8   6   5    0.33    0.24
  -8  -6  -6    4.03    0.45
   8   6   6    4.77    0.51
  -8  -6  -7    2.45    0.36
   8   6   7    2.25    0.39
  -8  -6  -8    7.00    0.59
   8   6   8    6.69    0.61
   8   6   9    2.79    0.42
  -8  -6  -9    2.91    0.40
   8   6  10    2.27    0.40
  -8  -6 -10    1.97    0.34
  -8  -6 -11    4.76    0.51
   8   6  11    5.36    0.57
  -8  -6 -12    4.72    0.50
   8   6  12    4.42    0.53
   8   6  13    0.15    0.26
  -8  -6 -13   -0.14    0.18
   8   6  14    1.30    0.34
  -8  -6 -14    1.00    0.25
   8   6  15    1.34    0.32
  -8  -6 -15    1.46    0.33
   8  -6  16    6.00    0.68
   8   6  16    6.21    0.66
  -8  -6 -16    4.75    0.52
   8  -6  17    2.40    0.43
   8   6  17    2.97    0.47
   8  -6  18    2.48    0.47
   8  -6  19    0.20    0.24
   8  -6  20    1.21    0.36
   8  -8 -26    1.81    0.43
   8  -8 -25    1.66    0.41
   8  -8 -24    0.78    0.29
   8   8 -23    0.69    0.33
   8  -8 -23    0.48    0.23
   8   8 -22    1.39    0.36
   8  -8 -22    2.10    0.40
   8   8 -21    1.51    0.38
   8  -8 -21    2.26    0.40
   8   8 -20    1.68    0.39
   8  -8 -20    1.06    0.29
   8   8 -19    4.53    0.58
   8  -8 -19    6.28    0.60
   8  -8 -18    1.29    0.30
   8   8 -18    1.35    0.35
   8  -8 -17    3.00    0.39
   8   8 -17    2.61    0.45
   8   8 -16    2.74    0.41
   8  -8 -16    3.30    0.39
   8  -8 -15    0.51    0.20
   8   8 -15    0.67    0.24
   8  -8 -14    0.78    0.20
   8   8 -14    0.68    0.28
   8  -8 -13    4.00    0.27
   8   8 -13    3.49    0.44
   8  -8 -13    3.94    0.39
   8  -8 -12    0.36    0.12
   8  -8 -12    0.59    0.13
   8   8 -12    0.36    0.24
   8  -8 -11    9.22    0.49
   8   8 -11    9.31    0.69
   8  -8 -11    8.72    0.52
   8  -8 -10    2.24    0.25
   8   8 -10    2.27    0.39
   8  -8  -9    7.69    0.44
  -8  -8   9    8.20    0.61
   8  -8  -8    8.80    0.45
  -8  -8   8    8.42    0.62
   8  -8  -7    3.07    0.25
  -8  -8   7    2.46    0.37
   8  -8  -6    4.39    0.27
  -8  -8   6    4.43    0.46
   8  -8  -5   21.78    0.68
  -8  -8   5   22.78    1.05
  -8  -8   4    0.98    0.24
   8  -8  -4    1.10    0.14
  -8  -8   3   14.17    0.82
  -8  -8   2    3.73    0.43
   8  -8  -1    6.24    0.32
  -8  -8   1    7.45    0.59
   8  -8   0    4.79    0.28
  -8  -8   0    4.69    0.49
  -8  -8  -1    1.99    0.32
   8  -8   1    2.62    0.22
  -8  -8  -2    5.77    0.54
   8  -8   2    6.48    0.37
  -8  -8  -3    7.22    0.61
  -8  -8  -4    5.52    0.53
  -8  -8  -5   10.17    0.73
  -8  -8  -6    2.38    0.37
  -8  -8  -7    1.75    0.35
  -8  -8  -8   15.46    0.95
  -8  -8  -9   11.94    0.82
  -8  -8 -10    0.48    0.21
  -8  -8 -11    5.54    0.57
  -8  -8 -12    6.50    0.64
  -8  -8 -13    6.62    0.65
  -8  -8 -14    0.74    0.28
  -8  -8 -15    0.43    0.22
  -8  -8 -16    2.10    0.42
   8  -8  19    0.45    0.31
   8  -8  20    1.61    0.45
   8 -10 -24    0.77    0.28
   8  10 -23    2.44    0.51
   8 -10 -23    2.39    0.41
   8  10 -22    0.64    0.29
   8 -10 -22    0.54    0.25
   8  10 -21   -0.26    0.26
   8 -10 -21   -0.19    0.17
   8  10 -20    1.20    0.35
   8 -10 -20    1.13    0.26
   8  10 -19    5.18    0.62
   8 -10 -19    4.51    0.50
   8  10 -18    0.43    0.23
   8 -10 -18    0.19    0.17
   8  10 -17    1.72    0.39
   8 -10 -17    2.38    0.35
   8  10 -16    1.23    0.29
   8 -10 -16    1.38    0.26
   8  10 -15    0.60    0.26
   8 -10 -15    1.04    0.21
   8  10 -14    1.52    0.33
   8 -10 -14    1.68    0.27
   8  10 -13    5.67    0.57
   8 -10 -13    5.97    0.45
   8  10 -12    7.66    0.66
   8 -10 -12    6.86    0.47
   8 -10 -11    1.82    0.23
   8  10 -11    2.04    0.38
   8  10 -10   13.29    0.86
  -8 -10  10   13.98    0.84
   8 -10 -10   13.62    0.61
  -8 -10   9   14.87    0.90
   8 -10  -9   17.43    0.66
  -8 -10   8    6.34    0.56
   8 -10  -8    6.17    0.34
  -8 -10   7   11.27    0.75
   8 -10  -7   11.06    0.44
  -8 -10   6    1.54    0.32
   8 -10  -6    1.47    0.13
  -8 -10   5   24.36    1.14
   8 -10  -5   24.39    0.65
   8 -10  -4   15.72    0.44
  -8 -10   4   16.77    0.93
   8 -10  -3    8.15    0.27
   8 -10  -3    9.09    0.28
  -8 -10   3    9.92    0.72
  -8 -10   2    1.70    0.33
   8 -10  -2    1.33    0.09
   8 -10  -2    1.48    0.10
  -8 -10   1    1.47    0.30
   8 -10  -1    1.30    0.11
  -8 -10   0   10.60    0.75
   8 -10   0   10.64    0.38
  -8 -10  -1    0.66    0.26
   8 -10   1    1.26    0.13
  -8 -10  -2    1.78    0.33
   8 -10   2    1.95    0.18
  -8 -10  -3    2.04    0.35
   8 -10   3    2.80    0.23
  -8 -10  -4    1.87    0.32
  -8 -10  -5   -0.03    0.18
  -8 -10  -6    2.27    0.38
  -8 -10  -7    3.66    0.48
  -8 -10  -8    0.23    0.20
  -8 -10  -9    2.89    0.46
  -8 -10 -10    5.35    0.60
  -8 -10 -11    2.41    0.43
  -8 -10 -12    0.07    0.20
  -8 -10 -13    0.51    0.28
  -8 -10 -14    5.43    0.62
  -8 -10 -15    1.26    0.35
  -8 -10 -16    1.63    0.41
  -8 -10 -17   -0.14    0.24
   8  12 -22    2.03    0.48
   8  12 -21    5.39    0.71
   8  12 -20    2.13    0.46
   8  12 -19   -0.19    0.23
   8  12 -18    0.55    0.32
   8  12 -17    1.95    0.39
   8  12 -16    2.33    0.41
   8  12 -15    2.80    0.43
   8  12 -14    0.03    0.20
   8 -12 -14    0.20    0.12
   8  12 -13    1.23    0.30
   8 -12 -13    0.87    0.18
   8  12 -12    6.47    0.62
   8 -12 -12    6.36    0.43
   8  12 -11    8.71    0.71
   8 -12 -11    8.76    0.47
  -8 -12  11    9.11    0.70
   8  12 -10   10.30    0.77
   8 -12 -10   10.86    0.49
  -8 -12  10   10.77    0.75
  -8 -12   9    0.16    0.21
   8 -12  -9   -0.02    0.06
  -8 -12   8    0.25    0.19
   8 -12  -8    0.04    0.04
  -8 -12   7    6.82    0.61
  -8 -12   6    6.63    0.60
  -8 -12   5    2.73    0.40
  -8 -12   4    2.35    0.39
  -8 -12   3    3.59    0.46
  -8 -12   2   18.16    1.03
  -8 -12   1    5.04    0.55
  -8 -12   0   10.44    0.78
  -8 -12  -1   10.41    0.78
  -8 -12  -2    8.67    0.71
  -8 -12  -3    6.78    0.66
  -8 -12  -4    2.35    0.38
  -8 -12  -5    1.65    0.37
  -8 -12  -6    2.33    0.43
  -8 -12  -7   11.43    0.86
  -8 -12  -8    2.44    0.43
  -8 -12  -9    2.43    0.41
  -8 -12 -10    5.91    0.66
  -8 -12 -11    1.11    0.34
  -8 -12 -12    1.26    0.35
  -8 -12 -13    0.96    0.35
  -8 -12 -14    1.05    0.35
  -8 -12 -15    0.38    0.24
  -8 -12 -16    1.88    0.45
  -8 -12 -17    0.34    0.28
  -8 -12 -18    3.27    0.55
   8  14 -21    2.51    0.49
   8  14 -20    1.32    0.37
   8  14 -19    0.45    0.30
   8  14 -18    1.97    0.43
   8  14 -17    2.64    0.48
   8  14 -16    1.43    0.37
   8  14 -15    2.90    0.46
   8  14 -14    0.43    0.24
   8  14 -13    1.85    0.37
   8  14 -12    0.26    0.23
  -8 -14  12    0.19    0.21
  -8 -14  11   14.63    0.93
   8  14 -11   13.39    0.91
  -8 -14  10    1.02    0.27
   8  14 -10    1.19    0.34
  -8 -14   9    0.68    0.23
  -8 -14   8    2.15    0.38
  -8 -14   7    2.33    0.38
  -8 -14   6    1.49    0.32
  -8 -14   5    4.17    0.52
  -8 -14   4    2.60    0.40
  -8 -14   3   11.82    0.86
  -8 -14   2    8.91    0.75
  -8 -14   1    1.82    0.39
  -8 -14   0    2.53    0.41
  -8 -14  -1   10.63    0.82
  -8 -14  -2    0.27    0.23
  -8 -14  -3    6.05    0.64
  -8 -14  -4    5.15    0.61
  -8 -14  -5   10.09    0.84
  -8 -14  -6    0.88    0.29
  -8 -14  -7    2.40    0.46
  -8 -14  -8    0.99    0.34
  -8 -14  -9    4.51    0.59
  -8 -14 -10    0.61    0.28
  -8 -14 -11    1.95    0.45
  -8 -14 -12    0.49    0.29
  -8 -14 -13    2.63    0.52
  -8 -14 -14    1.13    0.37
  -8 -14 -15    2.56    0.51
  -8 -14 -16    0.29    0.25
  -8 -14 -17    2.90    0.58
  -8 -14 -18    1.79    0.47
   8  16 -20    1.16    0.40
   8  16 -19    0.58    0.32
   8  16 -18    4.10    0.59
   8  16 -17    0.07    0.24
   8  16 -16    0.08    0.20
   8  16 -15    1.15    0.35
   8  16 -14   11.13    0.89
   8  16 -13    9.70    0.83
  -8 -16  13    8.48    0.72
   8  16 -12    2.26    0.44
  -8 -16  12    2.06    0.37
   8  16 -11    2.21    0.41
  -8 -16  11    3.00    0.44
   8  16 -10    4.57    0.57
  -8 -16  10    5.84    0.60
  -8 -16   9    1.83    0.37
   8  16  -9    1.72    0.36
  -8 -16   8    6.22    0.63
  -8 -16   7    4.08    0.51
  -8 -16   6    1.56    0.34
  -8 -16   5    3.33    0.46
  -8 -16   4    1.04    0.32
  -8 -16   3    2.63    0.45
  -8 -16   2    0.17    0.20
  -8 -16   1    2.35    0.40
  -8 -16   0    7.20    0.70
  -8 -16  -1    0.38    0.27
  -8 -16  -2    6.37    0.68
  -8 -16  -3    1.72    0.39
  -8 -16  -4    6.91    0.72
  -8 -16  -5    2.20    0.46
  -8 -16  -6    3.33    0.53
  -8 -16  -7    0.38    0.28
  -8 -16  -8    1.94    0.46
  -8 -16  -9    0.30    0.23
  -8 -16 -10    3.32    0.58
  -8 -16 -11    0.77    0.31
  -8 -16 -12   -0.30    0.25
  -8 -16 -13    1.13    0.36
  -8 -16 -14    1.31    0.38
  -8 -16 -15    0.15    0.35
   8  18 -18    5.39    0.70
   8  18 -17    1.11    0.35
   8  18 -16    0.04    0.25
   8  18 -15    1.20    0.36
   8  18 -14    1.75    0.40
   8  18 -13    0.25    0.23
  -8 -18  13    0.34    0.23
   8  18 -12    1.48    0.39
  -8 -18  12    0.84    0.31
  -8 -18  11    3.35    0.47
   8  18 -11    4.47    0.59
  -8 -18  10    4.36    0.53
   8  18 -10    3.06    0.49
  -8 -18   9    0.98    0.30
   8  18  -9    1.22    0.34
  -8 -18   8    1.72    0.37
  -8 -18   7    9.83    0.83
  -8 -18   6    0.83    0.32
  -8 -18   5    0.50    0.20
  -8 -18   4    3.13    0.52
  -8 -18   3    8.16    0.77
  -8 -18   2    3.20    0.50
  -8 -18   1    0.62    0.26
  -8 -18   0    5.44    0.64
  -8 -18  -1    3.40    0.55
  -8 -18  -2    0.96    0.33
  -8 -18  -3    2.63    0.48
  -8 -18  -4    2.81    0.51
  -8 -18  -5    0.06    0.26
  -8 -18  -6    2.17    0.47
  -8 -18  -7    0.90    0.38
  -8 -18  -8    0.77    0.36
  -8 -18  -9    2.67    0.55
  -8 -18 -10    3.22    0.62
  -8 -18 -11    0.99    0.36
  -8 -18 -12    1.01    0.37
   8  20 -16   -0.02    0.34
   8  20 -15    1.27    0.34
   8  20 -14    0.52    0.26
   8  20 -13    1.29    0.40
   8  20 -12    0.22    0.26
  -8 -20  12    0.08    0.20
  -8 -20  11    2.58    0.44
   8  20 -11    2.31    0.44
  -8 -20  10    0.89    0.30
   8  20 -10    0.88    0.32
  -8 -20   9    0.31    0.25
   8  20  -9    0.22    0.25
  -8 -20   8    0.69    0.27
   8  20  -8    0.88    0.34
  -8 -20   7    4.91    0.61
  -8 -20   6    0.16    0.23
  -8 -20   5    1.00    0.33
  -8 -20   4    1.76    0.44
  -8 -20   3   10.60    0.91
  -8 -20   2    0.13    0.22
  -8 -20   1    1.50    0.36
  -8 -20   0    2.08    0.46
  -8 -20  -1    1.22    0.40
  -8 -20  -2    1.43    0.39
  -8 -20  -3    2.33    0.47
  -8 -20  -4    1.44    0.36
  -8 -20  -5    0.29    0.30
  -8 -20  -6    0.15    0.28
  -8 -20  -7    2.04    0.48
  -8 -20  -8    0.29    0.33
   8  22 -14    1.77    0.43
   8  22 -13    0.51    0.31
   8  22 -12    0.27    0.25
   8  22 -11    0.33    0.27
  -8 -22  10    0.80    0.29
   8  22 -10    0.84    0.34
  -8 -22   9    0.08    0.22
   8  22  -9    0.69    0.33
  -8 -22   8    1.41    0.36
   8  22  -8    1.85    0.43
  -8 -22   7    0.39    0.25
  -8 -22   6   -0.12    0.21
  -8 -22   5    0.31    0.24
  -8 -22   4    1.14    0.37
  -8 -22   3    0.40    0.32
  -8 -22   2    1.13    0.41
  -8 -22   1    0.12    0.26
  -8 -22   0    0.61    0.30
  -8 -22  -1    1.05    0.35
  -8 -22  -2    0.90    0.37
  -8 -22  -3    0.38    0.30
  -8 -22  -4    2.06    0.49
   8  24 -12   -0.23    0.35
   8  24 -11    1.14    0.39
   8  24 -10    1.16    0.39
   8  24  -9    0.79    0.37
  -8 -24   8    2.00    0.44
   8  24  -8    1.00    0.35
  -8 -24   7    0.50    0.24
   8  24  -7    0.70    0.37
  -8 -24   6    0.62    0.32
  -8 -24   5    0.39    0.28
  -8 -24   4    1.20    0.42
  -8 -24   3    0.99    0.37
  -8 -24   2   -0.20    0.33
   9  -1 -25    1.90    0.46
   9   1 -25    0.72    0.29
   9  -1 -24    0.22    0.26
   9   1 -24   -0.12    0.24
   9  -1 -23    5.05    0.62
   9   1 -23    5.84    0.68
   9  -1 -22   -0.08    0.18
   9   1 -22    0.37    0.24
   9  -1 -21    0.62    0.25
   9   1 -21    0.50    0.29
   9  -1 -20    0.06    0.23
   9   1 -20    0.02    0.21
   9  -1 -19    3.55    0.48
   9   1 -19    4.17    0.53
   9  -1 -18    8.96    0.74
   9   1 -18    9.18    0.75
   9  -1 -17    3.84    0.48
   9   1 -17    3.80    0.48
   9  -1 -16    9.05    0.69
   9   1 -16    8.28    0.69
   9  -1 -15   18.73    0.99
   9   1 -15   17.88    0.99
   9  -1 -14    3.10    0.41
   9   1 -14    2.64    0.36
   9   1 -13    0.49    0.19
   9  -1 -13    0.64    0.19
   9  -1 -12    3.18    0.38
   9   1 -12    3.16    0.39
   9  -1 -11   22.95    0.99
   9   1 -11   20.70    0.99
   9  -1 -10    0.70    0.23
   9  -1 -10    0.93    0.22
   9   1 -10    0.57    0.22
   9  -1  -9    8.89    0.57
   9   1  -9    9.24    0.60
   9  -1  -9    7.87    0.50
   9  -1  -8   10.39    0.58
   9  -1  -8   10.00    0.60
   9  -1  -7   24.63    0.99
   9   1  -7   25.33    1.01
   9  -1  -6    1.67    0.27
   9   1  -6    2.50    0.33
   9  -1  -5   15.58    0.77
   9   1  -5   15.24    0.77
   9   1  -4    3.81    0.40
   9  -1  -4    3.65    0.36
   9  -1  -3    3.90    0.39
   9   1  -3    3.73    0.38
   9  -1  -2    1.81    0.29
   9   1  -2    1.77    0.30
   9   1  -1   15.85    0.84
  -9  -1   1   16.41    0.81
   9  -1  -1   15.17    0.83
   9  -1   0    0.89    0.24
   9   1   0    0.86    0.23
  -9  -1   0    0.93    0.22
   9   1   1   12.48    0.77
   9  -1   1   12.73    0.77
  -9  -1  -1   13.66    0.75
   9  -1   2    1.91    0.32
   9   1   2    1.83    0.31
   9  -1   3   21.54    1.06
   9   1   3   21.14    1.04
  -9   1  -3   18.70    0.87
  -9  -1  -3   19.00    0.91
  -9  -1  -4    1.21    0.25
   9  -1   4    0.76    0.24
   9   1   4    0.38    0.20
  -9   1  -4    1.14    0.23
  -9  -1  -5    1.31    0.23
   9  -1   5    1.57    0.32
   9   1   5    1.25    0.28
  -9   1  -5    1.57    0.26
  -9  -1  -6    1.09    0.24
   9   1   6    0.86    0.23
   9  -1   6    0.50    0.22
  -9   1  -6    0.67    0.21
  -9  -1  -7    2.25    0.32
   9  -1   7    1.66    0.32
   9   1   7    1.93    0.33
  -9   1  -7    1.78    0.27
  -9  -1  -8    0.76    0.21
   9   1   8    0.46    0.19
   9  -1   8    1.03    0.28
  -9   1  -8    0.63    0.19
  -9  -1  -9    1.29    0.24
   9  -1   9    1.02    0.30
   9   1   9    0.72    0.22
  -9   1  -9    1.28    0.24
  -9  -1 -10    0.72    0.23
   9   1  10    0.67    0.21
  -9   1 -10    0.47    0.17
   9  -1  11    5.40    0.59
   9   1  11    4.83    0.55
  -9   1 -11    5.50    0.46
  -9  -1 -11    4.99    0.45
  -9  -1 -12    0.67    0.20
   9  -1  12    0.50    0.27
   9   1  12    0.68    0.25
   9   1  13    4.47    0.55
   9  -1  13    4.40    0.53
   9  -1  14   -0.25    0.21
   9   1  14   -0.22    0.22
   9  -1  15    0.23    0.22
   9   1  15   -0.09    0.25
   9  -1  16    1.90    0.39
   9   1  16    2.40    0.43
   9   1  17    0.01    0.25
   9  -1  17   -0.15    0.32
   9  -1  18   -0.11    0.22
   9   1  18   -0.08    0.22
   9  -1  19    1.69    0.42
   9   1  19    1.95    0.45
   9  -3 -25    0.47    0.30
   9  -3 -24    1.16    0.36
   9   3 -24    0.56    0.28
   9  -3 -23    0.88    0.32
   9   3 -23    1.26    0.37
   9   3 -22    4.38    0.60
   9  -3 -22    5.37    0.63
   9  -3 -21    0.06    0.19
   9   3 -21   -0.06    0.20
   9  -3 -20    0.99    0.32
   9   3 -20    1.56    0.36
   9   3 -19    9.52    0.80
   9  -3 -19    8.91    0.74
   9   3 -18   14.69    0.98
   9  -3 -18   13.54    0.90
   9  -3 -17   10.90    0.78
   9   3 -17   12.03    0.85
   9  -3 -16    1.47    0.31
   9   3 -16    1.47    0.32
   9  -3 -15    5.01    0.50
   9   3 -15    3.78    0.47
   9  -3 -14    4.89    0.48
   9   3 -14    4.26    0.46
   9  -3 -13    3.81    0.42
   9   3 -13    3.19    0.42
   9  -3 -12   10.43    0.65
   9   3 -12   11.42    0.74
   9  -3 -11    0.74    0.21
   9  -3 -11    0.98    0.19
   9   3 -11    0.76    0.27
   9  -3 -10    0.81    0.20
   9  -3 -10    0.53    0.17
   9   3 -10    0.66    0.25
   9  -3  -9    1.44    0.22
   9  -3  -9    1.51    0.24
   9   3  -9    1.81    0.31
   9  -3  -8    1.70    0.24
   9  -3  -8    2.34    0.28
   9  -3  -7    1.69    0.24
   9  -3  -7    2.45    0.29
   9  -3  -6   12.76    0.69
   9  -3  -5   11.49    0.66
   9   3  -5   10.79    0.66
   9   3  -4   15.11    0.80
   9  -3  -4   14.33    0.76
  -9  -3   4   14.09    0.79
   9  -3  -3    2.85    0.35
   9   3  -3    3.66    0.40
  -9  -3   3    3.05    0.37
   9  -3  -2    7.99    0.58
   9   3  -2    7.42    0.57
  -9  -3   2    8.64    0.61
   9  -3  -1    1.43    0.29
   9   3  -1    1.66    0.28
  -9  -3   1    1.47    0.28
   9  -3   0    4.41    0.45
   9   3   0    4.06    0.43
  -9  -3   0    4.50    0.44
   9  -3   1    6.18    0.55
   9   3   1    6.03    0.54
  -9  -3  -1    6.45    0.52
   9  -3   2   23.29    1.11
   9   3   2   23.98    1.13
  -9  -3  -2   25.71    1.09
   9  -3   3    7.76    0.62
   9   3   3    8.45    0.65
  -9  -3  -3    7.15    0.57
   9  -3   4    4.04    0.47
   9   3   4    4.01    0.46
  -9  -3  -4    4.06    0.42
  -9  -3  -5    1.75    0.32
   9  -3   5    1.81    0.34
   9   3   5    1.94    0.35
   9  -3   6    6.40    0.61
   9   3   6    5.70    0.56
  -9  -3  -6    5.75    0.51
  -9  -3  -7    1.32    0.26
   9  -3   7    1.91    0.36
   9   3   7    1.96    0.38
  -9  -3  -8    3.72    0.40
   9  -3   8    3.08    0.46
   9   3   8    2.59    0.42
  -9  -3  -9    1.31    0.29
   9  -3   9    0.70    0.25
   9   3   9    1.18    0.32
   9  -3  10   11.82    0.86
   9   3  10   11.67    0.84
  -9  -3 -10   11.43    0.74
  -9  -3 -11    0.31    0.23
   9  -3  11    0.55    0.23
   9   3  11    0.43    0.24
   9  -3  12   28.12    1.42
   9   3  12   26.31    1.35
  -9  -3 -12   26.54    1.20
  -9  -3 -13    0.62    0.22
   9  -3  13    0.53    0.27
   9   3  13    0.88    0.33
   9   3  14    2.38    0.43
   9  -3  14    1.68    0.38
   9  -3  15    1.12    0.35
   9   3  15    1.52    0.37
   9   3  16    5.12    0.62
   9  -3  16    4.93    0.63
   9   3  17    0.33    0.28
   9  -3  17   -0.16    0.24
   9  -3  18    1.34    0.38
   9   3  18    2.09    0.42
   9  -3  19   -0.01    0.26
   9   3  19   -0.20    0.23
   9  -3  20    2.43    0.47
   9  -5 -25    1.47    0.37
   9  -5 -24    0.85    0.33
   9   5 -24    0.80    0.30
   9  -5 -23    0.30    0.23
   9   5 -23    1.11    0.38
   9  -5 -22    3.95    0.54
   9   5 -22    4.08    0.60
   9  -5 -21    0.38    0.22
   9   5 -21    0.06    0.20
   9  -5 -20    0.73    0.27
   9   5 -20    0.37    0.28
   9   5 -19    4.33    0.56
   9  -5 -19    3.50    0.47
   9  -5 -18    1.64    0.32
   9   5 -18    1.97    0.40
   9  -5 -17    0.86    0.25
   9   5 -17    1.02    0.30
   9  -5 -16    0.35    0.17
   9   5 -16   -0.04    0.24
   9  -5 -15    4.97    0.48
   9   5 -15    4.71    0.52
   9  -5 -14    2.40    0.33
   9   5 -14    2.91    0.44
   9  -5 -13    2.48    0.32
   9  -5 -13    2.93    0.26
   9   5 -13    2.59    0.38
   9  -5 -12    2.64    0.32
   9  -5 -12    2.05    0.23
   9   5 -12    2.72    0.41
   9  -5 -11    6.82    0.50
   9  -5 -11    5.63    0.39
   9   5 -11    6.32    0.57
   9  -5 -10    0.37    0.15
   9  -5 -10    0.31    0.12
   9  -5  -9    7.89    0.49
   9  -5  -9    8.44    0.51
   9  -5  -8    8.95    0.50
   9  -5  -8    8.16    0.52
   9  -5  -7    7.13    0.50
   9  -5  -7    8.23    0.47
   9  -5  -6    7.46    0.52
   9  -5  -6    7.94    0.45
  -9  -5   6    7.56    0.58
   9  -5  -5    2.00    0.29
  -9  -5   5    1.68    0.31
   9  -5  -4    1.44    0.26
  -9  -5   4    1.20    0.26
  -9  -5   3    2.34    0.35
  -9  -5   2   13.00    0.78
   9   5  -1   28.42    1.23
  -9  -5   1   29.63    1.23
  -9  -5   0    2.77    0.36
   9   5   0    3.11    0.43
   9   5   1   11.05    0.73
  -9  -5  -1   10.61    0.71
  -9  -5  -2    1.59    0.29
   9   5   2    1.23    0.31
  -9  -5  -3    1.99    0.33
   9   5   3    2.08    0.39
  -9  -5  -4    1.33    0.29
   9   5   4    1.53    0.33
   9   5   5    3.40    0.46
  -9  -5  -5    3.90    0.45
   9   5   6   12.72    0.84
  -9  -5  -6   11.15    0.76
  -9  -5  -7    2.44    0.37
   9   5   7    2.07    0.37
  -9  -5  -8    0.87    0.29
   9   5   8    0.49    0.28
   9   5   9   23.45    1.22
  -9  -5  -9   24.99    1.18
   9   5  10    4.50    0.54
  -9  -5 -10    3.78    0.45
  -9  -5 -11    1.11    0.30
   9  -5  11    1.11    0.29
   9   5  11    1.57    0.35
  -9  -5 -12    4.53    0.52
   9  -5  12    3.15    0.49
   9   5  12    4.25    0.53
   9  -5  13    2.62    0.46
  -9  -5 -13    3.11    0.44
   9   5  13    3.08    0.47
   9  -5  14    1.40    0.36
  -9  -5 -14    1.27    0.29
   9   5  14    1.44    0.34
   9  -5  15    3.41    0.55
   9   5  15    3.88    0.54
   9  -5  16    0.15    0.26
   9   5  16    0.53    0.29
   9  -5  17    0.99    0.35
   9   5  17    0.81    0.30
   9  -5  18    0.11    0.26
   9   5  18    0.76    0.33
   9  -5  19    0.35    0.27
   9  -5  20    2.06    0.47
   9  -7 -25    0.71    0.32
   9  -7 -24    0.25    0.23
   9   7 -23    3.49    0.57
   9  -7 -23    3.09    0.51
   9   7 -22    0.09    0.23
   9  -7 -22    0.34    0.21
   9  -7 -21    0.22    0.17
   9   7 -21    0.00    0.20
   9  -7 -20    0.17    0.17
   9   7 -20    0.62    0.31
   9   7 -19    3.60    0.52
   9  -7 -19    4.28    0.51
   9  -7 -18    2.41    0.38
   9   7 -18    2.51    0.46
   9  -7 -17    0.44    0.22
   9   7 -17   -0.18    0.26
   9  -7 -16   -0.01    0.16
   9   7 -16   -0.04    0.19
   9   7 -15   12.82    0.88
   9  -7 -15   13.16    0.77
   9   7 -14    6.10    0.61
   9  -7 -14    7.34    0.54
   9  -7 -13    0.36    0.18
   9  -7 -13    0.12    0.10
   9   7 -13    0.30    0.24
   9  -7 -12    2.20    0.29
   9  -7 -12    2.29    0.24
   9   7 -12    1.96    0.36
   9  -7 -11    5.03    0.41
   9  -7 -11    4.56    0.37
   9   7 -11    4.57    0.51
   9  -7 -10    1.78    0.25
   9  -7 -10    1.77    0.25
   9   7 -10    1.54    0.33
   9  -7  -9    1.88    0.24
   9  -7  -9    1.22    0.21
   9  -7  -8    1.61    0.25
   9  -7  -8    1.30    0.18
  -9  -7   8    1.65    0.31
   9  -7  -7    8.85    0.46
  -9  -7   7    8.25    0.65
   9  -7  -6    3.61    0.28
  -9  -7   6    3.28    0.42
   9  -7  -5    5.57    0.35
  -9  -7   5    6.35    0.55
  -9  -7   4    0.09    0.15
  -9  -7   3    2.47    0.37
  -9  -7   2   25.07    1.16
   9  -7  -1   19.43    0.72
  -9  -7   1   19.87    1.03
  -9  -7   0    5.22    0.52
  -9  -7  -1   26.21    1.21
  -9  -7  -2   14.80    0.89
  -9  -7  -3   10.65    0.76
  -9  -7  -4   12.66    0.82
  -9  -7  -5   11.58    0.80
  -9  -7  -6    4.38    0.50
   9   7   6    6.48    0.63
  -9  -7  -7   -0.06    0.18
   9   7   7    0.59    0.29
  -9  -7  -8    2.70    0.41
   9   7   8    2.01    0.40
  -9  -7  -9    0.54    0.23
   9   7   9    1.06    0.31
  -9  -7 -10    6.10    0.61
   9   7  10    6.00    0.61
  -9  -7 -11    5.80    0.60
   9   7  11    7.15    0.68
   9   7  12    3.59    0.51
  -9  -7 -12    2.93    0.43
  -9  -7 -13    5.97    0.61
   9   7  13    5.78    0.64
  -9  -7 -14    0.66    0.28
   9  -7  15    0.43    0.27
  -9  -7 -15    0.22    0.24
   9  -7  16    1.24    0.40
   9  -7  17    0.81    0.35
   9  -7  18    0.88    0.27
   9  -7  19    1.84    0.47
   9  -9 -24    0.16    0.19
   9  -9 -23    1.43    0.36
   9   9 -22    1.18    0.36
   9  -9 -22    0.91    0.28
   9   9 -21    0.86    0.32
   9  -9 -21    1.28    0.29
   9   9 -20    0.57    0.29
   9  -9 -20    0.11    0.16
   9   9 -19    1.01    0.37
   9  -9 -19    0.17    0.15
   9   9 -18    5.99    0.68
   9  -9 -18    5.05    0.51
   9   9 -17    7.70    0.73
   9  -9 -17    8.36    0.64
   9   9 -16    5.96    0.63
   9  -9 -16    6.68    0.55
   9  -9 -15    0.90    0.21
   9   9 -15    0.69    0.29
   9   9 -14    4.13    0.52
   9  -9 -14    4.66    0.43
   9   9 -13    3.90    0.51
   9  -9 -13    3.80    0.37
   9  -9 -12    5.65    0.40
   9   9 -12    6.91    0.62
   9  -9 -12    5.89    0.44
   9  -9 -11    2.19    0.25
   9  -9 -11    1.84    0.25
   9   9 -11    2.15    0.39
   9   9 -10    5.50    0.56
   9  -9 -10    5.12    0.37
  -9  -9   9    9.30    0.71
   9  -9  -9   10.07    0.51
   9  -9  -8   19.54    0.71
  -9  -9   8   18.02    1.01
   9  -9  -7    6.71    0.37
  -9  -9   7    6.44    0.58
  -9  -9   6    1.05    0.29
   9  -9  -6    1.34    0.17
  -9  -9   5    0.37    0.21
   9  -9  -5   -0.08    0.09
  -9  -9   4    2.93    0.40
   9  -9  -4    3.46    0.23
   9  -9  -3   11.97    0.45
  -9  -9   3   13.16    0.83
   9  -9  -2   13.60    0.51
  -9  -9   2   13.20    0.86
   9  -9  -1    4.26    0.27
  -9  -9   1    4.96    0.54
   9  -9   0   11.89    0.49
  -9  -9   0   10.97    0.78
  -9  -9  -1    0.33    0.23
   9  -9   1    0.25    0.10
  -9  -9  -2    4.98    0.53
  -9  -9  -3    0.56    0.22
  -9  -9  -4    2.81    0.43
  -9  -9  -5   20.77    1.13
  -9  -9  -6    1.03    0.31
  -9  -9  -7    5.74    0.59
  -9  -9  -8    0.96    0.25
  -9  -9  -9    2.26    0.39
  -9  -9 -10    3.12    0.47
  -9  -9 -11    2.07    0.39
  -9  -9 -12    4.37    0.58
  -9  -9 -13    0.59    0.25
  -9  -9 -14    0.79    0.27
  -9  -9 -15    1.35    0.35
  -9  -9 -16    1.52    0.37
   9  -9  18    0.71    0.38
   9  11 -22    0.08    0.28
   9  11 -21    2.63    0.51
   9  11 -20    1.98    0.45
   9  11 -19    1.80    0.43
   9  11 -18    1.73    0.39
   9  11 -17    0.18    0.25
   9  11 -16   -0.05    0.20
   9  11 -15    5.01    0.58
   9  11 -14    0.63    0.25
   9 -11 -14    1.00    0.22
   9  11 -13    4.35    0.54
   9 -11 -13    4.05    0.37
   9  11 -12    5.13    0.59
   9 -11 -12    4.84    0.38
   9  11 -11   10.24    0.78
  -9 -11  11   10.86    0.77
   9 -11 -11   10.16    0.53
   9 -11 -10    1.70    0.20
   9  11 -10    1.92    0.37
  -9 -11  10    1.87    0.36
  -9 -11   9    5.00    0.54
   9 -11  -9    4.51    0.30
  -9 -11   8    1.77    0.34
   9 -11  -8    1.47    0.16
  -9 -11   7    3.21    0.43
   9 -11  -7    3.60    0.22
  -9 -11   6    2.99    0.42
   9 -11  -6    3.09    0.18
  -9 -11   5    0.33    0.21
  -9 -11   4    2.58    0.40
  -9 -11   3    0.74    0.28
  -9 -11   2    4.36    0.52
  -9 -11   1    2.04    0.39
  -9 -11   0    4.15    0.51
  -9 -11  -1    7.88    0.70
  -9 -11  -2    0.63    0.26
  -9 -11  -3    4.85    0.55
  -9 -11  -4    0.17    0.23
  -9 -11  -5    1.88    0.38
  -9 -11  -6    0.07    0.18
  -9 -11  -7    2.01    0.38
  -9 -11  -8    0.08    0.22
  -9 -11  -9    1.01    0.33
  -9 -11 -10    2.42    0.44
  -9 -11 -11    1.55    0.38
  -9 -11 -12    1.39    0.36
  -9 -11 -13    6.59    0.72
  -9 -11 -14    0.51    0.31
  -9 -11 -15    0.29    0.27
  -9 -11 -16    0.68    0.29
  -9 -11 -17    1.19    0.38
   9  13 -21    1.16    0.40
   9  13 -20    6.16    0.74
   9  13 -19    1.32    0.43
   9  13 -18    1.88    0.42
   9  13 -17    0.06    0.22
   9  13 -16    0.15    0.25
   9  13 -15    1.95    0.38
   9  13 -14    1.79    0.37
   9  13 -13    0.64    0.27
   9  13 -12    0.15    0.23
  -9 -13  12    0.07    0.15
   9  13 -11    0.36    0.26
  -9 -13  11    0.13    0.20
   9  13 -10    2.69    0.46
  -9 -13  10    1.46    0.32
  -9 -13   9    0.25    0.20
  -9 -13   8    1.56    0.33
  -9 -13   7    1.25    0.31
  -9 -13   6    3.52    0.47
  -9 -13   5    9.81    0.77
  -9 -13   4    0.36    0.21
  -9 -13   3    2.48    0.41
  -9 -13   2    6.34    0.66
  -9 -13   1    2.24    0.41
  -9 -13   0   10.33    0.83
  -9 -13  -1    2.85    0.45
  -9 -13  -2    1.37    0.36
  -9 -13  -3    3.88    0.52
  -9 -13  -4    5.73    0.64
  -9 -13  -5    7.24    0.72
  -9 -13  -6    6.59    0.71
  -9 -13  -7    3.54    0.53
  -9 -13  -8    2.61    0.47
  -9 -13  -9    1.92    0.43
  -9 -13 -10    2.77    0.52
  -9 -13 -11    0.39    0.27
  -9 -13 -12    0.36    0.26
  -9 -13 -13    3.76    0.57
  -9 -13 -14    0.53    0.27
  -9 -13 -15    0.93    0.36
  -9 -13 -16    0.13    0.26
  -9 -13 -17    1.60    0.47
   9  15 -19    1.61    0.44
   9  15 -18    2.66    0.49
   9  15 -17    3.27    0.52
   9  15 -16    1.11    0.36
   9  15 -15    0.55    0.26
   9  15 -14    0.55    0.26
   9  15 -13    2.40    0.46
  -9 -15  13    2.02    0.38
   9  15 -12    0.69    0.30
  -9 -15  12    0.60    0.25
   9  15 -11    0.96    0.34
  -9 -15  11    1.77    0.38
   9  15 -10    1.72    0.41
  -9 -15  10    1.31    0.35
  -9 -15   9    1.60    0.34
  -9 -15   8    3.14    0.47
  -9 -15   7    0.56    0.28
  -9 -15   6    5.41    0.60
  -9 -15   5   19.93    1.17
  -9 -15   4    1.23    0.37
  -9 -15   3   12.12    0.91
  -9 -15   2    2.32    0.44
  -9 -15   1    3.94    0.54
  -9 -15   0    2.09    0.40
  -9 -15  -1    5.18    0.63
  -9 -15  -2    4.24    0.56
  -9 -15  -3    1.06    0.31
  -9 -15  -4    0.81    0.28
  -9 -15  -5    2.97    0.48
  -9 -15  -6    5.54    0.67
  -9 -15  -7    0.96    0.33
  -9 -15  -8    1.63    0.41
  -9 -15  -9    0.32    0.29
  -9 -15 -10    0.58    0.31
  -9 -15 -11    3.64    0.58
  -9 -15 -12    0.80    0.33
  -9 -15 -13    1.18    0.37
  -9 -15 -14    1.26    0.41
  -9 -15 -15    6.01    0.79
   9  17 -18    0.25    0.27
   9  17 -17    3.62    0.57
   9  17 -16    0.27    0.29
   9  17 -15    0.97    0.36
   9  17 -14    2.56    0.47
   9  17 -13    3.28    0.52
  -9 -17  13    3.60    0.50
   9  17 -12    0.08    0.28
  -9 -17  12    0.71    0.28
   9  17 -11    2.04    0.42
  -9 -17  11    1.71    0.39
  -9 -17  10    2.22    0.45
   9  17 -10    2.94    0.48
  -9 -17   9    0.96    0.31
  -9 -17   8    2.73    0.45
  -9 -17   7    5.13    0.61
  -9 -17   6    5.34    0.63
  -9 -17   5    1.19    0.31
  -9 -17   4    1.09    0.33
  -9 -17   3    4.06    0.56
  -9 -17   2    0.55    0.26
  -9 -17   1    0.98    0.31
  -9 -17   0    0.56    0.28
  -9 -17  -1    7.19    0.76
  -9 -17  -2    0.33    0.29
  -9 -17  -3    2.38    0.48
  -9 -17  -4    0.28    0.22
  -9 -17  -5    0.26    0.23
  -9 -17  -6    0.47    0.29
  -9 -17  -7    0.68    0.33
  -9 -17  -8    0.93    0.31
  -9 -17  -9    2.30    0.48
  -9 -17 -10    0.21    0.30
  -9 -17 -11    4.99    0.69
  -9 -17 -12    1.27    0.43
   9  19 -16   -0.05    0.28
   9  19 -15    0.18    0.26
   9  19 -14    2.44    0.49
   9  19 -13    0.46    0.24
  -9 -19  13    0.00    0.19
   9  19 -12    0.17    0.25
  -9 -19  12    0.08    0.17
  -9 -19  11    0.06    0.21
   9  19 -11    0.16    0.30
   9  19 -10    6.27    0.69
  -9 -19  10    7.31    0.72
  -9 -19   9    0.26    0.23
   9  19  -9    0.23    0.27
  -9 -19   8    2.13    0.42
  -9 -19   7    0.07    0.23
  -9 -19   6    5.13    0.64
  -9 -19   5    0.86    0.30
  -9 -19   4    0.40    0.21
  -9 -19   3    1.64    0.42
  -9 -19   2    4.93    0.65
  -9 -19   1    0.14    0.25
  -9 -19   0    6.55    0.75
  -9 -19  -1    0.49    0.31
  -9 -19  -2   -0.18    0.25
  -9 -19  -3    0.72    0.37
  -9 -19  -4    2.90    0.54
  -9 -19  -5    0.05    0.24
  -9 -19  -6    2.76    0.51
  -9 -19  -7    1.62    0.46
  -9 -19  -8    0.13    0.30
   9  21 -14    0.68    0.32
   9  21 -13    3.45    0.58
   9  21 -12    0.24    0.28
  -9 -21  11    0.86    0.29
   9  21 -11    0.37    0.28
  -9 -21  10    0.56    0.28
   9  21 -10    0.19    0.30
  -9 -21   9    0.30    0.30
   9  21  -9    0.21    0.28
  -9 -21   8    1.12    0.32
  -9 -21   7    3.40    0.55
  -9 -21   6    0.82    0.34
  -9 -21   5    1.10    0.39
  -9 -21   4   -0.04    0.21
  -9 -21   3    0.60    0.30
  -9 -21   2    0.63    0.32
  -9 -21   1    0.09    0.22
  -9 -21   0    1.14    0.42
  -9 -21  -1    4.40    0.65
  -9 -21  -2    0.51    0.36
  -9 -21  -3    1.07    0.42
  -9 -21  -4    1.41    0.47
   9  23 -11    1.58    0.45
  -9 -23  10    1.64    0.37
   9  23 -10    1.26    0.39
  -9 -23   9    1.89    0.45
   9  23  -9    1.64    0.43
  -9 -23   8    0.46    0.30
   9  23  -8    0.47    0.33
  -9 -23   7    2.61    0.52
  -9 -23   6    0.30    0.27
  -9 -23   5    0.72    0.32
  -9 -23   4    0.36    0.24
  -9 -23   3    1.37    0.38
  -9 -23   2    0.84    0.37
  10   0 -25   -0.14    0.23
  10   0 -24    1.00    0.33
  10   0 -23   -0.51    0.36
  10   0 -22    4.26    0.59
  10   0 -21   -0.06    0.18
  10   0 -20    1.94    0.38
  10   0 -19    0.01    0.20
  10   0 -18    7.59    0.70
  10   0 -17    0.12    0.18
  10   0 -16    9.03    0.73
  10   0 -15   -0.07    0.19
  10   0 -14   25.40    1.18
  10   0 -13   -0.42    0.25
  10   0 -12    9.46    0.66
  10   0 -11    0.10    0.21
  10   0 -10    5.81    0.50
  10   0  -9    0.07    0.17
  10   0  -9    0.30    0.23
  10   0  -8   18.50    0.87
  10   0  -7   -0.16    0.15
  10   0  -6    2.31    0.32
  10   0  -5    0.01    0.16
  10   0  -4   14.06    0.80
  10   0  -3   -0.05    0.19
  10   0  -2    5.03    0.48
  10   0  -1   -0.04    0.17
  10   0   0    6.40    0.55
  10   0   1   -0.07    0.23
  10   0   2    7.44    0.63
 -10   0  -2    7.98    0.58
  10   0   3    0.04    0.18
 -10   0  -3    0.15    0.17
  10   0   4    8.43    0.69
 -10   0  -4    8.35    0.59
  10   0   5   -0.39    0.28
 -10   0  -5   -0.04    0.16
  10   0   6    2.25    0.38
 -10   0  -6    1.64    0.27
  10   0   7   -0.24    0.27
 -10   0  -7   -0.08    0.16
  10   0   8    0.43    0.22
 -10   0  -8    0.14    0.14
  10   0   9   -0.11    0.22
 -10   0  -9    0.20    0.17
  10   0  10    6.53    0.66
 -10   0 -10    5.63    0.49
  10   0  11   -0.05    0.25
 -10   0 -11   -0.10    0.17
  10   0  12    2.06    0.41
  10   0  13   -0.29    0.23
  10   0  14    1.50    0.38
  10   0  15    0.00    0.25
  10   0  16    3.04    0.52
  10   0  17   -0.12    0.27
  10   0  18    0.85    0.38
  10   0  19    0.17    0.30
  10  -2 -25    1.38    0.41
  10  -2 -24    1.06    0.34
  10   2 -24    0.12    0.22
  10  -2 -23    1.43    0.39
  10   2 -23    1.64    0.40
  10  -2 -22   -0.17    0.26
  10   2 -22    0.35    0.27
  10   2 -21    9.20    0.84
  10  -2 -21    9.01    0.81
  10   2 -20    6.07    0.66
  10  -2 -20    4.35    0.55
  10  -2 -19    8.93    0.75
  10   2 -19    8.18    0.76
  10  -2 -18    3.85    0.48
  10   2 -18    3.80    0.50
  10   2 -17    5.99    0.62
  10  -2 -17    3.96    0.47
  10  -2 -16    0.79    0.26
  10   2 -16    0.68    0.26
  10  -2 -15    5.86    0.56
  10   2 -15    6.64    0.61
  10  -2 -14    6.38    0.54
  10   2 -14    6.44    0.58
  10  -2 -13    0.90    0.25
  10   2 -13    1.02    0.28
  10  -2 -12    1.01    0.24
  10   2 -12    1.27    0.29
  10  -2 -11   11.86    0.69
  10   2 -11   11.57    0.74
  10  -2 -11   10.60    0.60
  10  -2 -10    0.50    0.20
  10  -2 -10    0.22    0.19
  10   2 -10    0.58    0.26
  10  -2  -9    4.70    0.43
  10  -2  -9    4.00    0.39
  10  -2  -8    3.33    0.37
  10  -2  -8    4.51    0.41
  10  -2  -7    7.97    0.57
  10   2  -7    8.47    0.59
  10  -2  -6    9.40    0.61
  10   2  -6    9.16    0.64
  10  -2  -5    3.86    0.41
  10   2  -5    4.97    0.48
  10  -2  -4    7.85    0.59
  10   2  -4    9.56    0.66
  10  -2  -3   10.45    0.68
  10   2  -3   10.03    0.67
  10  -2  -2    1.97    0.32
  10   2  -2    2.41    0.35
 -10  -2   2    1.53    0.28
  10   2  -1   11.46    0.75
  10  -2  -1   11.65    0.75
 -10  -2   1   11.61    0.73
  10  -2   0    1.59    0.31
  10   2   0    0.88    0.27
 -10  -2   0    1.84    0.31
  10  -2   1    1.51    0.33
  10   2   1    1.66    0.33
 -10  -2  -1    2.39    0.35
  10  -2   2   16.97    0.97
  10   2   2   17.31    0.98
 -10  -2  -2   17.27    0.91
  10  -2   3    7.96    0.67
  10   2   3    6.88    0.62
 -10  -2  -3    8.48    0.63
  10  -2   4    3.99    0.49
  10   2   4    3.95    0.49
 -10  -2  -4    4.30    0.45
  10  -2   5    5.86    0.60
  10   2   5    6.38    0.62
 -10  -2  -5    5.48    0.51
 -10  -2  -6    2.05    0.32
  10  -2   6    2.07    0.37
  10   2   6    1.81    0.34
  10   2   7    9.25    0.76
  10  -2   7    9.81    0.78
 -10  -2  -7    8.45    0.63
  10  -2   8    5.28    0.61
  10   2   8    5.04    0.56
 -10  -2  -8    5.91    0.54
  10   2   9   15.83    1.03
  10  -2   9   15.53    1.03
 -10  -2  -9   17.19    0.92
  10  -2  10    3.52    0.53
  10   2  10    3.98    0.55
 -10  -2 -10    3.90    0.44
 -10  -2 -11    2.68    0.38
  10  -2  11    2.28    0.44
  10   2  11    1.53    0.38
 -10  -2 -12    1.95    0.33
  10  -2  12    1.86    0.41
  10   2  12    1.04    0.32
  10  -2  13    3.48    0.52
  10   2  13    3.61    0.52
  10  -2  14    1.14    0.37
  10   2  14    1.04    0.32
  10  -2  15    0.27    0.22
  10   2  15    0.35    0.23
  10   2  16    0.23    0.27
  10  -2  16    0.73    0.31
  10   2  17    1.94    0.42
  10  -2  17    1.78    0.43
  10  -2  18   -0.27    0.32
  10   2  18    0.45    0.26
  10  -2  19    0.54    0.29
  10   2  19    0.84    0.33
  10  -4 -25    1.78    0.43
  10  -4 -24    0.21    0.18
  10   4 -24    0.38    0.32
  10  -4 -23    0.52    0.31
  10   4 -23   -0.17    0.29
  10  -4 -22    3.24    0.51
  10   4 -22    2.91    0.50
  10  -4 -21    3.87    0.52
  10   4 -21    4.46    0.61
  10  -4 -20    1.47    0.36
  10   4 -20    1.86    0.41
  10  -4 -19    0.82    0.26
  10   4 -19    0.87    0.31
  10   4 -18    4.59    0.57
  10  -4 -18    5.48    0.57
  10  -4 -17    2.16    0.37
  10   4 -17    1.46    0.37
  10  -4 -16    0.25    0.19
  10   4 -16    0.42    0.22
  10  -4 -15    4.24    0.45
  10   4 -15    4.24    0.50
  10  -4 -14    0.46    0.21
  10   4 -14    0.43    0.23
  10  -4 -13    1.68    0.29
  10  -4 -13    2.22    0.26
  10   4 -13    1.56    0.34
  10  -4 -12    1.94    0.30
  10  -4 -12    1.96    0.26
  10   4 -12    2.52    0.40
  10  -4 -11    3.22    0.33
  10  -4 -11    3.16    0.36
  10   4 -11    2.99    0.42
  10  -4 -10    2.18    0.30
  10  -4 -10    1.62    0.25
  10   4 -10    2.52    0.39
  10  -4  -9    0.97    0.21
  10  -4  -9    1.11    0.22
  10  -4  -8    6.22    0.48
  10  -4  -8    7.00    0.49
  10  -4  -7   14.00    0.75
  10  -4  -7   13.53    0.68
  10  -4  -6    8.35    0.59
  10  -4  -5   22.99    1.03
 -10  -4   5   20.70    1.04
  10  -4  -4    7.19    0.57
 -10  -4   4    7.60    0.61
  10  -4  -3    1.20    0.28
  10   4  -3    1.64    0.33
 -10  -4   3    1.21    0.28
  10  -4  -2    6.87    0.58
  10   4  -2    8.36    0.66
 -10  -4   2    7.82    0.62
  10  -4  -1    3.94    0.45
  10   4  -1    3.52    0.46
 -10  -4   1    4.34    0.47
  10  -4   0    6.48    0.58
  10   4   0    6.66    0.59
 -10  -4   0    4.94    0.50
 -10  -4  -1    3.00    0.39
  10  -4   1    2.87    0.41
  10   4   1    3.89    0.48
 -10  -4  -2    1.59    0.28
  10  -4   2    1.00    0.27
  10   4   2    1.13    0.31
  10  -4   3   12.66    0.86
  10   4   3   13.59    0.87
 -10  -4  -3   14.00    0.83
 -10  -4  -4    0.03    0.18
  10  -4   4    0.27    0.18
  10   4   4    0.58    0.27
 -10  -4  -5   -0.03    0.17
  10  -4   5   -0.10    0.21
  10   4   5    0.17    0.24
 -10  -4  -6    3.39    0.44
  10  -4   6    3.25    0.46
  10   4   6    3.24    0.47
  10  -4   7    9.09    0.77
  10   4   7    9.57    0.78
 -10  -4  -7    8.65    0.68
  10  -4   8    5.18    0.59
  10   4   8    5.59    0.61
 -10  -4  -8    5.69    0.57
  10  -4   9    8.41    0.77
  10   4   9    9.46    0.79
 -10  -4  -9    8.74    0.68
  10   4  10   13.63    0.95
  10  -4  10   12.81    0.96
 -10  -4 -10   13.47    0.86
 -10  -4 -11    0.37    0.18
  10  -4  11    0.99    0.31
  10   4  11    0.85    0.30
 -10  -4 -12    0.07    0.17
  10  -4  12   -0.06    0.25
  10   4  12   -0.12    0.22
  10   4  13    4.87    0.61
  10  -4  13    4.16    0.60
 -10  -4 -13    4.33    0.49
  10  -4  14    0.11    0.23
  10   4  14   -0.01    0.22
  10  -4  15    0.19    0.24
  10   4  15    0.01    0.25
  10  -4  16    2.75    0.52
  10   4  16    3.05    0.53
  10  -4  17    2.92    0.56
  10   4  17    2.63    0.49
  10  -4  18    0.06    0.25
  10   4  18    1.28    0.40
  10  -4  19    0.91    0.36
  10  -6 -25    0.36    0.23
  10  -6 -24    0.69    0.29
  10  -6 -23    0.43    0.25
  10   6 -23    0.41    0.27
  10  -6 -22    1.39    0.34
  10   6 -22    1.32    0.36
  10  -6 -21    0.16    0.22
  10   6 -21    0.46    0.26
  10  -6 -20    0.50    0.22
  10   6 -20    0.12    0.22
  10  -6 -19    1.62    0.31
  10   6 -19    2.21    0.44
  10   6 -18    9.23    0.80
  10  -6 -18    7.98    0.67
  10  -6 -17    1.84    0.32
  10   6 -17    2.24    0.39
  10  -6 -16    0.01    0.17
  10   6 -16   -0.05    0.21
  10  -6 -15    0.50    0.20
  10   6 -15    0.43    0.21
  10  -6 -14    3.44    0.38
  10   6 -14    3.55    0.49
  10  -6 -13    6.57    0.52
  10   6 -13    6.59    0.62
  10  -6 -13    6.69    0.43
  10  -6 -12    2.25    0.31
  10  -6 -12    1.88    0.25
  10   6 -12    2.00    0.36
  10  -6 -11    1.32    0.24
  10  -6 -11    0.68    0.18
  10   6 -11    1.23    0.34
  10  -6 -10    3.04    0.32
  10  -6 -10    3.55    0.36
  10  -6  -9    8.37    0.51
  10  -6  -9    8.20    0.55
  10  -6  -8    0.68    0.20
  10  -6  -8    0.55    0.18
  10  -6  -7    3.12    0.31
  10  -6  -7    3.27    0.36
 -10  -6   7    3.28    0.41
  10  -6  -6    8.78    0.61
  10  -6  -6    8.98    0.50
 -10  -6   6    8.71    0.68
  10  -6  -5    0.39    0.18
 -10  -6   5    0.68    0.24
  10  -6  -4    7.35    0.59
 -10  -6   4    7.28    0.61
 -10  -6   3   12.26    0.80
 -10  -6   2   26.22    1.22
 -10  -6   1    5.27    0.53
 -10  -6   0    6.72    0.60
 -10  -6  -1    2.05    0.36
  10   6   1    2.32    0.42
  10   6   2    8.51    0.70
 -10  -6  -2    7.83    0.66
 -10  -6  -3    3.21    0.41
  10   6   3    3.30    0.49
 -10  -6  -4    2.16    0.36
  10   6   4    2.17    0.42
 -10  -6  -5    0.72    0.26
  10   6   5    1.81    0.40
  10   6   6    6.98    0.66
 -10  -6  -6    6.06    0.59
 -10  -6  -7    3.84    0.49
  10   6   7    3.17    0.48
 -10  -6  -8    0.69    0.24
  10   6   8    0.64    0.26
 -10  -6  -9    1.28    0.32
  10   6   9    1.12    0.35
  10  -6  10    4.62    0.59
  10   6  10    4.74    0.58
 -10  -6 -10    6.16    0.60
  10  -6  11    0.68    0.24
 -10  -6 -11    1.40    0.34
  10   6  11    1.49    0.36
  10  -6  12    4.09    0.58
  10   6  12    4.55    0.59
 -10  -6 -12    4.96    0.56
  10  -6  13    3.07    0.52
 -10  -6 -13    3.51    0.48
  10   6  13    3.55    0.51
  10  -6  14    3.93    0.59
 -10  -6 -14    2.45    0.43
  10   6  14    3.47    0.52
  10  -6  15    0.27    0.25
  10   6  15    0.47    0.30
  10  -6  16    2.39    0.47
  10   6  16    2.59    0.48
  10  -6  17    0.40    0.29
  10   6  17    1.72    0.41
  10  -6  18    0.58    0.32
  10  -8 -24    0.90    0.30
  10  -8 -23    0.51    0.23
  10   8 -22    0.86    0.37
  10  -8 -22    0.88    0.28
  10  -8 -21    1.17    0.33
  10   8 -21    1.30    0.41
  10  -8 -20    1.99    0.37
  10   8 -20    1.71    0.39
  10  -8 -19    1.08    0.27
  10   8 -19    1.96    0.45
  10   8 -18    5.36    0.63
  10  -8 -18    6.49    0.60
  10  -8 -17    2.36    0.35
  10   8 -17    2.42    0.44
  10   8 -16    9.07    0.79
  10  -8 -16    8.01    0.62
  10   8 -15    5.40    0.61
  10  -8 -15    5.44    0.50
  10  -8 -14    0.93    0.22
  10   8 -14    0.73    0.29
  10   8 -13    4.20    0.51
  10  -8 -13    4.23    0.40
  10  -8 -12   -0.05    0.14
  10  -8 -12    0.10    0.11
  10   8 -12    0.10    0.24
  10  -8 -11    6.20    0.45
  10  -8 -11    6.35    0.47
  10   8 -11    7.10    0.65
  10  -8 -10    7.03    0.46
  10  -8 -10    6.85    0.51
  10  -8  -9    2.06    0.25
  10  -8  -9    2.14    0.29
  10  -8  -8   11.08    0.55
  10  -8  -8   11.25    0.70
 -10  -8   8   11.27    0.80
  10  -8  -7    4.89    0.34
 -10  -8   7    5.02    0.53
  10  -8  -6    2.32    0.23
 -10  -8   6    1.65    0.35
 -10  -8   5    3.04    0.43
  10  -8  -5    3.00    0.26
 -10  -8   4    2.31    0.38
 -10  -8   3    3.07    0.43
 -10  -8   2    7.09    0.63
 -10  -8   1    1.54    0.35
 -10  -8   0    0.95    0.30
 -10  -8  -1   10.79    0.78
 -10  -8  -2   11.18    0.81
 -10  -8  -3   16.44    1.01
 -10  -8  -4    0.81    0.31
 -10  -8  -5    3.77    0.49
 -10  -8  -6    7.94    0.69
 -10  -8  -7    4.74    0.55
 -10  -8  -8    0.62    0.28
 -10  -8  -9    7.76    0.70
 -10  -8 -10    2.72    0.44
 -10  -8 -11    1.11    0.33
 -10  -8 -12    2.07    0.39
 -10  -8 -13    2.69    0.46
 -10  -8 -14    0.85    0.28
  10  -8  15    1.50    0.41
 -10  -8 -15    2.08    0.43
  10  -8  16    2.46    0.51
  10  -8  17    0.20    0.26
  10  10 -21    2.36    0.50
  10  10 -20    0.99    0.33
  10  10 -19    1.48    0.37
  10  10 -18    0.03    0.29
  10  10 -17    0.86    0.27
  10  10 -16    5.42    0.63
  10  10 -15    4.15    0.56
  10  10 -14    5.77    0.63
  10 -10 -14    5.17    0.45
  10 -10 -13    2.00    0.27
  10  10 -13    1.75    0.38
  10 -10 -12    1.38    0.21
  10 -10 -12    1.58    0.24
  10  10 -12    2.11    0.41
  10 -10 -11    8.67    0.57
  10  10 -11    7.16    0.68
  10 -10 -11    8.17    0.49
 -10 -10  10   11.18    0.80
  10 -10 -10   10.46    0.54
 -10 -10   9    4.18    0.50
  10 -10  -9    3.88    0.30
  10 -10  -8    1.55    0.18
 -10 -10   8    1.35    0.31
  10 -10  -7   13.41    0.54
 -10 -10   7   14.40    0.91
 -10 -10   6    1.63    0.35
  10 -10  -6    1.71    0.18
  10 -10  -5    4.83    0.28
 -10 -10   5    6.30    0.61
  10 -10  -4    8.31    0.36
 -10 -10   4    8.01    0.70
 -10 -10   3    1.42    0.33
  10 -10  -3    1.50    0.15
 -10 -10   2    3.01    0.43
 -10 -10   1    0.44    0.25
 -10 -10   0   17.92    1.07
 -10 -10  -1   12.34    0.89
 -10 -10  -2    3.78    0.51
 -10 -10  -3    2.65    0.41
 -10 -10  -4    2.18    0.41
 -10 -10  -5    0.10    0.22
 -10 -10  -6    2.66    0.44
 -10 -10  -7    1.50    0.38
 -10 -10  -8    3.92    0.54
 -10 -10  -9    0.10    0.22
 -10 -10 -10    1.15    0.33
 -10 -10 -11    0.95    0.36
 -10 -10 -12    0.28    0.28
 -10 -10 -13    2.24    0.44
 -10 -10 -14    0.24    0.24
 -10 -10 -15   -0.01    0.26
  10  12 -20    0.47    0.29
  10  12 -19    3.22    0.53
  10  12 -18    3.64    0.55
  10  12 -17    1.06    0.35
  10  12 -16    1.44    0.40
  10  12 -15    0.02    0.19
  10  12 -14    4.18    0.54
  10  12 -13    2.49    0.44
  10  12 -12    1.88    0.40
  10  12 -11    5.55    0.61
 -10 -12  11    5.53    0.59
 -10 -12  10    1.15    0.30
 -10 -12   9    1.05    0.31
 -10 -12   8    0.32    0.20
 -10 -12   7    3.42    0.47
 -10 -12   6   10.33    0.81
 -10 -12   5    5.42    0.59
 -10 -12   4    9.05    0.75
 -10 -12   3   14.29    0.96
 -10 -12   2   -0.04    0.19
 -10 -12   1    0.47    0.22
 -10 -12   0    6.84    0.67
 -10 -12  -1    1.33    0.33
 -10 -12  -2    7.35    0.71
 -10 -12  -3    2.34    0.43
 -10 -12  -4    4.38    0.56
 -10 -12  -5    0.35    0.20
 -10 -12  -6    4.32    0.58
 -10 -12  -7    1.56    0.39
 -10 -12  -8    0.73    0.29
 -10 -12  -9    3.01    0.49
 -10 -12 -10    1.87    0.44
 -10 -12 -11    1.55    0.40
 -10 -12 -12    2.64    0.47
 -10 -12 -13    0.40    0.30
 -10 -12 -14    0.62    0.32
 -10 -12 -15    0.00    0.25
 -10 -12 -16    2.31    0.48
  10  14 -19    2.94    0.54
  10  14 -18   -0.12    0.29
  10  14 -17    3.73    0.57
  10  14 -16    0.60    0.36
  10  14 -15    2.02    0.42
  10  14 -14    1.43    0.36
  10  14 -13    1.42    0.37
  10  14 -12    3.03    0.49
 -10 -14  12    2.95    0.46
  10  14 -11    2.40    0.45
 -10 -14  11    1.86    0.37
 -10 -14  10    0.95    0.32
 -10 -14   9    2.45    0.45
 -10 -14   8    5.29    0.59
 -10 -14   7    3.83    0.52
 -10 -14   6    0.45    0.24
 -10 -14   5    5.66    0.63
 -10 -14   4    0.70    0.27
 -10 -14   3    1.92    0.38
 -10 -14   2    1.49    0.38
 -10 -14   1    3.68    0.54
 -10 -14   0    0.52    0.20
 -10 -14  -1    4.27    0.57
 -10 -14  -2    2.69    0.48
 -10 -14  -3    5.51    0.66
 -10 -14  -4    0.83    0.35
 -10 -14  -5    7.74    0.77
 -10 -14  -6    0.38    0.28
 -10 -14  -7    1.45    0.39
 -10 -14  -8    1.41    0.41
 -10 -14  -9    1.13    0.35
 -10 -14 -10    0.57    0.30
 -10 -14 -11    0.33    0.26
 -10 -14 -12    1.60    0.42
 -10 -14 -13    2.03    0.46
 -10 -14 -14    0.17    0.29
 -10 -14 -15    0.92    0.37
  10  16 -18    0.65    0.24
  10  16 -17    0.33    0.26
  10  16 -16    3.65    0.58
  10  16 -15    0.28    0.24
  10  16 -14    0.86    0.34
  10  16 -13    0.86    0.31
 -10 -16  13    0.85    0.28
  10  16 -12    2.66    0.46
 -10 -16  12    2.19    0.42
  10  16 -11    0.20    0.28
 -10 -16  11    0.10    0.20
  10  16 -10    1.60    0.41
 -10 -16  10    1.73    0.40
 -10 -16   9    2.12    0.42
 -10 -16   8    0.55    0.26
 -10 -16   7    0.26    0.24
 -10 -16   6    1.73    0.37
 -10 -16   5    0.91    0.30
 -10 -16   4    1.95    0.42
 -10 -16   3    2.63    0.47
 -10 -16   2    6.54    0.71
 -10 -16   1    1.52    0.38
 -10 -16   0    4.69    0.61
 -10 -16  -1    1.00    0.36
 -10 -16  -2    2.79    0.49
 -10 -16  -3    0.11    0.22
 -10 -16  -4    3.08    0.55
 -10 -16  -5    0.35    0.29
 -10 -16  -6    0.35    0.27
 -10 -16  -7    1.15    0.38
 -10 -16  -8    4.13    0.63
 -10 -16  -9    0.56    0.23
 -10 -16 -10   -0.46    0.29
 -10 -16 -11    0.88    0.37
  10  18 -16    0.89    0.35
  10  18 -15    1.38    0.41
  10  18 -14    1.06    0.36
  10  18 -13    6.25    0.73
 -10 -18  13    6.32    0.69
  10  18 -12    2.48    0.46
 -10 -18  12    1.99    0.42
  10  18 -11    0.87    0.38
 -10 -18  11    1.23    0.36
 -10 -18  10    0.09    0.19
  10  18 -10    0.20    0.28
 -10 -18   9    2.22    0.43
 -10 -18   8    0.44    0.28
 -10 -18   7    1.49    0.37
 -10 -18   6    0.30    0.26
 -10 -18   5    2.00    0.42
 -10 -18   4   -0.20    0.23
 -10 -18   3    3.92    0.59
 -10 -18   2    1.89    0.43
 -10 -18   1    1.92    0.40
 -10 -18   0    2.14    0.48
 -10 -18  -1    1.14    0.34
 -10 -18  -2    0.70    0.34
 -10 -18  -3    0.57    0.36
 -10 -18  -4    3.30    0.56
 -10 -18  -5    1.67    0.44
 -10 -18  -6    1.53    0.47
 -10 -18  -7    0.93    0.35
 -10 -18  -8    0.51    0.26
  10  20 -13    2.52    0.49
  10  20 -12    0.17    0.30
 -10 -20  12    0.91    0.36
  10  20 -11    1.15    0.37
 -10 -20  11    0.75    0.28
 -10 -20  10    0.49    0.25
  10  20 -10    0.28    0.26
 -10 -20   9    4.69    0.63
  10  20  -9    4.69    0.64
 -10 -20   8    0.35    0.28
 -10 -20   7    3.43    0.57
 -10 -20   6    2.64    0.48
 -10 -20   5    1.81    0.44
 -10 -20   4    0.37    0.28
 -10 -20   3    1.68    0.44
 -10 -20   2    1.37    0.40
 -10 -20   1    0.96    0.33
 -10 -20   0    0.69    0.34
 -10 -20  -1    2.98    0.55
 -10 -20  -2    0.26    0.32
 -10 -20  -3    2.14    0.50
 -10 -22  11   -0.39    0.31
 -10 -22  10    0.85    0.36
  10  22 -10    0.88    0.33
 -10 -22   9    0.64    0.25
  10  22  -9    0.42    0.33
 -10 -22   8    0.74    0.32
 -10 -22   7    0.13    0.30
 -10 -22   6    2.38    0.48
 -10 -22   5    0.96    0.34
 -10 -22   4    0.09    0.24
 -10 -22   3   -0.15    0.30
  11  -1 -24    0.35    0.20
  11   1 -24    0.12    0.24
  11  -1 -23   -0.10    0.19
  11   1 -23    0.35    0.27
  11  -1 -22    0.52    0.30
  11   1 -22    0.77    0.32
  11  -1 -21    3.26    0.52
  11   1 -21    3.13    0.48
  11  -1 -20    1.34    0.33
  11   1 -20    1.36    0.34
  11  -1 -19    1.25    0.33
  11   1 -19    1.63    0.36
  11  -1 -18    0.14    0.17
  11   1 -18    0.50    0.24
  11  -1 -17    2.28    0.40
  11   1 -17    2.35    0.42
  11  -1 -16    4.27    0.52
  11   1 -16    3.91    0.48
  11  -1 -15    6.77    0.61
  11   1 -15    5.80    0.57
  11  -1 -14    0.26    0.18
  11   1 -14    0.53    0.20
  11  -1 -13   19.44    1.01
  11   1 -13   19.31    1.03
  11  -1 -12    1.85    0.34
  11   1 -12    1.62    0.30
  11  -1 -11   14.68    0.84
  11   1 -11   14.15    0.84
  11  -1 -10    0.77    0.24
  11  -1 -10    1.40    0.31
  11   1 -10    0.99    0.29
  11  -1  -9    3.77    0.40
  11  -1  -9    4.51    0.45
  11  -1  -8    0.77    0.24
  11   1  -8    0.83    0.24
  11  -1  -7   16.47    0.89
  11   1  -7   17.09    0.90
  11  -1  -6    9.31    0.65
  11   1  -6    9.45    0.68
  11  -1  -5   12.51    0.77
  11   1  -5   11.62    0.76
  11  -1  -4    1.96    0.34
  11   1  -4    2.62    0.40
  11  -1  -3   16.71    0.93
  11   1  -3   17.76    0.97
  11  -1  -2    2.87    0.40
  11   1  -2    3.45    0.44
  11  -1  -1    4.11    0.48
  11   1  -1    4.25    0.49
  11  -1   0    2.99    0.43
  11   1   0    3.29    0.44
  11  -1   1    1.78    0.34
  11   1   1    1.98    0.36
 -11  -1  -1    2.25    0.35
  11  -1   2    0.66    0.24
  11   1   2    0.46    0.24
 -11  -1  -2    0.51    0.21
  11  -1   3    1.36    0.33
  11   1   3    1.48    0.31
 -11  -1  -3    1.11    0.26
  11  -1   4    5.31    0.58
  11   1   4    6.34    0.64
 -11  -1  -4    5.29    0.53
  11  -1   5    2.84    0.45
  11   1   5    2.38    0.41
 -11  -1  -5    1.85    0.32
  11   1   6    9.11    0.76
 -11  -1  -6    9.38    0.68
  11  -1   6    9.62    0.80
  11  -1   7   10.49    0.85
  11   1   7    9.62    0.81
 -11  -1  -7   10.77    0.73
  11  -1   8    4.57    0.60
  11   1   8    5.05    0.61
 -11   1  -8    4.72    0.46
 -11  -1  -8    4.79    0.49
  11  -1   9    3.02    0.48
  11   1   9    4.25    0.56
 -11   1  -9    3.74    0.40
 -11  -1  -9    3.79    0.46
  11  -1  10    0.81    0.29
  11   1  10    1.76    0.38
 -11   1 -10    1.20    0.25
 -11  -1 -10    1.21    0.28
  11  -1  11   -0.22    0.27
  11   1  11    0.18    0.24
 -11  -1 -11    0.47    0.19
  11  -1  12   -0.15    0.27
  11   1  12   -0.18    0.27
  11  -1  13    0.61    0.25
  11   1  13    0.83    0.36
  11  -1  14    1.86    0.40
  11   1  14    1.75    0.40
  11  -1  15    1.07    0.33
  11   1  15    0.40    0.27
  11  -1  16   -0.15    0.26
  11   1  16    0.28    0.28
  11  -1  17    1.99    0.48
  11   1  17    2.41    0.50
  11   1  18    0.13    0.27
  11  -3 -25    0.26    0.26
  11  -3 -24    5.84    0.71
  11  -3 -23    2.36    0.45
  11   3 -23    2.61    0.51
  11  -3 -22    1.63    0.37
  11   3 -22    1.82    0.42
  11  -3 -21    0.96    0.29
  11   3 -21    1.17    0.32
  11   3 -20   10.72    0.90
  11  -3 -20    9.95    0.82
  11  -3 -19    1.05    0.29
  11   3 -19    1.57    0.40
  11  -3 -18    0.20    0.22
  11   3 -18    0.68    0.27
  11  -3 -17    1.07    0.29
  11   3 -17    0.83    0.29
  11  -3 -16    7.51    0.64
  11   3 -16    7.70    0.70
  11  -3 -15    2.73    0.40
  11   3 -15    3.42    0.47
  11  -3 -14    9.75    0.69
  11   3 -14    8.43    0.71
  11  -3 -13    0.31    0.18
  11   3 -13    0.25    0.22
  11  -3 -12    2.55    0.35
  11  -3 -12    2.62    0.32
  11   3 -12    2.60    0.41
  11  -3 -11    1.24    0.28
  11  -3 -11    1.05    0.23
  11   3 -11    1.21    0.33
  11  -3 -10    4.97    0.45
  11  -3 -10    5.57    0.48
  11   3 -10    6.52    0.59
  11  -3  -9    4.04    0.41
  11  -3  -9    3.52    0.38
  11  -3  -8    3.84    0.41
  11  -3  -8    3.79    0.41
  11  -3  -7    2.42    0.34
  11  -3  -6    2.97    0.37
  11   3  -5    4.90    0.53
  11  -3  -5    3.54    0.42
  11  -3  -4   14.01    0.84
  11   3  -4   13.32    0.84
  11  -3  -3    5.96    0.57
  11   3  -3    7.41    0.63
  11  -3  -2    0.51    0.20
  11   3  -2    0.56    0.30
 -11  -3   2    0.92    0.27
  11  -3  -1    0.64    0.25
  11   3  -1    1.64    0.36
 -11  -3   1    1.43    0.32
  11  -3   0    8.86    0.71
  11   3   0    9.20    0.71
 -11  -3   0    9.17    0.69
  11  -3   1    0.31    0.24
  11   3   1    0.44    0.26
 -11  -3  -1    0.40    0.18
  11  -3   2    0.96    0.29
  11   3   2    0.73    0.28
 -11  -3  -2    0.63    0.25
 -11  -3  -3    0.21    0.20
  11  -3   3    0.11    0.23
  11   3   3    0.17    0.20
  11  -3   4    9.05    0.76
  11   3   4    8.55    0.74
 -11  -3  -4    8.78    0.68
 -11  -3  -5    1.46    0.31
  11  -3   5    1.38    0.36
  11   3   5    1.12    0.35
  11  -3   6    7.91    0.73
  11   3   6    9.29    0.78
 -11  -3  -6    9.89    0.72
 -11  -3  -7    2.95    0.42
  11  -3   7    2.26    0.43
  11   3   7    2.60    0.46
  11  -3   8    5.81    0.65
  11   3   8    5.96    0.64
 -11  -3  -8    4.87    0.52
 -11  -3  -9    1.13    0.29
  11  -3   9    0.59    0.28
  11   3   9    0.73    0.32
  11  -3  10   11.51    0.95
  11   3  10   12.58    0.96
 -11  -3 -10   12.22    0.83
 -11  -3 -11    1.33    0.30
  11  -3  11    1.19    0.34
  11   3  11    1.06    0.32
 -11  -3 -12    0.66    0.24
  11  -3  12    0.31    0.27
  11   3  12    0.07    0.21
  11  -3  13    0.95    0.33
  11   3  13    0.55    0.29
  11  -3  14    1.67    0.41
  11   3  14    2.18    0.47
  11  -3  15    0.82    0.36
  11   3  15    0.58    0.33
  11  -3  16    0.72    0.34
  11   3  16    0.86    0.33
  11  -3  17   -0.01    0.28
  11   3  17    0.98    0.36
  11   3  18    4.15    0.64
  11  -5 -25    0.54    0.25
  11  -5 -24    0.18    0.26
  11  -5 -23    1.87    0.42
  11   5 -23    2.22    0.51
  11  -5 -22    0.71    0.28
  11   5 -22    0.78    0.33
  11  -5 -21    2.80    0.46
  11   5 -21    2.78    0.50
  11  -5 -20    0.76    0.27
  11   5 -20    1.56    0.42
  11  -5 -19    2.44    0.42
  11   5 -19    2.18    0.44
  11  -5 -18    0.13    0.17
  11   5 -18   -0.24    0.23
  11  -5 -17    2.79    0.40
  11   5 -17    3.03    0.48
  11  -5 -16    1.43    0.30
  11   5 -16    1.32    0.36
  11  -5 -15    1.30    0.28
  11   5 -15    1.52    0.35
  11  -5 -14    0.35    0.17
  11   5 -14    0.18    0.21
  11  -5 -13    0.18    0.16
  11  -5 -13    0.17    0.14
  11  -5 -12    0.23    0.15
  11  -5 -12    0.33    0.15
  11   5 -12    0.29    0.22
  11  -5 -11    2.48    0.31
  11  -5 -11    2.69    0.33
  11  -5 -10    7.12    0.52
  11  -5 -10    6.85    0.52
  11  -5  -9    0.95    0.23
  11  -5  -9    0.89    0.22
  11  -5  -8    3.21    0.34
  11  -5  -8    2.93    0.37
  11  -5  -7    8.66    0.63
  11  -5  -7    8.72    0.55
  11  -5  -6    8.86    0.65
  11  -5  -5    4.27    0.48
 -11  -5   5    4.62    0.51
  11  -5  -4    6.11    0.56
 -11  -5   4    5.67    0.56
  11  -5  -3   17.22    0.97
 -11  -5   3   17.41    0.99
  11  -5  -2    1.27    0.30
  11   5  -2    1.65    0.35
 -11  -5   2    0.78    0.25
  11  -5  -1    8.26    0.69
  11   5  -1    9.17    0.74
 -11  -5   1    8.16    0.68
  11  -5   0    7.07    0.65
  11   5   0    6.81    0.64
 -11  -5   0    7.14    0.63
 -11  -5  -1    2.97    0.42
  11  -5   1    2.59    0.41
  11   5   1    2.77    0.44
 -11  -5  -2    0.53    0.25
  11  -5   2    0.03    0.21
  11   5   2    0.44    0.30
 -11  -5  -3    0.38    0.22
  11  -5   3    0.14    0.21
  11   5   3    0.65    0.31
  11  -5   4    7.53    0.70
  11   5   4    8.55    0.75
 -11  -5  -4    7.41    0.65
 -11  -5  -5    1.39    0.32
  11  -5   5    1.57    0.34
  11   5   5    1.83    0.44
 -11  -5  -6    2.41    0.39
  11  -5   6    2.70    0.44
  11   5   6    2.96    0.46
  11  -5   7    5.53    0.65
  11   5   7    5.90    0.65
 -11  -5  -7    5.94    0.60
 -11  -5  -8    0.80    0.27
  11  -5   8    1.12    0.32
  11   5   8    1.66    0.37
 -11  -5  -9    4.00    0.51
  11  -5   9    2.97    0.51
  11   5   9    3.99    0.56
 -11  -5 -10    1.22    0.29
  11  -5  10    0.85    0.32
  11   5  10    1.28    0.38
 -11  -5 -11    3.78    0.49
  11  -5  11    2.87    0.49
  11   5  11    4.31    0.58
 -11  -5 -12    1.13    0.31
  11  -5  12    0.66    0.33
  11   5  12    1.03    0.35
  11  -5  13    2.44    0.47
  11   5  13    2.72    0.49
  11  -5  14    1.30    0.41
  11   5  14    1.43    0.43
  11  -5  15    0.87    0.33
  11   5  15    1.37    0.40
  11  -5  16    2.28    0.52
  11   5  16    1.59    0.43
  11   5  17    1.20    0.38
  11   5  18   -0.05    0.28
  11  -7 -24    0.76    0.27
  11  -7 -23    0.06    0.23
  11  -7 -22    1.25    0.30
  11   7 -22    0.98    0.34
  11  -7 -21    3.32    0.49
  11   7 -21    3.30    0.55
  11  -7 -20    0.12    0.25
  11   7 -20    0.52    0.36
  11  -7 -19    0.11    0.18
  11   7 -19    0.73    0.34
  11  -7 -18    0.99    0.22
  11   7 -18    1.54    0.39
  11  -7 -17    2.31    0.34
  11   7 -17    2.14    0.41
  11  -7 -16    0.93    0.25
  11   7 -16    0.88    0.30
  11  -7 -15    1.95    0.32
  11   7 -15    2.28    0.41
  11  -7 -14    0.45    0.16
  11   7 -14    0.56    0.27
  11  -7 -13    2.02    0.30
  11   7 -13    2.26    0.39
  11  -7 -12    1.18    0.23
  11  -7 -12    0.83    0.20
  11   7 -12    1.31    0.33
  11  -7 -11    6.38    0.48
  11  -7 -11    6.07    0.47
  11   7 -11    6.43    0.63
  11  -7 -10    0.69    0.18
  11  -7 -10    0.88    0.23
  11  -7  -9    6.75    0.47
  11  -7  -9    7.51    0.58
  11  -7  -8    5.98    0.43
  11  -7  -8    6.15    0.53
  11  -7  -7    5.02    0.39
  11  -7  -7    6.07    0.53
 -11  -7   7    5.83    0.58
  11  -7  -6    3.45    0.41
  11  -7  -6    3.50    0.32
 -11  -7   6    3.67    0.49
  11  -7  -5    0.96    0.24
 -11  -7   5    1.45    0.32
  11  -7  -4    3.19    0.43
 -11  -7   4    3.89    0.47
  11  -7  -3    8.83    0.69
 -11  -7   3    9.40    0.75
 -11  -7   2   12.97    0.88
 -11  -7   1   28.91    1.37
 -11  -7   0   16.33    1.00
 -11  -7  -1    0.78    0.26
 -11  -7  -2    1.99    0.39
 -11  -7  -3    3.74    0.48
 -11  -7  -4    1.81    0.35
 -11  -7  -5    0.50    0.25
  11   7   5    0.83    0.33
 -11  -7  -6    1.32    0.35
  11   7   6    1.08    0.37
 -11  -7  -7    4.05    0.52
  11   7   7    5.28    0.63
 -11  -7  -8    3.95    0.53
  11   7   8    3.88    0.55
  11  -7   9    0.60    0.29
 -11  -7  -9    0.92    0.31
  11   7   9    1.37    0.38
  11  -7  10    2.16    0.49
 -11  -7 -10    1.95    0.41
  11   7  10    2.40    0.48
  11  -7  11   11.55    1.00
  11   7  11   13.04    1.01
 -11  -7 -11   13.08    0.96
 -11  -7 -12    2.24    0.45
  11  -7  12    1.26    0.40
  11   7  12    2.81    0.51
 -11  -7 -13    2.84    0.47
  11  -7  13    3.18    0.57
  11  -7  14    0.40    0.27
  11  -7  15    1.09    0.36
  11   9 -21    0.45    0.26
  11   9 -20    1.01    0.40
  11   9 -19    2.29    0.44
  11   9 -18    3.89    0.54
  11   9 -17    1.71    0.39
  11   9 -16    1.78    0.39
  11   9 -15    3.12    0.48
  11   9 -14    5.77    0.64
  11  -9 -14    5.37    0.46
  11  -9 -13    1.87    0.27
  11   9 -13    1.20    0.29
  11  -9 -12    2.36    0.30
  11  -9 -12    2.13    0.29
  11   9 -12    2.22    0.41
  11  -9 -11    0.86    0.19
  11  -9 -11    0.50    0.19
  11   9 -11    0.92    0.31
  11  -9 -10    5.89    0.42
  11  -9 -10    6.30    0.53
  11  -9  -9    4.52    0.35
  11  -9  -9    4.32    0.46
 -11  -9   9    4.97    0.57
  11  -9  -8    6.03    0.40
  11  -9  -8    5.49    0.52
 -11  -9   8    6.71    0.65
  11  -9  -7    0.24    0.11
 -11  -9   7    0.45    0.25
  11  -9  -6    4.98    0.34
 -11  -9   6    5.09    0.57
  11  -9  -5    2.46    0.24
 -11  -9   5    2.09    0.38
  11  -9  -4    6.61    0.38
 -11  -9   4    5.63    0.59
 -11  -9   3    0.19    0.18
 -11  -9   2   -0.08    0.17
 -11  -9   1    4.58    0.55
 -11  -9   0   15.16    0.99
 -11  -9  -1    6.75    0.68
 -11  -9  -2    0.08    0.23
 -11  -9  -3    1.43    0.32
 -11  -9  -4    3.96    0.52
 -11  -9  -5   -0.01    0.19
 -11  -9  -6    1.49    0.35
 -11  -9  -7    0.25    0.26
 -11  -9  -8    2.74    0.46
 -11  -9  -9    1.64    0.36
 -11  -9 -10    0.28    0.22
 -11  -9 -11    0.33    0.30
 -11  -9 -12    0.39    0.23
 -11  -9 -13    0.25    0.22
  11  -9  14    2.46    0.52
 -11  -9 -14    2.89    0.47
  11  11 -20    1.02    0.41
  11  11 -19    4.33    0.63
  11  11 -18    2.92    0.50
  11  11 -17    1.32    0.35
  11  11 -16    0.31    0.27
  11  11 -15    1.89    0.42
  11  11 -14    1.90    0.41
  11  11 -13    0.11    0.26
  11  11 -12    2.53    0.45
  11 -11 -11    2.49    0.35
  11  11 -11    2.55    0.47
 -11 -11  10    0.76    0.26
 -11 -11   9   10.09    0.80
 -11 -11   8    5.03    0.57
 -11 -11   7    3.19    0.47
 -11 -11   6    0.60    0.30
 -11 -11   5    1.05    0.32
 -11 -11   4    0.68    0.29
 -11 -11   3   20.03    1.17
 -11 -11   2    6.16    0.66
 -11 -11   1    5.35    0.61
 -11 -11   0    0.58    0.28
 -11 -11  -1    5.32    0.61
 -11 -11  -2    1.09    0.35
 -11 -11  -3    7.27    0.74
 -11 -11  -4    1.10    0.35
 -11 -11  -5    4.50    0.61
 -11 -11  -6    0.54    0.30
 -11 -11  -7    1.56    0.38
 -11 -11  -8    0.69    0.33
 -11 -11  -9    3.03    0.52
 -11 -11 -10    1.44    0.36
 -11 -11 -11    0.79    0.33
 -11 -11 -12    0.57    0.26
 -11 -11 -13    0.24    0.27
 -11 -11 -14    0.22    0.25
 -11 -11 -15    1.29    0.36
  11  13 -19   -0.11    0.33
  11  13 -18    0.95    0.28
  11  13 -17    2.19    0.45
  11  13 -16    2.48    0.47
  11  13 -15    0.67    0.32
  11  13 -14   -0.02    0.25
  11  13 -13    2.26    0.45
  11  13 -12    3.85    0.54
  11  13 -11    4.53    0.58
 -11 -13  11    4.11    0.54
 -11 -13  10    2.88    0.48
 -11 -13   9    3.84    0.54
 -11 -13   8    5.02    0.60
 -11 -13   7    6.73    0.68
 -11 -13   6    4.34    0.55
 -11 -13   5    1.33    0.35
 -11 -13   4    1.44    0.34
 -11 -13   3    0.56    0.25
 -11 -13   2    2.82    0.48
 -11 -13   1    1.93    0.41
 -11 -13   0    4.81    0.60
 -11 -13  -1   -0.08    0.28
 -11 -13  -2    0.80    0.31
 -11 -13  -3    5.94    0.70
 -11 -13  -4    1.80    0.43
 -11 -13  -5    0.28    0.21
 -11 -13  -6    1.16    0.34
 -11 -13  -7    1.01    0.33
 -11 -13  -8    2.25    0.44
 -11 -13  -9    0.04    0.25
 -11 -13 -10    0.66    0.28
 -11 -13 -11    1.02    0.32
 -11 -13 -12    0.56    0.31
 -11 -13 -13    3.14    0.57
 -11 -13 -14   -0.04    0.28
  11  15 -17    0.90    0.37
  11  15 -16    2.17    0.46
  11  15 -15    1.02    0.36
  11  15 -14    0.77    0.33
  11  15 -13    1.98    0.43
  11  15 -12    0.21    0.27
 -11 -15  12    0.12    0.18
  11  15 -11    5.84    0.68
 -11 -15  11    4.46    0.59
 -11 -15  10    0.42    0.27
 -11 -15   9    1.82    0.42
 -11 -15   8    3.26    0.50
 -11 -15   7    0.34    0.25
 -11 -15   6    1.96    0.42
 -11 -15   5   11.68    0.94
 -11 -15   4    1.51    0.39
 -11 -15   3    4.83    0.62
 -11 -15   2    2.44    0.46
 -11 -15   1    1.01    0.32
 -11 -15   0    1.58    0.40
 -11 -15  -1    0.38    0.31
 -11 -15  -2    3.40    0.56
 -11 -15  -3    0.51    0.27
 -11 -15  -4    2.98    0.53
 -11 -15  -5    5.26    0.68
 -11 -15  -6    0.98    0.36
 -11 -15  -7   -0.01    0.24
 -11 -15  -8   -0.05    0.29
 -11 -15  -9    2.18    0.49
 -11 -15 -10    0.99    0.39
 -11 -15 -11    0.70    0.34
  11  17 -15    0.83    0.37
  11  17 -14    2.29    0.52
  11  17 -13    0.47    0.27
 -11 -17  13    0.64    0.27
  11  17 -12    0.79    0.34
 -11 -17  12    0.50    0.27
  11  17 -11    4.12    0.61
 -11 -17  11    3.84    0.56
 -11 -17  10    1.07    0.34
 -11 -17   9    2.20    0.45
 -11 -17   8    1.68    0.41
 -11 -17   7    0.34    0.26
 -11 -17   6    1.56    0.39
 -11 -17   5    3.75    0.56
 -11 -17   4    0.51    0.28
 -11 -17   3    1.25    0.41
 -11 -17   2    0.02    0.20
 -11 -17   1    0.89    0.33
 -11 -17   0    0.76    0.32
 -11 -17  -1    1.07    0.39
 -11 -17  -2    0.57    0.34
 -11 -17  -3    1.31    0.37
 -11 -17  -4   -0.43    0.32
 -11 -17  -5    6.66    0.80
 -11 -17  -6    2.29    0.51
 -11 -17  -7    4.64    0.70
  11  19 -13    0.17    0.27
 -11 -19  13    0.56    0.28
  11  19 -12    7.06    0.79
 -11 -19  12    5.85    0.72
  11  19 -11    1.12    0.38
 -11 -19  11    0.92    0.34
  11  19 -10    0.60    0.29
 -11 -19  10    0.44    0.23
 -11 -19   9    0.33    0.25
 -11 -19   8    1.70    0.41
 -11 -19   7    1.04    0.35
 -11 -19   6    3.56    0.58
 -11 -19   5    0.26    0.25
 -11 -19   4    0.59    0.36
 -11 -19   3   -0.09    0.25
 -11 -19   2    1.59    0.42
 -11 -19   1    0.27    0.27
 -11 -19   0   -0.32    0.26
 -11 -19  -1    0.51    0.33
 -11 -19  -2    0.42    0.35
 -11 -19  -3    0.59    0.38
 -11 -21  12    0.62    0.33
 -11 -21  11    0.40    0.31
 -11 -21  10    0.32    0.24
 -11 -21   9    2.07    0.47
 -11 -21   8    1.34    0.40
 -11 -21   7    0.32    0.25
 -11 -21   6    2.29    0.48
 -11 -21   5    0.87    0.38
  12   0 -23   -0.46    0.27
  12   0 -22    1.25    0.36
  12   0 -21    0.24    0.23
  12   0 -20    3.73    0.53
  12   0 -19    0.18    0.20
  12   0 -18   11.57    0.88
  12   0 -17    0.24    0.22
  12   0 -16    5.58    0.59
  12   0 -15   -0.20    0.24
  12   0 -14   13.81    0.88
  12   0 -13   -0.21    0.22
  12   0 -12    2.36    0.37
  12   0 -11   -0.32    0.22
  12   0 -10    8.71    0.65
  12   0  -9    0.19    0.23
  12   0  -8    0.97    0.29
  12   0  -7    0.44    0.23
  12   0  -6   31.17    1.35
  12   0  -5    0.20    0.24
  12   0  -4    9.06    0.70
  12   0  -3    0.11    0.21
  12   0  -2    2.58    0.40
  12   0  -1    0.27    0.23
  12   0   0   31.66    1.46
  12   0   1   -0.05    0.23
  12   0   2    1.33    0.29
  12   0   3   -0.13    0.26
  12   0   4    4.32    0.53
  12   0   5    0.36    0.30
  12   0   6    5.80    0.65
 -12   0  -6    6.99    0.59
  12   0   7    0.13    0.22
 -12   0  -7    0.14    0.16
  12   0   8    7.30    0.74
 -12   0  -8    8.76    0.66
  12   0   9   -0.21    0.27
 -12   0  -9   -0.08    0.16
  12   0  10    0.13    0.26
  12   0  11   -0.27    0.27
  12   0  12    1.43    0.41
  12   0  13   -0.17    0.26
  12   0  14    1.62    0.37
  12   0  15   -0.13    0.26
  12  -2 -24    0.04    0.29
  12  -2 -23    3.17    0.53
  12   2 -23    3.46    0.57
  12  -2 -22    0.01    0.21
  12   2 -22    0.72    0.28
  12  -2 -21    2.49    0.44
  12   2 -21    2.88    0.49
  12  -2 -20    5.05    0.60
  12   2 -20    5.44    0.65
  12  -2 -19    1.08    0.31
  12   2 -19    2.10    0.43
  12  -2 -18    2.31    0.40
  12   2 -18    3.23    0.50
  12  -2 -17   -0.14    0.18
  12   2 -17   -0.02    0.22
  12  -2 -16    1.05    0.32
  12   2 -16    0.21    0.21
  12  -2 -15    1.15    0.29
  12   2 -15    1.11    0.31
  12  -2 -14    3.82    0.45
  12   2 -14    3.75    0.48
  12  -2 -13   11.94    0.78
  12   2 -13   11.81    0.82
  12  -2 -12    0.10    0.16
  12   2 -12    0.07    0.20
  12  -2 -11    4.99    0.48
  12   2 -11    4.74    0.52
  12  -2 -11    4.39    0.44
  12  -2 -10    2.82    0.38
  12  -2 -10    3.49    0.41
  12   2 -10    3.44    0.45
  12  -2  -9    9.18    0.65
  12  -2  -9   10.45    0.68
  12  -2  -8    0.62    0.23
  12  -2  -7    8.72    0.66
  12   2  -7    9.05    0.68
  12   2  -6    5.63    0.55
  12  -2  -6    4.30    0.48
  12  -2  -5    1.64    0.33
  12   2  -5    1.99    0.37
  12  -2  -4    1.11    0.29
  12   2  -4    1.99    0.39
  12  -2  -3    3.34    0.45
  12   2  -3    4.82    0.52
  12  -2  -2    8.47    0.70
  12   2  -2    7.84    0.68
  12  -2  -1    0.09    0.22
  12   2  -1    0.29    0.22
  12  -2   0    0.99    0.31
  12   2   0    1.31    0.36
 -12  -2   0    0.91    0.28
  12  -2   1   15.77    1.00
  12   2   1   14.32    0.97
 -12  -2  -1   15.05    0.92
  12  -2   2    7.45    0.68
  12   2   2    6.84    0.68
 -12  -2  -2    6.22    0.60
  12  -2   3    3.68    0.50
  12   2   3    3.32    0.48
 -12  -2  -3    3.02    0.43
  12  -2   4    1.31    0.37
  12   2   4    1.43    0.36
 -12  -2  -4    1.64    0.33
  12  -2   5    7.11    0.71
  12   2   5    5.74    0.64
 -12  -2  -5    6.65    0.63
  12  -2   6    1.20    0.36
  12   2   6    1.48    0.39
 -12  -2  -6    1.22    0.33
  12  -2   7    7.50    0.76
  12   2   7    8.74    0.83
 -12  -2  -7    8.15    0.67
  12  -2   8    2.52    0.47
  12   2   8    2.62    0.50
 -12  -2  -8    2.71    0.42
  12  -2   9    3.11    0.52
  12   2   9    2.90    0.52
 -12  -2  -9    2.71    0.41
  12  -2  10    0.42    0.26
  12   2  10    0.49    0.24
 -12  -2 -10    0.78    0.25
  12  -2  11    3.28    0.54
  12   2  11    2.89    0.50
  12  -2  12    0.07    0.24
  12   2  12    0.06    0.24
  12  -2  13   -0.01    0.27
  12   2  13    0.08    0.24
  12  -2  14    1.18    0.40
  12   2  14    0.44    0.31
  12  -2  15    0.92    0.33
  12   2  15    1.55    0.44
  12   2  16    2.26    0.52
  12  -4 -24    2.68    0.47
  12  -4 -23    2.98    0.50
  12  -4 -22    2.37    0.46
  12   4 -22    2.40    0.50
  12  -4 -21    2.65    0.43
  12   4 -21    2.62    0.50
  12  -4 -20    0.47    0.22
  12   4 -20    0.78    0.32
  12  -4 -19    2.61    0.42
  12   4 -19    2.87    0.50
  12  -4 -18    0.28    0.21
  12   4 -18   -0.32    0.30
  12  -4 -17    6.40    0.61
  12   4 -17    6.10    0.64
  12  -4 -16    4.12    0.48
  12   4 -16    3.24    0.48
  12  -4 -15    0.56    0.24
  12   4 -15    0.11    0.22
  12  -4 -14    3.56    0.44
  12   4 -14    2.29    0.41
  12  -4 -13    3.55    0.41
  12  -4 -13    2.99    0.35
  12   4 -13    3.02    0.46
  12  -4 -12    5.57    0.50
  12  -4 -12    5.68    0.48
  12   4 -12    5.61    0.59
  12  -4 -11    2.01    0.31
  12  -4 -11    1.58    0.28
  12   4 -11    2.03    0.38
  12  -4 -10    0.48    0.20
  12  -4 -10    1.11    0.23
  12  -4  -9   10.85    0.67
  12  -4  -9    9.28    0.66
  12  -4  -8    1.31    0.27
  12  -4  -8    1.21    0.27
  12  -4  -7    2.91    0.39
  12  -4  -6    7.19    0.61
  12  -4  -5    2.48    0.38
  12  -4  -4    3.04    0.44
  12   4  -4    3.55    0.49
  12  -4  -3   22.39    1.18
  12   4  -3   21.98    1.18
 -12  -4   3   23.35    1.19
  12  -4  -2    1.65    0.32
  12   4  -2    2.35    0.44
 -12  -4   2    1.18    0.33
  12  -4  -1    0.12    0.19
 -12  -4   1   -0.06    0.17
  12  -4   0    5.61    0.61
  12   4   0    6.36    0.65
 -12  -4   0    5.63    0.57
  12  -4   1    8.70    0.75
  12   4   1    9.98    0.81
 -12  -4  -1    8.55    0.72
  12  -4   2    2.39    0.44
  12   4   2    2.15    0.40
 -12  -4  -2    2.40    0.39
  12  -4   3    2.37    0.47
  12   4   3    1.84    0.38
 -12  -4  -3    1.64    0.32
 -12  -4  -4    3.78    0.49
  12  -4   4    3.44    0.51
  12   4   4    2.92    0.48
 -12  -4  -5    3.89    0.48
  12  -4   5    3.75    0.54
  12   4   5    3.90    0.55
 -12  -4  -6    1.13    0.33
  12  -4   6    1.27    0.34
  12   4   6    1.08    0.33
 -12  -4  -7    3.42    0.48
  12  -4   7    3.80    0.55
  12   4   7    3.58    0.54
 -12  -4  -8    0.37    0.25
  12  -4   8    0.42    0.30
  12   4   8    1.23    0.38
 -12  -4  -9   -0.05    0.21
  12  -4   9    0.65    0.32
  12   4   9   -0.05    0.27
 -12  -4 -10    0.24    0.20
  12  -4  10    0.04    0.22
  12   4  10    0.71    0.33
 -12  -4 -11    0.46    0.22
  12  -4  11    0.39    0.28
  12   4  11    0.60    0.32
  12  -4  12    1.61    0.42
  12   4  12    2.01    0.45
  12  -4  13    0.22    0.22
  12   4  13    1.48    0.44
  12  -4  14    1.13    0.37
  12   4  14    0.70    0.35
  12   4  15    1.28    0.40
  12  -6 -23    0.78    0.34
  12  -6 -22    0.84    0.25
  12  -6 -21    0.67    0.29
  12   6 -21    0.79    0.34
  12  -6 -20    2.76    0.44
  12   6 -20    2.46    0.50
  12  -6 -19    0.38    0.20
  12   6 -19    0.77    0.34
  12  -6 -18    0.87    0.26
  12   6 -18    1.46    0.36
  12  -6 -17    2.21    0.38
  12   6 -17    2.20    0.41
  12  -6 -16    4.18    0.50
  12   6 -16    3.53    0.50
  12  -6 -15    0.43    0.20
  12   6 -15    0.59    0.30
  12  -6 -14    2.23    0.33
  12   6 -14    2.08    0.43
  12  -6 -13    0.36    0.19
  12   6 -13    0.90    0.35
  12  -6 -12    0.13    0.14
  12  -6 -12    0.22    0.19
  12   6 -12    0.14    0.22
  12  -6 -11    0.86    0.20
  12  -6 -11    0.72    0.18
  12   6 -11    1.31    0.32
  12  -6 -10    8.86    0.58
  12  -6 -10    8.93    0.64
  12  -6  -9    8.62    0.57
  12  -6  -9    8.72    0.65
  12  -6  -8    0.43    0.18
  12  -6  -8    0.31    0.18
  12  -6  -7    0.38    0.21
  12  -6  -7    0.49    0.18
  12  -6  -6    4.69    0.51
  12  -6  -5    2.79    0.39
 -12  -6   5    3.03    0.45
  12  -6  -4    0.80    0.28
 -12  -6   4    1.02    0.28
  12  -6  -3    1.90    0.37
 -12  -6   3    1.43    0.33
  12  -6  -2    0.98    0.31
 -12  -6   2    1.85    0.38
  12  -6  -1    9.75    0.80
 -12  -6   1   11.26    0.83
  12  -6   0   11.32    0.85
 -12  -6   0   10.72    0.83
 -12  -6  -1    1.37    0.32
  12  -6   1    1.12    0.30
  12   6   1    1.96    0.42
 -12  -6  -2    2.05    0.38
  12  -6   2    1.89    0.39
  12   6   2    2.60    0.46
 -12  -6  -3    0.14    0.20
  12  -6   3   -0.07    0.20
  12   6   3    0.23    0.28
  12  -6   4    6.17    0.68
  12   6   4    6.04    0.66
 -12  -6  -4    6.29    0.64
 -12  -6  -5    2.82    0.45
  12  -6   5    2.92    0.52
  12   6   5    2.67    0.50
  12  -6   6    9.81    0.87
  12   6   6   10.40    0.88
 -12  -6  -6   10.02    0.80
  12  -6   7    4.90    0.64
  12   6   7    5.20    0.65
 -12  -6  -7    5.53    0.62
 -12  -6  -8    3.55    0.49
  12  -6   8    3.74    0.57
  12   6   8    4.67    0.62
 -12  -6  -9    1.61    0.40
  12  -6   9    1.46    0.38
  12   6   9    2.25    0.49
 -12  -6 -10    2.10    0.38
  12  -6  10    2.58    0.48
  12   6  10    3.04    0.52
 -12  -6 -11    0.91    0.33
  12  -6  11    0.67    0.33
  12   6  11    1.77    0.45
 -12  -6 -12    4.06    0.54
  12  -6  12    5.88    0.75
  12   6  12    5.49    0.69
  12  -6  13    0.98    0.36
  12   6  13    1.77    0.46
  12  -6  14    1.52    0.42
  12   6  14    2.31    0.52
  12   6  15    1.11    0.38
  12   8 -21    0.59    0.30
  12   8 -20    0.94    0.36
  12   8 -19    4.29    0.60
  12   8 -18    1.48    0.34
  12   8 -17    1.51    0.37
  12   8 -16    0.76    0.28
  12   8 -15    1.25    0.35
  12   8 -14    0.31    0.22
  12  -8 -13    3.05    0.35
  12   8 -13    3.10    0.50
  12  -8 -12    0.42    0.16
  12  -8 -12    0.28    0.15
  12   8 -12    0.76    0.30
  12  -8 -11    1.06    0.22
  12  -8 -11    0.74    0.21
  12   8 -11    0.98    0.37
  12  -8 -10    5.31    0.42
  12  -8 -10    4.89    0.48
  12  -8  -9    4.24    0.37
  12  -8  -9    3.67    0.44
  12  -8  -8    1.49    0.31
  12  -8  -8    1.27    0.21
  12  -8  -7   10.20    0.56
  12  -8  -7   10.11    0.74
 -12  -8   7    9.81    0.79
  12  -8  -6    4.64    0.52
  12  -8  -6    4.82    0.37
 -12  -8   6    5.75    0.61
  12  -8  -5    1.75    0.35
  12  -8  -5    1.69    0.24
 -12  -8   5    1.50    0.38
  12  -8  -4    5.45    0.59
 -12  -8   4    5.65    0.61
  12  -8  -3    1.85    0.38
 -12  -8   3    2.17    0.39
 -12  -8   2    1.92    0.38
  12  -8  -2    1.99    0.38
 -12  -8   1    3.38    0.48
 -12  -8   0    0.01    0.21
 -12  -8  -1    4.59    0.56
 -12  -8  -2    1.66    0.36
 -12  -8  -3    0.14    0.20
 -12  -8  -4    2.59    0.44
 -12  -8  -5    1.06    0.34
 -12  -8  -6    0.70    0.29
 -12  -8  -7    1.50    0.37
  12  -8   7    1.34    0.38
 -12  -8  -8    1.16    0.34
  12  -8   8    0.99    0.34
 -12  -8  -9    1.92    0.37
  12  -8   9    2.11    0.46
 -12  -8 -10    0.24    0.26
  12  -8  10    0.32    0.28
 -12  -8 -11    3.18    0.50
  12  -8  11    2.94    0.54
 -12  -8 -12   -0.28    0.32
  12  -8  12    0.01    0.28
 -12  -8 -13    0.83    0.31
  12  -8  13    1.14    0.41
  12  10 -19   -0.51    0.35
  12  10 -18    3.35    0.53
  12  10 -17    3.44    0.53
  12  10 -16    0.90    0.33
  12  10 -15    0.30    0.26
  12  10 -14    0.15    0.29
  12  10 -13    2.19    0.43
  12  10 -12    3.52    0.52
  12 -10 -11    3.43    0.42
  12 -10 -10    1.00    0.25
  12 -10  -9    1.23    0.28
 -12 -10   9    1.17    0.30
  12 -10  -8    0.89    0.23
 -12 -10   8    0.55    0.24
  12 -10  -7    3.07    0.42
 -12 -10   7    3.09    0.45
 -12 -10   6    2.50    0.46
 -12 -10   5    0.74    0.28
 -12 -10   4    4.42    0.58
 -12 -10   3    9.95    0.84
 -12 -10   2   14.82    1.02
 -12 -10   1    8.43    0.77
 -12 -10   0    4.76    0.61
 -12 -10  -1    8.26    0.78
 -12 -10  -2    0.50    0.27
 -12 -10  -3    1.60    0.38
 -12 -10  -4    0.28    0.22
 -12 -10  -5    1.98    0.44
 -12 -10  -6    1.32    0.38
 -12 -10  -7    3.02    0.49
 -12 -10  -8    1.55    0.38
 -12 -10  -9    0.22    0.25
 -12 -10 -10    0.65    0.36
 -12 -10 -11    0.36    0.27
 -12 -10 -12    1.62    0.41
 -12 -10 -13    0.16    0.23
  12  12 -18    1.35    0.36
  12  12 -17    0.69    0.34
  12  12 -16    1.51    0.40
  12  12 -15    1.88    0.42
  12  12 -14    1.42    0.40
  12  12 -13    0.87    0.37
  12  12 -12    2.39    0.45
  12 -12 -10    7.52    0.64
 -12 -12  10    7.21    0.73
 -12 -12   9    1.60    0.39
 -12 -12   8    2.71    0.47
 -12 -12   7    0.18    0.22
 -12 -12   6    3.05    0.49
 -12 -12   5    5.84    0.68
 -12 -12   4    1.66    0.39
 -12 -12   3    0.70    0.30
 -12 -12   2    1.33    0.36
 -12 -12   1    5.05    0.64
 -12 -12   0    5.55    0.66
 -12 -12  -1    1.70    0.37
 -12 -12  -2    1.23    0.35
 -12 -12  -3    1.85    0.44
 -12 -12  -4    1.74    0.37
 -12 -12  -5    0.82    0.33
 -12 -12  -6    0.54    0.30
 -12 -12  -7    2.77    0.50
 -12 -12  -8    2.10    0.44
 -12 -12  -9    0.51    0.24
 -12 -12 -10    0.91    0.37
 -12 -12 -11    1.49    0.44
 -12 -12 -12    0.05    0.25
 -12 -12 -13    1.88    0.48
  12  14 -16    0.92    0.36
  12  14 -15    1.20    0.38
  12  14 -14    2.60    0.52
  12  14 -13    0.71    0.32
  12  14 -12    1.81    0.45
  12  14 -11    4.99    0.66
 -12 -14  11    4.38    0.60
 -12 -14  10    3.02    0.50
 -12 -14   9    5.95    0.67
 -12 -14   8    0.71    0.29
 -12 -14   7    0.60    0.28
 -12 -14   6    1.98    0.42
 -12 -14   5    3.29    0.53
 -12 -14   4    2.58    0.49
 -12 -14   3    0.64    0.27
 -12 -14   2   -0.18    0.20
 -12 -14   1    1.70    0.42
 -12 -14   0    2.22    0.47
 -12 -14  -1    2.12    0.44
 -12 -14  -2    1.19    0.37
 -12 -14  -3    2.82    0.51
 -12 -14  -4    0.92    0.37
 -12 -14  -5    1.01    0.36
 -12 -14  -6    0.18    0.27
 -12 -14  -7    1.06    0.36
 -12 -14  -8   -0.10    0.23
 -12 -14  -9    1.91    0.50
 -12 -14 -10    0.28    0.25
  12  16 -14    3.47    0.58
  12  16 -13    1.07    0.40
  12  16 -12    1.88    0.44
 -12 -16  12    1.36    0.37
  12  16 -11    1.16    0.38
 -12 -16  11    0.60    0.25
 -12 -16  10    0.41    0.25
 -12 -16   9    0.18    0.23
 -12 -16   8    4.57    0.62
 -12 -16   7    2.04    0.46
 -12 -16   6    3.65    0.58
 -12 -16   5   -0.03    0.23
 -12 -16   4    1.71    0.40
 -12 -16   3    0.13    0.22
 -12 -16   2    2.41    0.50
 -12 -16   1    1.18    0.40
 -12 -16   0    1.89    0.43
 -12 -16  -1    1.04    0.34
 -12 -16  -2    2.80    0.56
 -12 -16  -3    0.88    0.37
 -12 -16  -4    3.04    0.57
 -12 -16  -5    0.18    0.31
 -12 -16  -6    4.17    0.64
 -12 -18  12    0.02    0.21
  12  18 -11    2.42    0.53
 -12 -18  11    2.06    0.49
 -12 -18  10    0.09    0.21
 -12 -18   9    0.75    0.32
 -12 -18   8    1.76    0.43
 -12 -18   7    0.51    0.30
 -12 -18   6    2.84    0.52
 -12 -18   5    2.13    0.46
 -12 -18   4    0.15    0.26
 -12 -18   3    0.76    0.37
 -12 -18   2    1.28    0.45
 -12 -18   1    1.25    0.41
 -12 -18   0    0.84    0.34
 -12 -18  -1    1.15    0.39
  13  -1 -23    0.41    0.26
  13  -1 -22    0.20    0.21
  13   1 -22    0.40    0.29
  13  -1 -21    1.00    0.31
  13   1 -21    1.26    0.38
  13  -1 -20    0.61    0.27
  13   1 -20    0.89    0.33
  13   1 -19    4.51    0.59
  13  -1 -19    3.40    0.50
  13  -1 -18    0.73    0.28
  13   1 -18    1.14    0.35
  13  -1 -17    8.17    0.73
  13   1 -17    7.10    0.68
  13  -1 -16    3.94    0.50
  13   1 -16    4.11    0.54
  13  -1 -15    0.95    0.29
  13   1 -15    0.52    0.24
  13  -1 -14    1.52    0.29
  13   1 -14    1.40    0.31
  13  -1 -13    8.83    0.70
  13   1 -13    8.63    0.73
  13  -1 -12    4.20    0.49
  13   1 -12    4.27    0.51
  13  -1 -11    5.31    0.52
  13   1 -11    5.38    0.56
  13  -1 -10    1.84    0.38
  13  -1 -10    1.78    0.34
  13   1 -10    2.40    0.40
  13  -1  -9    2.84    0.41
  13  -1  -8    2.90    0.41
  13   1  -8    2.39    0.41
  13  -1  -7    0.25    0.19
  13   1  -7    0.39    0.26
  13  -1  -6    1.94    0.36
  13   1  -6    2.09    0.37
  13  -1  -5   10.13    0.77
  13   1  -5    8.88    0.74
  13  -1  -4    0.37    0.22
  13   1  -4    0.07    0.22
  13  -1  -3   11.77    0.85
  13   1  -3   10.73    0.83
  13  -1  -2    7.60    0.70
  13   1  -2    7.91    0.71
  13  -1  -1   10.53    0.83
  13   1  -1   10.10    0.82
  13  -1   0    8.46    0.76
  13   1   0    9.37    0.79
  13  -1   1    0.71    0.26
  13   1   1    1.15    0.34
  13  -1   2    7.95    0.75
  13   1   2    8.91    0.80
  13  -1   3    3.11    0.50
  13   1   3    2.05    0.44
  13  -1   4    9.48    0.84
  13   1   4    8.87    0.83
  13  -1   5    1.77    0.40
  13   1   5    1.70    0.40
  13  -1   6    0.74    0.32
  13   1   6    0.64    0.35
 -13  -1  -6    0.12    0.17
  13  -1   7    0.17    0.26
  13   1   7    0.91    0.35
 -13  -1  -7    0.37    0.21
  13   1   8    1.93    0.44
 -13  -1  -8    2.55    0.41
  13  -1   9    3.28    0.54
  13   1   9    3.07    0.52
 -13  -1  -9    2.91    0.43
  13  -1  10    0.23    0.24
  13   1  10    0.60    0.32
  13  -1  11    3.62    0.58
  13   1  11    3.23    0.58
  13  -1  12    0.82    0.28
  13   1  12    1.94    0.50
  13  -1  13    0.15    0.24
  13   1  13    0.10    0.25
  13  -3 -23   -0.44    0.31
  13  -3 -22    1.74    0.37
  13   3 -22    1.46    0.40
  13  -3 -21    0.36    0.28
  13   3 -21    0.78    0.36
  13  -3 -20    3.10    0.50
  13   3 -20    4.41    0.61
  13  -3 -19    1.54    0.35
  13   3 -19    1.59    0.38
  13  -3 -18    0.24    0.22
  13   3 -18   -0.12    0.26
  13  -3 -17    0.79    0.27
  13   3 -17    0.96    0.31
  13  -3 -16    9.09    0.73
  13   3 -16    8.84    0.79
  13  -3 -15    1.51    0.35
  13   3 -15    1.97    0.40
  13  -3 -14    1.98    0.36
  13   3 -14    2.19    0.42
  13  -3 -13    3.14    0.41
  13   3 -13    3.57    0.50
  13  -3 -12    3.93    0.43
  13  -3 -12    3.75    0.44
  13   3 -12    4.15    0.52
  13  -3 -11    1.80    0.34
  13  -3 -11    1.69    0.31
  13   3 -11    2.28    0.39
  13  -3 -10    0.37    0.21
  13  -3 -10    0.58    0.22
  13  -3  -9   -0.04    0.17
  13  -3  -9    0.57    0.23
  13  -3  -8    2.64    0.40
  13  -3  -7    2.40    0.40
  13  -3  -6    0.35    0.19
  13  -3  -5    0.28    0.21
  13   3  -5    1.16    0.36
  13  -3  -4    5.10    0.56
  13   3  -4    6.03    0.63
  13  -3  -3    6.84    0.65
  13   3  -3    7.46    0.70
  13  -3  -2    4.31    0.54
  13   3  -2    3.42    0.51
  13  -3  -1    1.17    0.28
  13   3  -1    1.19    0.35
  13  -3   0    9.33    0.80
  13   3   0    9.64    0.82
 -13  -3   0    8.96    0.75
  13  -3   1    2.34    0.39
  13   3   1    2.34    0.46
 -13  -3  -1    1.90    0.36
  13  -3   2    4.44    0.57
  13   3   2    3.63    0.52
 -13  -3  -2    3.04    0.43
  13  -3   3    1.85    0.43
  13   3   3    0.85    0.34
 -13  -3  -3    1.01    0.29
  13  -3   4    6.69    0.72
  13   3   4    7.52    0.75
 -13  -3  -4    7.12    0.68
  13  -3   5    0.50    0.32
  13   3   5    0.52    0.29
 -13  -3  -5    0.59    0.24
  13  -3   6    0.20    0.28
  13   3   6    0.08    0.26
 -13  -3  -6    0.15    0.20
  13  -3   7    0.58    0.32
  13   3   7    0.51    0.32
 -13  -3  -7    0.34    0.24
  13  -3   8    3.15    0.55
  13   3   8    3.62    0.58
 -13  -3  -8    3.44    0.47
  13  -3   9    0.20    0.25
  13   3   9    0.51    0.35
 -13  -3  -9   -0.10    0.17
  13  -3  10    0.04    0.29
  13   3  10    0.41    0.31
 -13  -3 -10    0.35    0.25
  13  -3  11    0.62    0.35
  13   3  11    1.37    0.41
  13  -3  12    2.13    0.47
  13   3  12    2.91    0.56
  13   3  13    0.01    0.24
  13  -5 -23    1.85    0.40
  13  -5 -22    1.40    0.36
  13  -5 -21    1.08    0.34
  13   5 -21    0.89    0.34
  13  -5 -20    2.94    0.46
  13   5 -20    4.29    0.63
  13  -5 -19    0.91    0.31
  13   5 -19    0.46    0.28
  13  -5 -18    0.60    0.24
  13   5 -18    0.60    0.25
  13  -5 -17    1.31    0.32
  13   5 -17    1.61    0.39
  13  -5 -16    4.01    0.48
  13   5 -16    3.93    0.56
  13  -5 -15    2.70    0.40
  13   5 -15    2.61    0.46
  13  -5 -14    2.87    0.40
  13   5 -14    2.19    0.44
  13  -5 -13    0.57    0.21
  13   5 -13    1.30    0.34
  13  -5 -12    1.71    0.30
  13  -5 -12    1.74    0.28
  13   5 -12    1.60    0.36
  13  -5 -11    1.12    0.26
  13  -5 -11    0.54    0.21
  13   5 -11    0.81    0.31
  13  -5 -10    0.62    0.21
  13  -5 -10    0.69    0.23
  13  -5  -9   11.96    0.71
  13  -5  -9   10.91    0.77
  13  -5  -8    3.72    0.39
  13  -5  -8    3.70    0.46
  13  -5  -7    2.81    0.39
  13  -5  -6   -0.08    0.21
  13  -5  -5    1.94    0.38
  13  -5  -4    3.79    0.50
  13  -5  -3    2.57    0.42
 -13  -5   3    2.63    0.43
  13  -5  -2    5.40    0.60
 -13  -5   2    4.77    0.57
  13  -5  -1    2.24    0.42
  13   5  -1    2.61    0.45
 -13  -5   1    2.14    0.40
  13  -5   0    5.49    0.63
  13   5   0    4.27    0.57
 -13  -5   0    5.69    0.62
  13  -5   1    1.92    0.41
  13   5   1    2.08    0.41
 -13  -5  -1    2.13    0.38
  13  -5   2    0.87    0.30
  13   5   2    1.24    0.38
 -13  -5  -2    0.61    0.25
  13  -5   3    1.31    0.35
  13   5   3    1.44    0.38
 -13  -5  -3    1.09    0.29
  13  -5   4    2.96    0.49
  13   5   4    1.90    0.44
 -13  -5  -4    2.10    0.43
 -13  -5  -5    3.96    0.53
  13  -5   5    3.04    0.52
  13   5   5    4.25    0.60
 -13  -5  -6    0.30    0.24
  13  -5   6    0.19    0.20
  13   5   6    0.03    0.23
 -13  -5  -7    3.49    0.50
  13  -5   7    3.16    0.53
  13   5   7    3.11    0.56
 -13  -5  -8    1.24    0.34
  13  -5   8    1.82    0.44
  13   5   8    1.58    0.43
 -13  -5  -9    2.93    0.46
  13  -5   9    3.07    0.55
  13   5   9    3.28    0.57
 -13  -5 -10    0.20    0.22
  13  -5  10    0.44    0.31
  13   5  10    0.25    0.32
  13  -5  11    2.66    0.51
  13   5  11    2.38    0.51
  13  -5  12   -0.07    0.24
  13   5  12    0.58    0.34
  13   5  13    0.08    0.24
  13   7 -20    0.62    0.28
  13   7 -19    0.92    0.27
  13   7 -18   -0.15    0.27
  13   7 -17    0.80    0.27
  13   7 -16    2.12    0.43
  13   7 -15    0.98    0.34
  13   7 -14    2.71    0.47
  13   7 -13    1.65    0.36
  13  -7 -12    4.22    0.43
  13   7 -12    3.84    0.56
  13  -7 -11    0.60    0.18
  13  -7 -11    0.87    0.25
  13  -7 -10    1.63    0.26
  13  -7 -10    1.67    0.30
  13  -7  -9   15.25    0.77
  13  -7  -9   14.94    0.92
  13  -7  -8    1.22    0.31
  13  -7  -8    1.33    0.24
  13  -7  -7    0.33    0.22
  13  -7  -7    0.78    0.20
  13  -7  -6    0.49    0.28
  13  -7  -6    0.57    0.19
  13  -7  -5   -0.34    0.23
 -13  -7   5   -0.35    0.26
  13  -7  -4    7.31    0.69
 -13  -7   4    8.08    0.74
  13  -7  -3    1.13    0.31
 -13  -7   3    1.30    0.35
  13  -7  -2    0.32    0.20
 -13  -7   2   -0.26    0.22
  13  -7  -1    0.94    0.29
 -13  -7   1    1.80    0.41
  13  -7   0    0.25    0.27
 -13  -7   0    0.53    0.29
  13  -7   1    7.30    0.74
 -13  -7  -1    7.44    0.72
 -13  -7  -2    1.53    0.38
  13  -7   2    1.14    0.36
 -13  -7  -3    0.26    0.21
  13  -7   3    0.15    0.23
 -13  -7  -4    1.85    0.39
  13  -7   4    1.65    0.42
 -13  -7  -5    2.92    0.46
  13  -7   5    2.75    0.52
 -13  -7  -6    1.23    0.36
  13  -7   6    0.13    0.22
 -13  -7  -7    1.13    0.33
  13  -7   7    2.59    0.51
 -13  -7  -8    1.11    0.37
  13  -7   8    0.87    0.37
 -13  -7  -9    4.11    0.57
  13  -7   9    4.34    0.63
 -13  -7 -10    2.14    0.42
  13  -7  10    3.01    0.57
 -13  -7 -11    1.24    0.34
  13  -7  11    2.35    0.51
  13   9 -19    0.85    0.30
  13   9 -18    0.60    0.30
  13   9 -17    0.96    0.35
  13   9 -16    3.38    0.55
  13   9 -15    1.87    0.45
  13   9 -14    0.28    0.25
  13   9 -13    1.42    0.39
  13   9 -12    3.77    0.54
  13  -9 -11    1.28    0.29
  13  -9 -10    3.18    0.44
  13  -9  -9    0.01    0.17
  13  -9  -8    2.72    0.40
  13  -9  -7    8.37    0.71
 -13  -9   7    6.58    0.69
  13  -9  -6    2.10    0.39
 -13  -9   6    1.79    0.41
  13  -9  -5    2.44    0.45
 -13  -9   5    2.50    0.47
  13  -9  -4    7.55    0.72
 -13  -9   4    7.31    0.73
  13  -9  -3    3.69    0.52
 -13  -9   3    4.59    0.60
  13  -9  -2   11.82    0.94
 -13  -9   2   12.59    0.97
  13  -9  -1    4.90    0.60
 -13  -9   1    4.66    0.60
 -13  -9   0    0.47    0.25
  13  -9   0    0.33    0.24
 -13  -9  -1    1.34    0.38
  13  -9   1    1.34    0.38
 -13  -9  -2    2.73    0.48
  13  -9   2    2.76    0.51
 -13  -9  -3    0.85    0.30
  13  -9   3    0.33    0.28
 -13  -9  -4    2.56    0.46
  13  -9   4    2.65    0.48
 -13  -9  -5    0.56    0.25
  13  -9   5    1.21    0.39
 -13  -9  -6    0.83    0.34
  13  -9   6    0.32    0.24
 -13  -9  -7   -0.05    0.27
  13  -9   7   -0.37    0.31
 -13  -9  -8    2.37    0.47
  13  -9   8    1.97    0.45
 -13  -9  -9    0.94    0.34
  13  -9   9    0.60    0.35
 -13  -9 -10   -0.03    0.23
  13  -9  10    0.14    0.26
 -13  -9 -11    4.39    0.62
 -13  -9 -12    1.68    0.43
  13  11 -17    0.49    0.27
  13  11 -16    4.68    0.65
  13  11 -15    1.48    0.40
  13  11 -14    1.24    0.36
  13  11 -13    3.79    0.57
  13  11 -12    0.55    0.29
  13 -11 -10    0.78    0.26
  13 -11  -9    3.79    0.48
 -13 -11   9    3.64    0.54
  13 -11  -8    2.30    0.39
 -13 -11   8    2.06    0.45
  13 -11  -7    6.51    0.64
 -13 -11   7    6.42    0.72
  13 -11  -6    3.15    0.48
 -13 -11   6    2.82    0.50
 -13 -11   5    9.87    0.87
 -13 -11   4    2.60    0.47
 -13 -11   3    3.01    0.52
 -13 -11   2    0.63    0.31
 -13 -11   1    1.80    0.42
 -13 -11   0    0.37    0.27
 -13 -11  -1    1.60    0.38
 -13 -11  -2    1.48    0.41
 -13 -11  -3    1.82    0.44
 -13 -11  -4    0.52    0.30
 -13 -11  -5    5.74    0.70
 -13 -11  -6    0.69    0.26
 -13 -11  -7    0.46    0.27
 -13 -11  -8   -0.05    0.26
 -13 -11  -9    0.89    0.35
 -13 -11 -10   -0.13    0.31
 -13 -11 -11    0.48    0.24
 -13 -11 -12    0.00    0.25
  13  13 -16    0.60    0.39
  13  13 -15    0.14    0.25
  13  13 -14    3.51    0.59
  13  13 -13    3.83    0.57
  13  13 -12    3.21    0.55
 -13 -13  10    2.28    0.44
  13 -13  -9    1.90    0.36
 -13 -13   9    1.42    0.38
 -13 -13   8    2.69    0.50
 -13 -13   7    1.12    0.33
 -13 -13   6    0.37    0.28
 -13 -13   5    0.75    0.31
 -13 -13   4    1.97    0.45
 -13 -13   3    2.36    0.47
 -13 -13   2    0.64    0.33
 -13 -13   1    0.51    0.29
 -13 -13   0    4.02    0.62
 -13 -13  -1    0.28    0.24
 -13 -13  -2    0.53    0.31
 -13 -13  -3    0.81    0.32
 -13 -13  -4    0.92    0.36
 -13 -13  -5    1.72    0.46
 -13 -13  -6    0.62    0.34
 -13 -13  -7   -0.15    0.30
 -13 -13  -8   -0.03    0.24
 -13 -13  -9    1.29    0.43
  13  15 -13    1.49    0.45
  13  15 -12    1.65    0.45
  13  15 -11    0.51    0.37
 -13 -15  11    1.30    0.42
 -13 -15  10    1.74    0.40
 -13 -15   9    4.51    0.64
 -13 -15   8    0.74    0.35
 -13 -15   7    2.42    0.50
 -13 -15   6    0.56    0.30
 -13 -15   5    0.78    0.36
 -13 -15   4    2.02    0.46
 -13 -15   3    1.90    0.44
 -13 -15   2    1.09    0.39
 -13 -15   1    0.20    0.28
 -13 -15   0    0.83    0.33
 -13 -15  -1    0.32    0.35
 -13 -15  -2    0.48    0.37
 -13 -15  -3    6.77    0.81
 -13 -15  -4    1.66    0.43
 -13 -15  -5    0.11    0.26
 -13 -17  12    0.21    0.26
 -13 -17  11    1.40    0.41
 -13 -17  10    0.47    0.31
 -13 -17   9    2.99    0.58
 -13 -17   8    0.02    0.23
 -13 -17   7    6.42    0.78
 -13 -17   6    1.95    0.50
 -13 -17   5    2.40    0.51
 -13 -17   4    0.89    0.39
 -13 -17   3    1.39    0.41
 -13 -17   2    0.49    0.31
 -13 -17   1    1.61    0.43
  14   0 -22    4.97    0.67
  14   0 -21    0.38    0.29
  14   0 -20    0.32    0.24
  14   0 -19    0.41    0.24
  14   0 -18    6.35    0.69
  14   0 -17   -0.26    0.24
  14   0 -16    4.42    0.55
  14   0 -15   -0.14    0.24
  14   0 -14    2.91    0.43
  14   0 -13    0.33    0.25
  14   0 -12    5.42    0.57
  14   0 -11    0.06    0.19
  14   0 -10    0.92    0.28
  14   0  -9    0.14    0.23
  14   0  -8    2.42    0.41
  14   0  -7    0.21    0.22
  14   0  -6    2.88    0.47
  14   0  -5    0.10    0.22
  14   0  -4   15.07    1.01
  14   0  -3    0.39    0.23
  14   0  -2    1.85    0.37
  14   0  -1   -0.14    0.28
  14   0   0    1.28    0.36
  14   0   1    0.23    0.28
  14   0   2    9.70    0.87
  14   0   3   -0.19    0.23
  14   0   4    2.52    0.48
  14   0   5   -0.28    0.31
  14   0   6    0.72    0.33
  14   0   7    0.19    0.32
  14   0   8    1.05    0.39
  14   0   9   -0.51    0.34
  14   0  10    1.61    0.43
  14  -2 -22   -0.05    0.25
  14  -2 -21    0.22    0.24
  14   2 -21    0.73    0.34
  14  -2 -20   -0.07    0.22
  14   2 -20    0.23    0.25
  14  -2 -19    2.01    0.40
  14   2 -19    2.29    0.45
  14  -2 -18    2.07    0.41
  14   2 -18    1.13    0.34
  14  -2 -17    0.60    0.26
  14   2 -17    0.09    0.21
  14  -2 -16    1.23    0.31
  14   2 -16    1.72    0.39
  14  -2 -15   10.79    0.80
  14   2 -15   11.61    0.89
  14  -2 -14    2.38    0.39
  14   2 -14    2.02    0.39
  14  -2 -13    2.99    0.43
  14   2 -13    2.64    0.43
  14  -2 -12    2.48    0.40
  14   2 -12    2.11    0.39
  14  -2 -11    1.40    0.32
  14  -2 -11    1.10    0.29
  14   2 -11    1.41    0.33
  14  -2 -10    0.17    0.20
  14  -2 -10    0.65    0.25
  14  -2  -9    4.76    0.50
  14  -2  -9    3.61    0.48
  14  -2  -8    1.27    0.30
  14  -2  -7    2.00    0.39
  14   2  -7    3.24    0.50
  14  -2  -6    1.51    0.35
  14   2  -6    1.35    0.37
  14  -2  -5    5.40    0.60
  14   2  -5    5.18    0.61
  14  -2  -4    4.00    0.54
  14   2  -4    3.83    0.52
  14  -2  -3    7.21    0.70
  14   2  -3    6.53    0.68
  14   2  -2    6.62    0.71
  14  -2  -2    5.34    0.60
  14  -2  -1   10.97    0.89
  14   2  -1   10.83    0.89
  14  -2   0    0.99    0.34
  14   2   0    1.17    0.35
  14   2   1    5.54    0.65
  14  -2   1    5.12    0.63
  14  -2   2    0.30    0.25
  14   2   2    0.64    0.33
  14  -2   3    0.32    0.26
  14   2   3    0.53    0.32
  14  -2   4    2.26    0.45
  14   2   4    1.48    0.40
  14  -2   5    6.46    0.73
  14   2   5    7.42    0.80
 -14  -2  -5    7.80    0.69
  14  -2   6    0.03    0.28
  14   2   6    0.26    0.33
 -14  -2  -6    0.27    0.22
  14  -2   7    0.91    0.31
  14   2   7    0.99    0.36
 -14  -2  -7    0.44    0.21
  14  -2   8    0.48    0.32
  14   2   8    0.69    0.33
 -14  -2  -8    0.42    0.25
  14  -2   9    1.03    0.37
  14   2   9    1.28    0.38
  14  -2  10   -0.02    0.24
  14   2  10    0.24    0.29
  14  -4 -22   -0.35    0.26
  14  -4 -21    0.29    0.23
  14  -4 -20    0.75    0.30
  14   4 -20    1.02    0.34
  14  -4 -19    8.00    0.76
  14   4 -19    8.35    0.82
  14  -4 -18    0.32    0.20
  14   4 -18   -0.08    0.23
  14  -4 -17    1.12    0.31
  14   4 -17    0.71    0.27
  14  -4 -16    2.94    0.44
  14   4 -16    2.14    0.43
  14  -4 -15    3.80    0.48
  14   4 -15    3.16    0.49
  14  -4 -14    4.63    0.51
  14   4 -14    4.46    0.56
  14  -4 -13    0.80    0.23
  14   4 -13    1.28    0.36
  14  -4 -12    0.12    0.16
  14  -4 -12    0.44    0.18
  14   4 -12    0.31    0.24
  14  -4 -11    3.75    0.45
  14  -4 -11    3.29    0.42
  14   4 -11    3.26    0.50
  14  -4 -10    1.74    0.35
  14  -4 -10    1.70    0.32
  14  -4  -9    1.25    0.30
  14  -4  -9    1.65    0.32
  14  -4  -8    0.69    0.26
  14  -4  -8    0.50    0.22
  14  -4  -7    0.17    0.23
  14  -4  -6    0.64    0.24
  14  -4  -5    1.73    0.35
  14  -4  -4    1.01    0.32
  14  -4  -3   -0.03    0.26
  14   4  -3    0.49    0.27
  14  -4  -2    6.26    0.68
  14   4  -2    6.16    0.69
  14  -4  -1   10.81    0.89
  14   4  -1   12.06    0.94
  14  -4   0    2.53    0.47
  14   4   0    2.61    0.49
 -14  -4   0    2.15    0.43
  14  -4   1    3.26    0.50
  14   4   1    3.61    0.56
 -14  -4  -1    2.90    0.48
  14  -4   2    1.35    0.37
  14   4   2    1.08    0.40
 -14  -4  -2    1.17    0.33
  14  -4   3    0.32    0.27
  14   4   3    0.48    0.25
 -14  -4  -3    0.37    0.24
  14  -4   4    0.38    0.27
  14   4   4    0.20    0.29
 -14  -4  -4    0.17    0.24
  14  -4   5    3.46    0.58
  14   4   5    5.27    0.70
 -14  -4  -5    4.73    0.57
  14  -4   6    0.33    0.27
  14   4   6    0.63    0.39
 -14  -4  -6    0.73    0.31
  14  -4   7    0.00    0.23
  14   4   7    0.72    0.42
 -14  -4  -7    0.18    0.28
  14  -4   8    3.96    0.62
  14   4   8    3.66    0.60
 -14  -4  -8    2.79    0.45
  14  -4   9    0.09    0.30
  14   4   9    0.76    0.38
 -14  -4  -9    0.20    0.24
  14  -4  10    1.17    0.40
  14   4  10    1.76    0.45
  14   6 -19    1.15    0.34
  14   6 -18    1.94    0.43
  14   6 -17    0.65    0.30
  14   6 -16    2.20    0.44
  14   6 -15    0.21    0.27
  14   6 -14    2.41    0.46
  14   6 -13    0.89    0.32
  14   6 -12    5.60    0.63
  14  -6 -11    1.71    0.34
  14  -6 -10    0.96    0.28
  14  -6  -9    3.08    0.43
  14  -6  -9    2.88    0.38
  14  -6  -8    0.45    0.20
  14  -6  -8    1.23    0.25
  14  -6  -7    0.69    0.26
  14  -6  -7    1.08    0.24
  14  -6  -6   -0.17    0.29
  14  -6  -5    2.37    0.43
  14  -6  -4    4.94    0.58
  14  -6  -3    3.70    0.53
 -14  -6   3    3.71    0.56
  14  -6  -2    2.59    0.47
 -14  -6   2    2.26    0.41
  14  -6  -1   -0.09    0.28
 -14  -6   1   -0.11    0.21
  14  -6   0    1.42    0.39
 -14  -6   0    2.72    0.46
  14  -6   1    0.60    0.34
 -14  -6  -1    1.02    0.32
  14  -6   2    7.01    0.75
  14   6   2    7.39    0.78
 -14  -6  -2    7.35    0.75
  14  -6   3    1.46    0.36
  14   6   3    2.22    0.48
 -14  -6  -3    1.59    0.40
  14  -6   4    1.31    0.39
  14   6   4    0.72    0.32
 -14  -6  -4    0.90    0.33
  14  -6   5    0.55    0.34
  14   6   5    0.30    0.32
 -14  -6  -5   -0.19    0.23
 -14  -6  -6    4.27    0.59
  14  -6   6    3.61    0.59
  14   6   6    3.88    0.63
 -14  -6  -7    0.64    0.28
  14  -6   7    0.86    0.35
  14   6   7    1.22    0.46
 -14  -6  -8    3.41    0.55
  14  -6   8    1.56    0.42
  14   6   8    2.86    0.57
 -14  -6  -9    0.84    0.37
  14  -6   9    1.08    0.38
  14   6   9    0.73    0.39
 -14  -6 -10   -0.02    0.26
  14   6  10    0.62    0.42
  14   8 -18    0.35    0.24
  14   8 -17    1.75    0.42
  14   8 -16    0.49    0.31
  14   8 -15    1.11    0.39
  14   8 -14    0.63    0.34
  14   8 -13    3.09    0.53
  14   8 -12    0.21    0.21
  14  -8 -11    4.21    0.51
  14  -8 -10    2.36    0.39
  14  -8  -9    2.18    0.38
  14  -8  -8    0.28    0.21
  14  -8  -7    1.34    0.34
  14  -8  -6    0.90    0.31
  14  -8  -5    0.93    0.31
 -14  -8   5    1.21    0.36
  14  -8  -4    0.83    0.28
 -14  -8   4    0.70    0.28
  14  -8  -3    1.36    0.36
 -14  -8   3    1.76    0.41
  14  -8  -2    3.57    0.54
 -14  -8   2    3.23    0.52
  14  -8  -1    1.88    0.41
 -14  -8   1    1.98    0.43
  14  -8   0    1.32    0.38
 -14  -8   0    2.03    0.43
  14  -8   1    0.73    0.32
 -14  -8  -1    0.34    0.25
 -14  -8  -2    2.72    0.50
  14  -8   2    1.26    0.39
 -14  -8  -3    0.67    0.31
  14  -8   3    0.52    0.30
 -14  -8  -4   -0.02    0.22
  14  -8   4   -0.20    0.25
 -14  -8  -5    0.90    0.35
  14  -8   5    0.90    0.36
 -14  -8  -6    2.34    0.48
  14  -8   6    2.16    0.49
 -14  -8  -7    0.97    0.34
  14  -8   7    0.86    0.40
 -14  -8  -8    3.40    0.58
  14  -8   8    3.20    0.61
 -14  -8  -9    7.78    0.80
 -14  -8 -10    1.81    0.42
 -14  -8 -11    1.09    0.38
  14  10 -16    2.89    0.53
  14  10 -15    0.92    0.40
  14  10 -14    3.60    0.57
  14  10 -13    0.92    0.37
  14  10 -12    1.49    0.39
  14 -10 -10    2.32    0.40
  14 -10  -9    2.21    0.41
  14 -10  -8    4.15    0.53
  14 -10  -7    2.09    0.40
 -14 -10   7    2.47    0.50
  14 -10  -6    3.96    0.57
 -14 -10   6    4.91    0.63
  14 -10  -5    8.79    0.82
 -14 -10   5   10.82    0.93
  14 -10  -4    2.97    0.52
 -14 -10   4    2.80    0.51
  14 -10  -3    1.84    0.40
 -14 -10   3    2.33    0.47
  14 -10  -2    4.52    0.60
 -14 -10   2    4.68    0.63
 -14 -10   1    1.03    0.39
  14 -10  -1    1.14    0.36
 -14 -10   0    1.11    0.36
  14 -10   0    0.79    0.34
 -14 -10  -1    2.35    0.47
  14 -10   1    1.33    0.37
 -14 -10  -2    1.07    0.40
  14 -10   2    0.87    0.31
 -14 -10  -3    0.85    0.34
  14 -10   3    0.30    0.24
 -14 -10  -4    1.11    0.36
  14 -10   4    0.78    0.26
 -14 -10  -5    1.51    0.38
  14 -10   5    1.96    0.43
 -14 -10  -6    1.71    0.41
  14 -10   6    1.38    0.41
 -14 -10  -7    1.62    0.39
  14 -10   7    1.01    0.38
 -14 -10  -8    0.57    0.32
 -14 -10  -9    0.06    0.22
 -14 -10 -10    0.63    0.32
 -14 -10 -11   -0.20    0.25
  14  12 -14    2.20    0.48
  14  12 -13    4.44    0.64
  14  12 -12    2.03    0.49
  14 -12  -9    1.26    0.31
  14 -12  -8    2.34    0.42
 -14 -12   8    2.17    0.46
  14 -12  -7    3.40    0.51
 -14 -12   7    5.16    0.68
  14 -12  -6    3.55    0.52
 -14 -12   6    3.32    0.54
  14 -12  -5    0.56    0.27
 -14 -12   5    1.66    0.43
  14 -12  -4    0.08    0.27
 -14 -12   4    0.21    0.26
 -14 -12   3    1.10    0.36
 -14 -12   2    0.81    0.33
 -14 -12   1    0.86    0.33
 -14 -12   0    2.61    0.53
 -14 -12  -1    1.64    0.39
 -14 -12  -2    0.59    0.31
 -14 -12  -3    4.80    0.68
 -14 -12  -4    0.37    0.34
 -14 -12  -5   -0.16    0.24
 -14 -12  -6    2.21    0.46
 -14 -12  -7    0.71    0.36
  14  14 -12    2.14    0.50
 -14 -14  10    1.26    0.38
 -14 -14   9    0.13    0.20
  14 -14  -8    1.25    0.35
 -14 -14   8    1.79    0.48
 -14 -14   7    8.96    0.90
 -14 -14   6    4.73    0.67
 -14 -14   5    0.21    0.24
 -14 -14   4    0.52    0.27
 -14 -14   3   -0.23    0.27
 -14 -14   2    2.30    0.48
 -14 -14   1    1.48    0.40
 -14 -14   0    1.79    0.46
 -14 -14  -1    1.05    0.36
 -14 -14  -2   -0.30    0.23
 -14 -14  -3    1.38    0.39
  15  -1 -21    1.24    0.39
  15  -1 -20    0.11    0.27
  15   1 -20    0.28    0.27
  15  -1 -19    2.33    0.46
  15   1 -19    3.51    0.56
  15  -1 -18    0.48    0.24
  15   1 -18    0.62    0.24
  15  -1 -17    0.42    0.25
  15   1 -17    0.21    0.23
  15  -1 -16    2.83    0.46
  15   1 -16    2.51    0.43
  15  -1 -15    0.53    0.20
  15   1 -15    1.34    0.31
  15  -1 -14    0.53    0.24
  15   1 -14    1.60    0.38
  15  -1 -13    0.68    0.25
  15   1 -13    1.53    0.36
  15  -1 -12    0.72    0.27
  15   1 -12    0.59    0.26
  15  -1 -11    3.94    0.49
  15   1 -11    4.15    0.53
  15  -1 -10    0.49    0.25
  15  -1 -10    0.70    0.26
  15   1 -10    0.29    0.26
  15  -1  -9    5.26    0.59
  15  -1  -8    0.73    0.35
  15   1  -8    0.75    0.33
  15  -1  -7    2.11    0.40
  15   1  -7    1.77    0.39
  15  -1  -6    2.09    0.42
  15   1  -6    2.28    0.41
  15  -1  -5   12.43    0.94
  15   1  -5   11.98    0.93
  15  -1  -4    0.85    0.30
  15   1  -4    1.52    0.44
  15  -1  -3    1.23    0.33
  15   1  -3    1.37    0.38
  15  -1  -2    0.29    0.26
  15   1  -2    0.19    0.22
  15  -1  -1    3.74    0.56
  15   1  -1    3.50    0.55
  15  -1   0    3.30    0.55
  15   1   0    2.97    0.54
  15  -1   1    2.10    0.46
  15   1   1    1.23    0.37
  15  -1   2    2.80    0.49
  15   1   2    2.70    0.52
  15  -1   3    4.21    0.63
  15   1   3    3.21    0.54
  15  -1   4    0.45    0.27
  15   1   4    0.48    0.29
  15  -1   5    0.38    0.24
  15   1   5    0.20    0.30
  15  -1   6    0.34    0.34
  15   1   6    0.45    0.28
  15  -1   7    2.95    0.55
  15   1   7    2.60    0.55
  15  -1   8    0.18    0.30
  15   1   8    0.64    0.35
  15  -3 -21    0.85    0.29
  15  -3 -20    0.76    0.32
  15  -3 -19    0.28    0.27
  15   3 -19    0.46    0.31
  15  -3 -18    0.85    0.29
  15   3 -18    1.38    0.37
  15  -3 -17    0.87    0.26
  15   3 -17    0.27    0.24
  15  -3 -16    2.25    0.42
  15   3 -16    2.18    0.44
  15  -3 -15   -0.05    0.24
  15   3 -15    0.34    0.27
  15  -3 -14    7.05    0.65
  15   3 -14    8.00    0.77
  15  -3 -13    0.13    0.19
  15   3 -13   -0.11    0.22
  15  -3 -12    1.59    0.33
  15  -3 -12    1.83    0.36
  15   3 -12    1.53    0.39
  15  -3 -11    1.02    0.33
  15  -3 -11    1.46    0.32
  15   3 -11    1.35    0.37
  15  -3 -10    0.82    0.31
  15  -3 -10    1.40    0.35
  15  -3  -9    0.29    0.19
  15  -3  -9    0.76    0.25
  15  -3  -8    2.31    0.43
  15  -3  -7    2.05    0.41
  15  -3  -6    2.93    0.49
  15  -3  -5    0.21    0.30
  15   3  -5    0.59    0.33
  15  -3  -4   26.04    1.42
  15   3  -4   25.36    1.41
  15  -3  -3    4.12    0.58
  15   3  -3    4.87    0.63
  15  -3  -2    4.96    0.62
  15   3  -2    4.47    0.62
  15  -3  -1    0.77    0.36
  15   3  -1    0.31    0.28
  15  -3   0    1.28    0.36
  15   3   0    1.08    0.38
  15  -3   1    0.95    0.35
  15   3   1    0.78    0.41
  15   3   2    6.29    0.75
  15  -3   2    5.60    0.69
  15  -3   3    0.44    0.26
  15   3   3    0.16    0.24
  15  -3   4   -0.11    0.27
  15   3   4    1.14    0.43
  15  -3   5    0.67    0.30
  15   3   5    1.07    0.43
  15  -3   6    1.10    0.35
 -15  -3  -6    0.77    0.29
  15  -3   7   -0.24    0.31
  15   3   7    0.25    0.36
 -15  -3  -7   -0.33    0.29
  15   5 -18    0.25    0.22
  15   5 -17    0.06    0.24
  15   5 -16    0.17    0.23
  15   5 -15    1.18    0.36
  15   5 -14    2.48    0.47
  15   5 -13    0.99    0.35
  15   5 -12    2.90    0.49
  15  -5 -11    0.01    0.22
  15  -5 -10    3.22    0.47
  15  -5  -9   -0.11    0.24
  15  -5  -8    1.83    0.38
  15  -5  -7    1.04    0.31
  15  -5  -6   -0.24    0.28
  15  -5  -5    6.60    0.69
  15  -5  -4    2.24    0.41
  15  -5  -3    1.74    0.40
  15  -5  -2    0.00    0.24
  15  -5  -1    0.73    0.31
  15  -5   0    0.16    0.24
 -15  -5   0    0.27    0.24
  15  -5   1    0.95    0.34
  15   5   1    1.28    0.40
 -15  -5  -1    1.14    0.32
  15  -5   2    0.82    0.30
  15   5   2    1.22    0.43
 -15  -5  -2    0.46    0.27
  15  -5   3    2.84    0.56
  15   5   3    4.45    0.65
 -15  -5  -3    3.67    0.55
  15  -5   4    0.36    0.30
 -15  -5  -4   -0.10    0.24
  15  -5   5    0.81    0.35
  15   5   5    0.82    0.35
 -15  -5  -5    0.67    0.28
  15  -5   6   -0.24    0.32
  15   5   6    0.36    0.30
 -15  -5  -6    0.00    0.23
  15  -5   7    4.57    0.67
  15   5   7    3.90    0.63
 -15  -5  -7    4.04    0.59
 -15  -5  -8    0.13    0.23
  15   7 -17    0.19    0.27
  15   7 -16    0.98    0.35
  15   7 -15    4.75    0.64
  15   7 -14    1.20    0.40
  15   7 -13    0.96    0.36
  15   7 -12    1.41    0.39
  15  -7 -10    2.19    0.39
  15  -7  -9    1.18    0.32
  15  -7  -8    1.29    0.33
  15  -7  -7    1.31    0.36
  15  -7  -6   -0.21    0.30
  15  -7  -5    3.47    0.52
  15  -7  -4    2.65    0.47
  15  -7  -3    2.54    0.47
 -15  -7   3    1.70    0.41
  15  -7  -2    1.07    0.35
 -15  -7   2    1.31    0.35
  15  -7  -1    5.87    0.71
 -15  -7   1    6.58    0.74
  15  -7   0    1.96    0.45
 -15  -7   0    1.69    0.42
  15  -7   1    1.06    0.35
 -15  -7  -1    0.40    0.24
  15  -7   2    1.07    0.35
 -15  -7  -2    0.81    0.35
  15  -7   3    5.02    0.68
 -15  -7  -3    6.03    0.71
  15  -7   4    1.46    0.44
 -15  -7  -4    1.60    0.39
  15  -7   5    2.94    0.58
 -15  -7  -5    2.25    0.48
  15  -7   6    1.07    0.38
 -15  -7  -6    0.97    0.34
 -15  -7  -7    1.26    0.34
 -15  -7  -8    2.07    0.45
 -15  -7  -9    0.54    0.33
  15   9 -15    1.86    0.45
  15   9 -14    2.12    0.51
  15   9 -13    2.86    0.53
  15   9 -12    2.07    0.48
  15  -9 -10    0.54    0.27
  15  -9  -9    4.91    0.58
  15  -9  -8    2.49    0.45
  15  -9  -7    1.90    0.38
  15  -9  -6    2.19    0.41
  15  -9  -5    0.14    0.24
 -15  -9   5    0.37    0.28
  15  -9  -4    8.46    0.82
 -15  -9   4    8.06    0.81
  15  -9  -3    0.42    0.32
 -15  -9   3    0.47    0.29
  15  -9  -2    0.16    0.24
 -15  -9   2    0.10    0.25
  15  -9  -1    1.01    0.35
 -15  -9   1    0.51    0.29
  15  -9   0    0.99    0.32
 -15  -9   0    1.53    0.39
  15  -9   1    0.04    0.26
 -15  -9  -1    0.32    0.22
  15  -9   2    3.12    0.58
 -15  -9  -2    2.35    0.48
  15  -9   3    0.87    0.38
 -15  -9  -3    1.07    0.39
 -15  -9  -4    0.22    0.30
  15  -9   4   -0.06    0.28
 -15  -9  -5    0.21    0.26
 -15  -9  -6    3.16    0.55
 -15  -9  -7    1.42    0.42
 -15  -9  -8    0.82    0.36
 -15  -9  -9    0.24    0.32
  15  11 -13    0.93    0.37
  15  11 -12    1.62    0.42
  15 -11  -9    1.20    0.34
  15 -11  -8    2.16    0.43
  15 -11  -7    3.16    0.52
 -15 -11   7    5.31    0.69
  15 -11  -6    0.20    0.22
 -15 -11   6    0.71    0.32
  15 -11  -5    2.55    0.46
 -15 -11   5    3.61    0.60
  15 -11  -4    1.51    0.41
 -15 -11   4    1.21    0.39
  15 -11  -3    1.09    0.36
 -15 -11   3    1.08    0.35
  15 -11  -2    1.65    0.43
 -15 -11   2    1.85    0.44
  15 -11  -1    2.72    0.50
 -15 -11   1    2.80    0.53
  15 -11   0    0.17    0.26
 -15 -11   0    0.50    0.34
 -15 -11  -1    1.04    0.39
  15 -11   1    0.65    0.34
 -15 -11  -2    1.33    0.38
  15 -11   2    0.89    0.39
 -15 -11  -3    1.96    0.51
  15 -11   3    2.62    0.56
 -15 -11  -4    0.90    0.38
 -15 -11  -5    2.93    0.54
  15 -13  -8   -0.09    0.24
 -15 -13   8   -0.04    0.22
  15 -13  -7    1.06    0.36
 -15 -13   7    1.00    0.37
  15 -13  -6    1.56    0.41
 -15 -13   6    2.54    0.52
  15 -13  -5    0.52    0.31
 -15 -13   5    0.66    0.37
  15 -13  -4    2.44    0.49
 -15 -13   4    2.34    0.49
  15 -13  -3    0.19    0.25
 -15 -13   3    0.25    0.26
  15 -13  -2    1.01    0.33
 -15 -13   2    0.72    0.36
 -15 -13   1   -0.19    0.28
  15 -13  -1    0.63    0.34
  15 -13   0    1.31    0.43
  15 -13   1    0.33    0.26
  15 -15  -7    1.45    0.40
  15 -15  -6    0.42    0.26
  16   0 -19    0.62    0.35
  16   0 -18    1.65    0.39
  16   0 -17   -0.19    0.28
  16   0 -16    0.16    0.24
  16   0 -15   -0.14    0.20
  16   0 -14    3.15    0.49
  16   0 -13    0.05    0.23
  16   0 -12    0.19    0.24
  16   0 -11    0.69    0.31
  16   0 -10   10.01    0.81
  16   0  -9    0.18    0.25
  16   0  -8    8.38    0.79
  16   0  -7    0.13    0.25
  16   0  -6   -0.10    0.28
  16   0  -5    0.04    0.25
  16   0  -4    0.83    0.33
  16   0  -3    0.12    0.27
  16   0  -2    0.45    0.30
  16   0  -1    0.27    0.27
  16   0   0    3.62    0.58
  16   0   1    0.30    0.29
  16   0   2    2.34    0.49
  16   0   3   -0.10    0.29
  16   0   4    0.91    0.37
  16   0   5    0.49    0.36
  16  -2 -19    1.72    0.41
  16  -2 -18    1.88    0.43
  16   2 -18    0.43    0.28
  16  -2 -17    0.89    0.33
  16   2 -17    0.04    0.25
  16  -2 -16   -0.08    0.23
  16   2 -16    0.00    0.21
  16  -2 -15   -0.38    0.26
  16   2 -15    0.28    0.27
  16  -2 -14    1.59    0.36
  16   2 -14    1.45    0.40
  16  -2 -13    1.70    0.34
  16   2 -13    1.73    0.42
  16  -2 -12    0.20    0.18
  16   2 -12    0.83    0.31
  16  -2 -11    3.11    0.46
  16  -2 -11    2.69    0.45
  16   2 -11    2.86    0.48
  16  -2 -10    3.25    0.49
  16  -2 -10    2.88    0.44
  16  -2  -9    2.97    0.49
  16  -2  -9    2.89    0.43
  16  -2  -8    2.49    0.47
  16  -2  -7    7.20    0.72
  16  -2  -6    4.59    0.61
  16   2  -6    3.58    0.56
  16  -2  -5    2.17    0.45
  16   2  -5    2.86    0.52
  16  -2  -4    0.58    0.28
  16   2  -4    0.74    0.32
  16  -2  -3    1.27    0.37
  16   2  -3    2.08    0.47
  16  -2  -2    0.15    0.27
  16   2  -2    0.72    0.37
  16  -2  -1    4.30    0.64
  16   2  -1    4.32    0.63
  16  -2   0    2.63    0.57
  16   2   0    1.27    0.39
  16  -2   1    0.88    0.34
  16   2   1    1.31    0.42
  16  -2   2   -0.02    0.27
  16   2   2    0.39    0.31
  16  -2   3    2.59    0.53
  16   2   3    2.75    0.52
  16  -2   4    1.65    0.42
  16   2   4    1.74    0.49
  16   4 -17    1.25    0.37
  16   4 -16   -0.05    0.23
  16   4 -15    3.85    0.60
  16   4 -14   -0.02    0.22
  16   4 -13    3.73    0.56
  16   4 -12    0.32    0.27
  16  -4 -11    3.66    0.50
  16   4 -11    3.74    0.55
  16  -4 -10    0.15    0.20
  16  -4  -9    0.42    0.27
  16  -4  -8    3.48    0.53
  16  -4  -7    7.91    0.78
  16  -4  -6    1.96    0.42
  16  -4  -5    4.34    0.60
  16  -4  -4    1.62    0.40
  16  -4  -3    2.27    0.50
  16  -4  -2    0.79    0.32
  16   4  -2    0.92    0.37
  16  -4  -1    0.64    0.35
  16   4  -1    0.87    0.40
  16  -4   0    1.93    0.44
  16   4   0    1.79    0.45
  16  -4   1    1.46    0.44
  16   4   1    1.70    0.44
  16  -4   2    0.00    0.32
  16   4   2    0.69    0.37
  16  -4   3    1.02    0.41
  16   4   3    0.90    0.38
  16  -4   4    1.87    0.43
  16   4   4    2.41    0.52
  16   6 -16    0.42    0.28
  16   6 -15   -0.17    0.21
  16   6 -14    2.82    0.52
  16   6 -13    0.47    0.27
  16   6 -12    0.88    0.37
  16  -6 -10    0.90    0.25
  16  -6  -9    0.22    0.25
  16  -6  -8    1.66    0.37
  16  -6  -7    0.70    0.27
  16  -6  -6    1.89    0.43
  16  -6  -5    2.64    0.48
  16  -6  -4    2.83    0.49
  16  -6  -3   -0.05    0.28
  16  -6  -2    0.21    0.28
  16  -6  -1    0.28    0.29
  16  -6   0    1.82    0.42
  16  -6   1   -0.23    0.30
 -16  -6  -1   -0.14    0.23
  16  -6   2    0.19    0.27
 -16  -6  -2    1.02    0.35
  16  -6   3    1.14    0.41
 -16  -6  -3    0.91    0.33
 -16  -6  -4    1.78    0.45
 -16  -6  -5    5.74    0.72
 -16  -6  -6    0.61    0.33
 -16  -6  -7    0.15    0.23
 -16  -6  -8   -0.01    0.29
  16   8 -13    3.64    0.59
  16   8 -12    2.36    0.51
  16  -8 -10    0.13    0.22
  16  -8  -9    1.61    0.38
  16  -8  -8   -0.05    0.24
  16  -8  -7    7.89    0.79
  16  -8  -6    0.12    0.24
  16  -8  -5    0.12    0.25
  16  -8  -4    4.71    0.66
  16  -8  -3    1.44    0.44
  16  -8  -2    0.30    0.28
 -16  -8   2    0.32    0.28
  16  -8  -1    5.70    0.70
 -16  -8   1    5.33    0.70
  16  -8   0    0.87    0.33
 -16  -8   0    1.63    0.44
  16  -8   1    0.14    0.34
 -16  -8  -1   -0.69    0.34
  16  -8   2    0.80    0.33
 -16  -8  -2    0.20    0.26
 -16  -8  -3    2.58    0.53
 -16  -8  -4    0.19    0.27
 -16  -8  -5    0.37    0.25
 -16  -8  -6    0.57    0.32
  16 -10  -9   -0.09    0.26
  16 -10  -8    1.50    0.36
  16 -10  -7    6.24    0.72
  16 -10  -6    0.07    0.27
  16 -10  -5    1.58    0.42
  16 -10  -4    1.32    0.39
 -16 -10   4    1.08    0.35
  16 -10  -3    0.63    0.39
 -16 -10   3   -0.12    0.29
  16 -10  -2    0.34    0.31
 -16 -10   2    0.09    0.31
  16 -10  -1    0.92    0.40
 -16 -10   1    0.66    0.36
  16 -10   0    2.59    0.53
 -16 -10   0    3.64    0.61
  16 -10   1   -0.01    0.25
  16 -12  -8    1.06    0.36
  16 -12  -7    2.64    0.50
  16 -12  -6    0.41    0.33
  16 -12  -5    0.48    0.31
  16 -12  -4    3.53    0.58
  16 -12  -3    0.67    0.33
  16 -12  -2    1.58    0.47
  16 -12  -1    0.24    0.30
  16 -14  -7   -0.28    0.31
  16 -14  -6    1.52    0.42
  16 -14  -5    1.36    0.43
  16 -14  -4   -0.09    0.31
  16 -14  -3    2.17    0.48
  16 -16  -6    2.32    0.48
  17  -1 -17    1.68    0.39
  17   1 -17    2.36    0.48
  17  -1 -16    0.03    0.26
  17   1 -16   -0.27    0.29
  17  -1 -15    0.10    0.23
  17   1 -15    0.00    0.25
  17  -1 -14    0.38    0.26
  17   1 -14    0.44    0.28
  17  -1 -13    2.09    0.41
  17   1 -13    2.85    0.49
  17  -1 -12    0.60    0.29
  17   1 -12    0.24    0.25
  17  -1 -11    2.60    0.45
  17   1 -11    2.82    0.48
  17  -1 -10    2.22    0.45
  17   1 -10    1.46    0.36
  17  -1  -9    2.31    0.45
  17  -1  -8    0.71    0.33
  17  -1  -7    0.92    0.34
  17   1  -7    1.70    0.43
  17  -1  -6    1.02    0.39
  17   1  -6    0.92    0.38
  17  -1  -5    0.11    0.30
  17   1  -5    0.16    0.30
  17  -1  -4    0.40    0.30
  17   1  -4    0.41    0.31
  17  -1  -3    0.34    0.30
  17   1  -3   -0.05    0.29
  17  -1  -2   -0.24    0.27
  17   1  -2    0.01    0.28
  17  -1  -1    0.43    0.29
  17   1  -1    1.23    0.45
  17  -1   0    0.81    0.31
  17   1   0    0.81    0.39
  17  -1   1    1.56    0.42
  17   1   1    1.76    0.50
  17   3 -16    1.55    0.44
  17   3 -15    0.35    0.30
  17   3 -14    1.63    0.43
  17   3 -13    0.37    0.32
  17   3 -12    0.50    0.31
  17   3 -11    2.12    0.47
  17  -3 -10    6.68    0.72
  17  -3  -9    2.63    0.51
  17  -3  -8    3.63    0.55
  17  -3  -7    1.77    0.42
  17  -3  -6    3.49    0.58
  17  -3  -5    0.27    0.26
  17  -3  -4    1.93    0.44
  17  -3  -3    0.06    0.23
  17   3  -3    0.36    0.33
  17  -3  -2    4.65    0.68
  17   3  -2    4.88    0.72
  17  -3  -1    1.15    0.42
  17   3  -1    0.95    0.40
  17  -3   0    2.91    0.56
  17   3   0    3.13    0.57
  17  -3   1    0.70    0.34
  17   5 -14    3.32    0.57
  17   5 -13    7.37    0.79
  17   5 -12    0.67    0.36
  17   5 -11    1.67    0.45
  17  -5 -10    2.46    0.48
  17  -5  -9    2.12    0.43
  17  -5  -8    0.60    0.33
  17  -5  -7    5.73    0.69
  17  -5  -6    1.63    0.41
  17  -5  -5    0.55    0.29
  17  -5  -4    0.17    0.23
  17  -5  -3    1.41    0.39
  17  -5  -2   -0.10    0.28
  17  -5  -1    1.60    0.45
  17  -5   0    1.01    0.41
  17  -7  -9   -0.27    0.32
  17  -7  -8    3.18    0.55
  17  -7  -7    1.32    0.35
  17  -7  -6    3.63    0.57
  17  -7  -5   -0.06    0.28
  17  -7  -4    0.82    0.37
  17  -7  -3    3.78    0.62
  17  -7  -2    0.76    0.37
  17  -7  -1    0.39    0.28
  17  -9  -8    0.26    0.25
  17  -9  -7    0.47    0.26
  17  -9  -6    2.00    0.46
  17  -9  -5    0.89    0.34
  17  -9  -4    0.22    0.27
  17  -9  -3    0.34    0.29
  17  -9  -2    1.26    0.44
  17 -11  -8   -0.16    0.33
  17 -11  -7    0.84    0.38
  17 -11  -6    1.33    0.41
  17 -11  -5    2.12    0.50
  17 -11  -4    2.32    0.51
  17 -13  -7   -0.11    0.36
  17 -13  -6    0.14    0.28
  18   0 -14    0.72    0.27
  18   0 -13   -0.19    0.22
  18   0 -12    4.11    0.57
  18   0 -11    0.56    0.27
  18   0 -10    3.71    0.57
  18   0  -8    1.93    0.45
  18   0  -7    0.14    0.31
  18   0  -6    0.30    0.33
  18   0  -5    0.45    0.31
  18   0  -4    0.32    0.31
  18   0  -3    0.47    0.28
  18   2 -14    0.14    0.24
  18   2 -13    1.47    0.41
  18   2 -12    0.54    0.33
  18   2 -11    2.03    0.47
  18  -2 -10    1.30    0.41
  18   2 -10    1.51    0.40
  18  -2  -9    1.39    0.40
  18  -2  -8    0.20    0.28
  18  -2  -7    0.68    0.37
  18  -2  -6   -0.09    0.24
  18  -2  -5    1.04    0.36
  18  -2  -4    0.21    0.30
  18   2  -4    0.64    0.40
  18  -2  -3    1.55    0.43
  18   4 -11    2.87    0.54
  18  -4  -9    4.41    0.65
  18  -4  -8    2.12    0.46
  18  -4  -7    2.42    0.49
  18  -4  -6   -0.38    0.33
  18  -4  -5    0.30    0.25
  18  -4  -4    0.28    0.32
  18  -4  -3    0.53    0.29
  18  -6  -9    0.40    0.26
  18  -6  -8    1.19    0.39
  18  -6  -7    0.93    0.37
  18  -6  -6    1.38    0.42
  18  -6  -5    1.10    0.41
  18  -6  -4    0.28    0.30
  18  -8  -8    0.27    0.34
  18  -8  -7    0.42    0.28
  18  -8  -6    1.46    0.43
  18  -8  -5    0.90    0.38
  18 -10  -7   -0.26    0.34
  19  -1  -8    2.23    0.51
  19  -3  -9    0.66    0.39
  19  -3  -8    1.64    0.45
  19  -5  -8    0.36    0.29
   0   0   0    0.00    0.00
;
_shelx_hkl_checksum              52931
loop_
_space_group_symop_operation_xyz
'x, y, z'
'x, -y, z+1/2'
'x+1/2, y+1/2, z'
'x+1/2, -y+1/2, z+1/2'
loop_
_atom_site_label
_atom_site_type_symbol
_atom_site_fract_x
_atom_site_fract_y
_atom_site_fract_z
_atom_site_U_iso_or_equiv
_atom_site_adp_type
_atom_site_occupancy
_atom_site_site_symmetry_order
_atom_site_calc_flag
_atom_site_refinement_flags_posn
_atom_site_refinement_flags_adp
Mn1 Mn 0.07552(4) 0.33989(3) 0.14167(3) 0.01958(14) Uani 1 1 d . .
C1 C 0.1460(3) 0.36885(19) 0.06108(18) 0.0168(8) Uani 1 1 d . .
N1 N 0.1776(3) 0.3849(2) 0.0237(2) 0.0563(12) Uani 1 1 d . .
C(A1 C 0.2028(3) 0.42220(19) 0.25562(18) 0.0231(9) Uani 1 1 d . .
C(A2 C 0.2525(3) 0.32218(19) 0.26512(18) 0.0232(9) Uani 1 1 d . .
C(A3 C 0.1850(3) 0.21762(19) 0.21493(17) 0.0221(9) Uani 1 1 d . .
C(A4 C 0.0505(3) 0.18799(18) 0.14317(18) 0.0200(9) Uani 1 1 d . .
C(A5 C -0.0970(3) 0.24621(19) 0.07680(17) 0.0204(9) Uani 1 1 d . .
C(A6 C -0.1463(3) 0.34720(19) 0.06586(17) 0.0212(9) Uani 1 1 d . .
C(A7 C -0.0799(3) 0.45208(18) 0.11897(17) 0.0215(9) Uani 1 1 d . .
C(A8 C 0.0525(3) 0.48009(18) 0.19298(17) 0.0210(9) Uani 1 1 d . .
C(B1 C 0.2997(3) 0.4216(2) 0.29973(19) 0.0312(10) Uani 1 1 d . .
H(B1 H 0.3350 0.4578 0.3204 0.037 Uiso 1 1 calc R U
C(B2 C 0.3301(3) 0.3602(2) 0.30580(19) 0.0315(10) Uani 1 1 d . .
H(B2 H 0.3906 0.3449 0.3317 0.038 Uiso 1 1 calc R U
C(B3 C 0.1858(3) 0.14822(19) 0.21229(18) 0.0255(10) Uani 1 1 d . .
H(B3 H 0.2345 0.1206 0.2371 0.031 Uiso 1 1 calc R U
C(B4 C 0.1035(3) 0.1304(2) 0.16750(19) 0.0292(10) Uani 1 1 d . .
H(B4 H 0.0844 0.0878 0.1545 0.035 Uiso 1 1 calc R U
C(B5 C -0.1959(3) 0.2465(2) 0.03556(18) 0.0243(9) Uani 1 1 d . .
H(B5 H -0.2330 0.2102 0.0170 0.029 Uiso 1 1 calc R U
C(B6 C -0.2251(3) 0.3084(2) 0.02872(18) 0.0242(9) Uani 1 1 d . .
H(B6 H -0.2864 0.3236 0.0040 0.029 Uiso 1 1 calc R U
C(B7 C -0.0868(3) 0.51986(19) 0.13028(18) 0.0253(9) Uani 1 1 d . .
H(B7 H -0.1383 0.5476 0.1092 0.030 Uiso 1 1 calc R U
C(B8 C -0.0063(3) 0.53643(18) 0.17647(18) 0.0243(9) Uani 1 1 d . .
H(B8 H 0.0087 0.5780 0.1948 0.029 Uiso 1 1 calc R U
C(M1 C 0.1450(3) 0.47755(18) 0.23850(18) 0.0227(9) Uani 1 1 d . .
C(M2 C 0.2561(3) 0.25502(19) 0.25789(18) 0.0220(9) Uani 1 1 d . .
C(M3 C -0.0418(3) 0.19004(18) 0.09820(18) 0.0207(9) Uani 1 1 d . .
C(M4 C -0.1499(3) 0.41419(18) 0.07514(17) 0.0194(8) Uani 1 1 d . .
N2 N -0.0688(2) 0.30784(15) 0.09414(14) 0.0186(7) Uani 1 1 d . .
N3 N 0.0063(2) 0.42907(14) 0.15795(14) 0.0191(7) Uani 1 1 d . .
N4 N 0.1775(2) 0.36120(15) 0.23484(14) 0.0204(7) Uani 1 1 d . .
N5 N 0.1023(2) 0.24059(14) 0.17193(14) 0.0186(7) Uani 1 1 d . .
C2 C 0.1860(3) 0.53845(19) 0.27147(18) 0.0231(9) Uani 1 1 d . .
C3 C 0.1891(3) 0.5501(2) 0.33809(19) 0.0257(9) Uani 1 1 d . .
H3A H 0.1636 0.5190 0.3629 0.031 Uiso 1 1 calc R U
C4 C 0.2249(3) 0.5849(2) 0.2365(2) 0.0326(11) Uani 1 1 d . .
H4A H 0.2245 0.5779 0.1912 0.039 Uiso 1 1 calc R U
C5 C 0.2636(3) 0.6405(2) 0.2673(2) 0.0403(12) Uani 1 1 d . .
H5A H 0.2895 0.6717 0.2429 0.048 Uiso 1 1 calc R U
C6 C 0.2654(3) 0.6517(2) 0.3326(2) 0.0407(12) Uani 1 1 d . .
H6A H 0.2919 0.6906 0.3530 0.049 Uiso 1 1 calc R U
C7 C 0.2286(3) 0.6064(2) 0.3691(2) 0.0339(11) Uani 1 1 d . .
H7A H 0.2304 0.6137 0.4146 0.041 Uiso 1 1 calc R U
C8 C 0.3398(3) 0.22058(19) 0.30144(18) 0.0232(9) Uani 1 1 d . .
C9 C 0.3503(3) 0.2187(2) 0.36978(18) 0.0299(10) Uani 1 1 d . .
H9A H 0.3036 0.2395 0.3890 0.036 Uiso 1 1 calc R U
C10 C 0.4291(3) 0.1864(2) 0.41070(19) 0.0285(10) Uani 1 1 d . .
H10A H 0.4347 0.1846 0.4572 0.034 Uiso 1 1 calc R U
C11 C 0.4985(3) 0.15742(19) 0.38373(19) 0.0290(10) Uani 1 1 d . .
H11A H 0.5526 0.1362 0.4115 0.035 Uiso 1 1 calc R U
C12 C 0.4886(3) 0.1596(2) 0.31570(19) 0.0327(11) Uani 1 1 d . .
H12A H 0.5365 0.1399 0.2968 0.039 Uiso 1 1 calc R U
C13 C 0.4099(3) 0.19015(19) 0.27498(19) 0.0294(10) Uani 1 1 d . .
H13A H 0.4035 0.1904 0.2283 0.035 Uiso 1 1 calc R U
C14 C -0.0882(3) 0.12724(19) 0.07341(19) 0.0230(9) Uani 1 1 d . .
C15 C -0.1129(3) 0.0826(2) 0.1162(2) 0.0329(10) Uani 1 1 d . .
H15A H -0.1003 0.0921 0.1623 0.039 Uiso 1 1 calc R U
C16 C -0.1557(3) 0.0245(2) 0.0933(2) 0.0422(12) Uani 1 1 d . .
H16A H -0.1714 -0.0054 0.1237 0.051 Uiso 1 1 calc R U
C17 C -0.1753(3) 0.0100(2) 0.0267(3) 0.0427(12) Uani 1 1 d . .
H17A H -0.2048 -0.0296 0.0108 0.051 Uiso 1 1 calc R U
C18 C -0.1514(3) 0.0541(2) -0.0166(2) 0.0402(12) Uani 1 1 d . .
H18A H -0.1645 0.0445 -0.0627 0.048 Uiso 1 1 calc R U
C19 C -0.1089(3) 0.1119(2) 0.0060(2) 0.0301(10) Uani 1 1 d . .
H19A H -0.0934 0.1417 -0.0247 0.036 Uiso 1 1 calc R U
C20 C -0.2392(3) 0.44760(19) 0.03509(18) 0.0246(9) Uani 1 1 d . .
C21 C -0.3059(3) 0.4771(2) 0.0647(2) 0.0333(11) Uani 1 1 d . .
H21A H -0.2955 0.4767 0.1116 0.040 Uiso 1 1 calc R U
C22 C -0.3886(3) 0.5077(2) 0.0263(2) 0.0407(12) Uani 1 1 d . .
H22A H -0.4343 0.5275 0.0471 0.049 Uiso 1 1 calc R U
C23 C -0.4036(4) 0.5091(2) -0.0416(2) 0.0427(12) Uani 1 1 d . .
H23A H -0.4592 0.5302 -0.0677 0.051 Uiso 1 1 calc R U
C24 C -0.3380(3) 0.4799(2) -0.0719(2) 0.0372(11) Uani 1 1 d . .
H24A H -0.3486 0.4807 -0.1189 0.045 Uiso 1 1 calc R U
C25 C -0.2568(3) 0.4494(2) -0.03398(19) 0.0311(10) Uani 1 1 d . .
H25A H -0.2120 0.4293 -0.0554 0.037 Uiso 1 1 calc R U
C26 C 0.3719(3) 0.7245(2) 0.5833(2) 0.0403(12) Uani 1 1 d . .
H26A H 0.3890 0.7152 0.6315 0.048 Uiso 1 1 calc R U
H26B H 0.3510 0.6838 0.5597 0.048 Uiso 1 1 calc R U
C27 C 0.1627(4) 0.8072(3) 0.4806(2) 0.0500(14) Uani 1 1 d . .
H27A H 0.1659 0.8517 0.4974 0.060 Uiso 1 1 calc R U
H27B H 0.1161 0.7829 0.5002 0.060 Uiso 1 1 calc R U
C28 C 0.2881(3) 0.7705(2) 0.5688(2) 0.0375(11) Uani 1 1 d . .
H28A H 0.2339 0.7538 0.5868 0.045 Uiso 1 1 calc R U
H28B H 0.3086 0.8124 0.5900 0.045 Uiso 1 1 calc R U
C29 C 0.1296(4) 0.8070(3) 0.4067(3) 0.0526(14) Uani 1 1 d . .
H29A H 0.1308 0.7627 0.3898 0.063 Uiso 1 1 calc R U
H29B H 0.0618 0.8232 0.3932 0.063 Uiso 1 1 calc R U
C30 C 0.1595(4) 0.8519(3) 0.3089(2) 0.0520(15) Uani 1 1 d . .
H30A H 0.0908 0.8665 0.2969 0.062 Uiso 1 1 calc R U
H30B H 0.1633 0.8095 0.2881 0.062 Uiso 1 1 calc R U
C31 C 0.2231(4) 0.8991(3) 0.2844(2) 0.0556(15) Uani 1 1 d . .
H31A H 0.1964 0.9058 0.2363 0.067 Uiso 1 1 calc R U
H31B H 0.2199 0.9406 0.3069 0.067 Uiso 1 1 calc R U
C32 C 0.5108(4) 0.7968(2) 0.6106(2) 0.0448(13) Uani 1 1 d . .
H32A H 0.5506 0.7752 0.6503 0.054 Uiso 1 1 calc R U
H32B H 0.4618 0.8237 0.6251 0.054 Uiso 1 1 calc R U
C33 C 0.5760(4) 0.8396(3) 0.5813(2) 0.0534(15) Uani 1 1 d . .
H33A H 0.6162 0.8667 0.6166 0.064 Uiso 1 1 calc R U
H33B H 0.6204 0.8131 0.5618 0.064 Uiso 1 1 calc R U
C34 C 0.5076(4) 0.9728(3) 0.4647(3) 0.0594(17) Uani 1 1 d . .
H34A H 0.4514 0.9870 0.4820 0.071 Uiso 1 1 calc R U
H34B H 0.5434 1.0113 0.4557 0.071 Uiso 1 1 calc R U
C35 C 0.5728(4) 0.9317(3) 0.5143(3) 0.0608(17) Uani 1 1 d . .
H35A H 0.6267 0.9154 0.4957 0.073 Uiso 1 1 calc R U
H35B H 0.6015 0.9572 0.5544 0.073 Uiso 1 1 calc R U
C36 C 0.4131(5) 0.9744(2) 0.3546(2) 0.0559(15) Uani 1 1 d . .
H36A H 0.4471 1.0144 0.3476 0.067 Uiso 1 1 calc R U
H36B H 0.3526 0.9862 0.3682 0.067 Uiso 1 1 calc R U
C37 C 0.3883(4) 0.9359(2) 0.2911(2) 0.0532(15) Uani 1 1 d . .
H37A H 0.3540 0.9639 0.2545 0.064 Uiso 1 1 calc R U
H37B H 0.4495 0.9212 0.2804 0.064 Uiso 1 1 calc R U
C38 C 0.5254(3) 0.6938(2) 0.5594(2) 0.0406(12) Uani 1 1 d . .
H38A H 0.5215 0.6620 0.5941 0.049 Uiso 1 1 calc R U
H38B H 0.5933 0.7099 0.5686 0.049 Uiso 1 1 calc R U
C39 C 0.5021(4) 0.6612(2) 0.4932(2) 0.0348(11) Uani 1 1 d . .
H39A H 0.5451 0.6235 0.4941 0.042 Uiso 1 1 calc R U
H39B H 0.4336 0.6462 0.4824 0.042 Uiso 1 1 calc R U
C40 C 0.5255(3) 0.6748(2) 0.3842(2) 0.0372(12) Uani 1 1 d . .
H40A H 0.4692 0.6458 0.3684 0.045 Uiso 1 1 calc R U
H40B H 0.5858 0.6487 0.3928 0.045 Uiso 1 1 calc R U
C41 C 0.5285(3) 0.7245(2) 0.3326(2) 0.0419(12) Uani 1 1 d . .
H41A H 0.5837 0.7541 0.3491 0.050 Uiso 1 1 calc R U
H41B H 0.5384 0.7035 0.2919 0.050 Uiso 1 1 calc R U
C42 C 0.4307(3) 0.7964(2) 0.2593(2) 0.0384(12) Uani 1 1 d . .
H42A H 0.4342 0.7680 0.2217 0.046 Uiso 1 1 calc R U
H42B H 0.4852 0.8274 0.2656 0.046 Uiso 1 1 calc R U
C43 C 0.3357(4) 0.8316(2) 0.2443(2) 0.0419(12) Uani 1 1 d . .
H43A H 0.3275 0.8533 0.2009 0.050 Uiso 1 1 calc R U
H43B H 0.2821 0.8001 0.2402 0.050 Uiso 1 1 calc R U
K2 K 0.39462(7) 0.81699(4) 0.42951(4) 0.0306(2) Uani 1 1 d . .
N6 N 0.3268(3) 0.87995(17) 0.29517(17) 0.0386(9) Uani 1 1 d . .
N7 N 0.4597(3) 0.74786(18) 0.56384(17) 0.0351(9) Uani 1 1 d . .
O1 O 0.4739(3) 0.93702(15) 0.40496(17) 0.0493(9) Uani 1 1 d . .
O2 O 0.5188(2) 0.87882(16) 0.53193(15) 0.0442(8) Uani 1 1 d . .
O3 O 0.2566(2) 0.77831(14) 0.49863(14) 0.0371(8) Uani 1 1 d . .
O4 O 0.1925(2) 0.84688(15) 0.37948(15) 0.0426(8) Uani 1 1 d . .
O5 O 0.5167(2) 0.70604(14) 0.44420(13) 0.0355(8) Uani 1 1 d . .
O6 O 0.4392(2) 0.75939(14) 0.31786(13) 0.0323(7) Uani 1 1 d . .
loop_
_atom_site_aniso_label
_atom_site_aniso_U_11
_atom_site_aniso_U_22
_atom_site_aniso_U_33
_atom_site_aniso_U_23
_atom_site_aniso_U_13
_atom_site_aniso_U_12
Mn1 0.0159(3) 0.0229(3) 0.0193(3) -0.0012(3) 0.0028(2) 0.0013(3)
C1 0.0086(19) 0.025(2) 0.0170(19) -0.0047(17) 0.0034(15) 0.0014(17)
N1 0.049(3) 0.049(3) 0.062(3) -0.014(2) -0.006(2) -0.005(2)
C(A1 0.022(2) 0.022(2) 0.023(2) -0.0003(17) 0.0002(16) 0.0003(19)
C(A2 0.020(2) 0.029(2) 0.0193(19) -0.0016(17) 0.0024(16) 0.0071(19)
C(A3 0.021(2) 0.026(2) 0.020(2) -0.0002(17) 0.0063(16) 0.0028(19)
C(A4 0.019(2) 0.023(2) 0.0189(19) -0.0013(17) 0.0047(17) 0.0024(18)
C(A5 0.016(2) 0.027(2) 0.020(2) -0.0005(17) 0.0066(15) -0.0017(19)
C(A6 0.020(2) 0.026(2) 0.0184(19) -0.0001(17) 0.0064(15) -0.0004(19)
C(A7 0.024(2) 0.024(2) 0.0180(19) 0.0026(17) 0.0077(16) 0.003(2)
C(A8 0.024(2) 0.022(2) 0.0173(19) 0.0015(16) 0.0058(16) 0.0002(19)
C(B1 0.026(2) 0.031(3) 0.031(2) -0.0030(19) -0.0061(18) 0.001(2)
C(B2 0.023(2) 0.035(3) 0.030(2) -0.001(2) -0.0059(18) 0.004(2)
C(B3 0.023(2) 0.026(2) 0.024(2) 0.0004(18) -0.0015(17) 0.008(2)
C(B4 0.030(2) 0.025(2) 0.032(2) -0.0027(19) 0.0061(18) 0.002(2)
C(B5 0.018(2) 0.028(2) 0.026(2) -0.0022(17) 0.0030(16) -0.0043(19)
C(B6 0.016(2) 0.034(3) 0.021(2) 0.0021(18) 0.0015(16) 0.005(2)
C(B7 0.021(2) 0.022(2) 0.030(2) 0.0033(18) -0.0006(17) 0.0016(19)
C(B8 0.026(2) 0.019(2) 0.026(2) -0.0010(17) 0.0024(17) -0.0004(19)
C(M1 0.021(2) 0.024(2) 0.022(2) 0.0007(17) 0.0035(16) -0.0008(19)
C(M2 0.020(2) 0.028(2) 0.0185(19) 0.0005(17) 0.0061(16) 0.0066(19)
C(M3 0.020(2) 0.024(2) 0.0179(19) -0.0030(17) 0.0050(16) -0.0018(19)
C(M4 0.015(2) 0.023(2) 0.0197(19) 0.0027(16) 0.0039(15) 0.0021(18)
N2 0.0148(17) 0.0238(19) 0.0174(16) 0.0003(14) 0.0040(13) 0.0030(15)
N3 0.0136(17) 0.0224(18) 0.0207(16) -0.0013(14) 0.0028(13) 0.0015(15)
N4 0.0192(18) 0.0211(18) 0.0192(16) -0.0008(14) 0.0010(13) 0.0010(15)
N5 0.0177(17) 0.0198(17) 0.0176(15) -0.0016(13) 0.0029(13) 0.0000(15)
C2 0.018(2) 0.021(2) 0.026(2) 0.0002(17) -0.0034(17) 0.0054(18)
C3 0.017(2) 0.027(2) 0.029(2) -0.0009(19) -0.0030(17) 0.0045(19)
C4 0.028(3) 0.036(3) 0.029(2) 0.005(2) -0.0017(18) -0.002(2)
C5 0.036(3) 0.032(3) 0.050(3) -0.002(2) 0.004(2) -0.012(2)
C6 0.027(3) 0.031(3) 0.056(3) -0.014(2) -0.005(2) -0.003(2)
C7 0.023(2) 0.043(3) 0.032(2) -0.011(2) -0.0021(18) 0.008(2)
C8 0.020(2) 0.023(2) 0.025(2) 0.0018(18) 0.0024(16) 0.0010(19)
C9 0.025(2) 0.040(3) 0.025(2) 0.000(2) 0.0063(18) 0.007(2)
C10 0.026(2) 0.039(3) 0.019(2) 0.0081(19) 0.0016(17) 0.005(2)
C11 0.025(2) 0.025(2) 0.031(2) 0.0011(19) -0.0042(18) 0.003(2)
C12 0.026(2) 0.035(3) 0.034(2) -0.005(2) 0.0007(19) 0.012(2)
C13 0.030(2) 0.035(2) 0.020(2) -0.0011(18) 0.0006(18) 0.009(2)
C14 0.017(2) 0.019(2) 0.031(2) -0.0048(18) 0.0020(17) 0.0038(19)
C15 0.033(3) 0.027(2) 0.037(2) -0.005(2) 0.005(2) -0.005(2)
C16 0.036(3) 0.031(3) 0.061(3) 0.004(2) 0.015(2) -0.003(2)
C17 0.031(3) 0.030(3) 0.063(3) -0.016(3) 0.005(2) -0.004(2)
C18 0.031(3) 0.046(3) 0.039(3) -0.020(2) 0.000(2) -0.001(3)
C19 0.025(2) 0.032(2) 0.032(2) -0.006(2) 0.0015(18) 0.000(2)
C20 0.024(2) 0.020(2) 0.027(2) 0.0021(17) -0.0004(17) -0.0019(19)
C21 0.026(2) 0.037(3) 0.033(2) -0.005(2) -0.0002(19) 0.007(2)
C22 0.029(3) 0.034(3) 0.053(3) -0.009(2) -0.001(2) 0.012(2)
C23 0.032(3) 0.031(3) 0.055(3) 0.005(2) -0.012(2) 0.005(2)
C24 0.035(3) 0.037(3) 0.034(2) 0.014(2) -0.004(2) -0.004(2)
C25 0.027(2) 0.033(3) 0.032(2) 0.006(2) 0.0040(18) 0.002(2)
C26 0.042(3) 0.050(3) 0.034(3) 0.004(2) 0.019(2) 0.000(3)
C27 0.038(3) 0.064(4) 0.057(3) 0.016(3) 0.027(2) 0.009(3)
C28 0.038(3) 0.041(3) 0.040(3) 0.004(2) 0.024(2) -0.003(2)
C29 0.031(3) 0.063(4) 0.067(4) 0.014(3) 0.017(3) 0.003(3)
C30 0.049(3) 0.068(4) 0.038(3) 0.012(3) 0.009(2) 0.008(3)
C31 0.068(4) 0.053(4) 0.050(3) 0.016(3) 0.024(3) 0.022(3)
C32 0.049(3) 0.056(3) 0.030(2) -0.013(2) 0.012(2) -0.011(3)
C33 0.042(3) 0.073(4) 0.047(3) -0.027(3) 0.014(2) -0.022(3)
C34 0.084(5) 0.044(3) 0.059(4) -0.021(3) 0.033(3) -0.033(3)
C35 0.059(4) 0.066(4) 0.067(4) -0.032(3) 0.033(3) -0.044(3)
C36 0.087(5) 0.028(3) 0.064(4) 0.002(3) 0.040(3) -0.010(3)
C37 0.078(4) 0.042(3) 0.050(3) 0.004(2) 0.036(3) -0.005(3)
C38 0.033(3) 0.056(3) 0.032(2) 0.001(2) 0.007(2) 0.006(3)
C39 0.033(3) 0.033(3) 0.039(3) -0.003(2) 0.009(2) 0.006(2)
C40 0.032(3) 0.045(3) 0.035(2) -0.009(2) 0.007(2) 0.012(2)
C41 0.035(3) 0.055(3) 0.040(3) -0.008(2) 0.016(2) 0.006(3)
C42 0.052(3) 0.037(3) 0.034(2) 0.001(2) 0.025(2) 0.001(2)
C43 0.064(4) 0.034(3) 0.031(2) 0.006(2) 0.017(2) 0.001(3)
K2 0.0330(6) 0.0290(5) 0.0338(5) -0.0055(4) 0.0163(4) -0.0071(5)
N6 0.052(3) 0.031(2) 0.041(2) 0.0020(17) 0.0273(19) 0.000(2)
N7 0.027(2) 0.047(2) 0.033(2) -0.0097(17) 0.0109(16) -0.0031(19)
O1 0.068(3) 0.0348(19) 0.054(2) -0.0139(17) 0.0322(18) -0.0166(19)
O2 0.039(2) 0.050(2) 0.0451(19) -0.0143(16) 0.0137(16) -0.0188(18)
O3 0.0323(18) 0.046(2) 0.0385(17) 0.0076(15) 0.0204(14) 0.0038(16)
O4 0.041(2) 0.044(2) 0.0466(19) 0.0074(16) 0.0176(15) 0.0016(17)
O5 0.0407(19) 0.0367(19) 0.0302(16) -0.0060(14) 0.0102(14) 0.0023(16)
O6 0.0347(18) 0.0364(18) 0.0294(15) 0.0009(13) 0.0149(13) 0.0052(15)
loop_
_atom_type_symbol
_atom_type_description
_atom_type_scat_dispersion_real
_atom_type_scat_dispersion_imag
_atom_type_scat_source
C C 0.0033 0.0016 'International Tables Vol C Tables 4.2.6.8 and 6.1.1.4'
H H 0.0000 0.0000 'International Tables Vol C Tables 4.2.6.8 and 6.1.1.4'
N N 0.0061 0.0033 'International Tables Vol C Tables 4.2.6.8 and 6.1.1.4'
O O 0.0106 0.0060 'International Tables Vol C Tables 4.2.6.8 and 6.1.1.4'
K K 0.2009 0.2494 'International Tables Vol C Tables 4.2.6.8 and 6.1.1.4'
Mn Mn 0.3368 0.7283 'International Tables Vol C Tables 4.2.6.8 and 6.1.1.4'
loop_
_geom_angle_atom_site_label_1
_geom_angle_atom_site_label_2
_geom_angle_atom_site_label_3
_geom_angle
N2 Mn1 N3 85.71(11)
N2 Mn1 N4 146.24(12)
N3 Mn1 N4 85.05(11)
N2 Mn1 N5 85.25(11)
N3 Mn1 N5 146.00(12)
N4 Mn1 N5 84.52(11)
N2 Mn1 C1 106.50(12)
N3 Mn1 C1 100.49(13)
N4 Mn1 C1 107.10(13)
N5 Mn1 C1 113.50(13)
N1 C1 Mn1 176.8(4)
N4 C(A1 C(M1 126.3(3)
N4 C(A1 C(B1 109.1(3)
C(M1 C(A1 C(B1 124.6(4)
N4 C(A2 C(M2 125.9(4)
N4 C(A2 C(B2 109.8(3)
C(M2 C(A2 C(B2 124.3(4)
N5 C(A3 C(M2 125.8(4)
N5 C(A3 C(B3 109.6(3)
C(M2 C(A3 C(B3 124.5(3)
N5 C(A4 C(M3 125.2(3)
N5 C(A4 C(B4 109.5(3)
C(M3 C(A4 C(B4 125.3(4)
N2 C(A5 C(M3 126.2(3)
N2 C(A5 C(B5 109.2(3)
C(M3 C(A5 C(B5 124.5(4)
N2 C(A6 C(M4 125.5(3)
N2 C(A6 C(B6 109.1(3)
C(M4 C(A6 C(B6 125.4(4)
N3 C(A7 C(M4 124.6(3)
N3 C(A7 C(B7 109.3(3)
C(M4 C(A7 C(B7 126.0(4)
N3 C(A8 C(M1 125.0(3)
N3 C(A8 C(B8 109.6(3)
C(M1 C(A8 C(B8 125.4(3)
C(B2 C(B1 C(A1 107.4(4)
C(B2 C(B1 H(B1 126.3
C(A1 C(B1 H(B1 126.3
C(B1 C(B2 C(A2 106.6(4)
C(B1 C(B2 H(B2 126.7
C(A2 C(B2 H(B2 126.7
C(B4 C(B3 C(A3 106.6(4)
C(B4 C(B3 H(B3 126.7
C(A3 C(B3 H(B3 126.7
C(B3 C(B4 C(A4 107.6(4)
C(B3 C(B4 H(B4 126.2
C(A4 C(B4 H(B4 126.2
C(B6 C(B5 C(A5 107.0(4)
C(B6 C(B5 H(B5 126.5
C(A5 C(B5 H(B5 126.5
C(B5 C(B6 C(A6 107.6(3)
C(B5 C(B6 H(B6 126.2
C(A6 C(B6 H(B6 126.2
C(B8 C(B7 C(A7 106.8(3)
C(B8 C(B7 H(B7 126.6
C(A7 C(B7 H(B7 126.6
C(B7 C(B8 C(A8 107.7(3)
C(B7 C(B8 H(B8 126.2
C(A8 C(B8 H(B8 126.2
C(A1 C(M1 C(A8 125.8(3)
C(A1 C(M1 C2 116.3(3)
C(A8 C(M1 C2 118.0(3)
C(A3 C(M2 C(A2 125.4(4)
C(A3 C(M2 C8 117.4(3)
C(A2 C(M2 C8 117.2(3)
C(A4 C(M3 C(A5 125.7(3)
C(A4 C(M3 C14 117.4(3)
C(A5 C(M3 C14 116.8(3)
C(A6 C(M4 C(A7 126.7(3)
C(A6 C(M4 C20 115.8(3)
C(A7 C(M4 C20 117.5(3)
C(A5 N2 C(A6 107.2(3)
C(A5 N2 Mn1 126.7(2)
C(A6 N2 Mn1 125.4(2)
C(A8 N3 C(A7 106.6(3)
C(A8 N3 Mn1 125.2(2)
C(A7 N3 Mn1 125.2(2)
C(A1 N4 C(A2 107.1(3)
C(A1 N4 Mn1 122.9(2)
C(A2 N4 Mn1 124.6(2)
C(A4 N5 C(A3 106.6(3)
C(A4 N5 Mn1 126.7(2)
C(A3 N5 Mn1 125.6(2)
C3 C2 C4 118.0(4)
C3 C2 C(M1 121.4(3)
C4 C2 C(M1 120.6(3)
C7 C3 C2 121.4(4)
C7 C3 H3A 119.3
C2 C3 H3A 119.3
C5 C4 C2 120.4(4)
C5 C4 H4A 119.8
C2 C4 H4A 119.8
C6 C5 C4 121.1(4)
C6 C5 H5A 119.5
C4 C5 H5A 119.5
C5 C6 C7 120.2(4)
C5 C6 H6A 119.9
C7 C6 H6A 119.9
C6 C7 C3 118.9(4)
C6 C7 H7A 120.5
C3 C7 H7A 120.5
C9 C8 C13 118.2(4)
C9 C8 C(M2 120.7(4)
C13 C8 C(M2 121.1(3)
C8 C9 C10 120.6(4)
C8 C9 H9A 119.7
C10 C9 H9A 119.7
C11 C10 C9 120.3(4)
C11 C10 H10A 119.9
C9 C10 H10A 119.9
C10 C11 C12 119.2(4)
C10 C11 H11A 120.4
C12 C11 H11A 120.4
C13 C12 C11 120.7(4)
C13 C12 H12A 119.7
C11 C12 H12A 119.7
C12 C13 C8 120.9(4)
C12 C13 H13A 119.6
C8 C13 H13A 119.6
C15 C14 C19 117.6(4)
C15 C14 C(M3 121.5(3)
C19 C14 C(M3 120.9(4)
C14 C15 C16 121.5(4)
C14 C15 H15A 119.3
C16 C15 H15A 119.3
C17 C16 C15 120.2(4)
C17 C16 H16A 119.9
C15 C16 H16A 119.9
C16 C17 C18 119.0(4)
C16 C17 H17A 120.5
C18 C17 H17A 120.5
C19 C18 C17 120.9(4)
C19 C18 H18A 119.5
C17 C18 H18A 119.5
C18 C19 C14 120.8(4)
C18 C19 H19A 119.6
C14 C19 H19A 119.6
C21 C20 C25 117.9(4)
C21 C20 C(M4 122.0(3)
C25 C20 C(M4 120.1(4)
C20 C21 C22 120.9(4)
C20 C21 H21A 119.6
C22 C21 H21A 119.6
C23 C22 C21 119.8(4)
C23 C22 H22A 120.1
C21 C22 H22A 120.1
C22 C23 C24 120.1(4)
C22 C23 H23A 120.0
C24 C23 H23A 120.0
C23 C24 C25 120.0(4)
C23 C24 H24A 120.0
C25 C24 H24A 120.0
C24 C25 C20 121.3(4)
C24 C25 H25A 119.4
C20 C25 H25A 119.4
N7 C26 C28 114.1(4)
N7 C26 H26A 108.7
C28 C26 H26A 108.7
N7 C26 H26B 108.7
C28 C26 H26B 108.7
H26A C26 H26B 107.6
O3 C27 C29 108.4(4)
O3 C27 H27A 110.0
C29 C27 H27A 110.0
O3 C27 H27B 110.0
C29 C27 H27B 110.0
H27A C27 H27B 108.4
O3 C28 C26 108.6(4)
O3 C28 H28A 110.0
C26 C28 H28A 110.0
O3 C28 H28B 110.0
C26 C28 H28B 110.0
H28A C28 H28B 108.4
O4 C29 C27 109.3(4)
O4 C29 H29A 109.8
C27 C29 H29A 109.8
O4 C29 H29B 109.8
C27 C29 H29B 109.8
H29A C29 H29B 108.3
O4 C30 C31 108.5(4)
O4 C30 H30A 110.0
C31 C30 H30A 110.0
O4 C30 H30B 110.0
C31 C30 H30B 110.0
H30A C30 H30B 108.4
N6 C31 C30 114.9(4)
N6 C31 H31A 108.6
C30 C31 H31A 108.6
N6 C31 H31B 108.6
C30 C31 H31B 108.6
H31A C31 H31B 107.5
N7 C32 C33 113.4(4)
N7 C32 H32A 108.9
C33 C32 H32A 108.9
N7 C32 H32B 108.9
C33 C32 H32B 108.9
H32A C32 H32B 107.7
O2 C33 C32 109.7(4)
O2 C33 H33A 109.7
C32 C33 H33A 109.7
O2 C33 H33B 109.7
C32 C33 H33B 109.7
H33A C33 H33B 108.2
O1 C34 C35 109.0(5)
O1 C34 H34A 109.9
C35 C34 H34A 109.9
O1 C34 H34B 109.9
C35 C34 H34B 109.9
H34A C34 H34B 108.3
O2 C35 C34 110.0(4)
O2 C35 H35A 109.7
C34 C35 H35A 109.7
O2 C35 H35B 109.7
C34 C35 H35B 109.7
H35A C35 H35B 108.2
O1 C36 C37 108.8(4)
O1 C36 H36A 109.9
C37 C36 H36A 109.9
O1 C36 H36B 109.9
C37 C36 H36B 109.9
H36A C36 H36B 108.3
N6 C37 C36 113.1(4)
N6 C37 H37A 109.0
C36 C37 H37A 109.0
N6 C37 H37B 109.0
C36 C37 H37B 109.0
H37A C37 H37B 107.8
N7 C38 C39 113.5(4)
N7 C38 H38A 108.9
C39 C38 H38A 108.9
N7 C38 H38B 108.9
C39 C38 H38B 108.9
H38A C38 H38B 107.7
O5 C39 C38 108.4(4)
O5 C39 H39A 110.0
C38 C39 H39A 110.0
O5 C39 H39B 110.0
C38 C39 H39B 110.0
H39A C39 H39B 108.4
O5 C40 C41 109.1(4)
O5 C40 H40A 109.9
C41 C40 H40A 109.9
O5 C40 H40B 109.9
C41 C40 H40B 109.9
H40A C40 H40B 108.3
O6 C41 C40 109.6(4)
O6 C41 H41A 109.8
C40 C41 H41A 109.8
O6 C41 H41B 109.8
C40 C41 H41B 109.8
H41A C41 H41B 108.2
O6 C42 C43 109.6(3)
O6 C42 H42A 109.7
C43 C42 H42A 109.7
O6 C42 H42B 109.7
C43 C42 H42B 109.7
H42A C42 H42B 108.2
N6 C43 C42 113.9(4)
N6 C43 H43A 108.8
C42 C43 H43A 108.8
N6 C43 H43B 108.8
C42 C43 H43B 108.8
H43A C43 H43B 107.7
O2 K2 O3 97.73(9)
O2 K2 O6 127.92(9)
O3 K2 O6 128.13(9)
O2 K2 O1 61.03(10)
O3 K2 O1 134.32(10)
O6 K2 O1 93.18(9)
O2 K2 O5 92.25(10)
O3 K2 O5 100.77(9)
O6 K2 O5 59.66(8)
O1 K2 O5 118.71(10)
O2 K2 O4 125.40(10)
O3 K2 O4 59.60(9)
O6 K2 O4 101.06(9)
O1 K2 O4 98.29(10)
O5 K2 O4 137.61(10)
O2 K2 N6 121.04(10)
O3 K2 N6 119.36(10)
O6 K2 N6 60.67(9)
O1 K2 N6 60.26(10)
O5 K2 N6 120.12(9)
O4 K2 N6 60.00(10)
O2 K2 N7 61.25(10)
O3 K2 N7 59.74(9)
O6 K2 N7 117.93(9)
O1 K2 N7 121.99(10)
O5 K2 N7 58.70(9)
O4 K2 N7 119.26(10)
N6 K2 N7 177.69(11)
C37 N6 C31 110.7(4)
C37 N6 C43 110.5(4)
C31 N6 C43 108.7(4)
C37 N6 K2 109.6(3)
C31 N6 K2 110.0(3)
C43 N6 K2 107.3(2)
C26 N7 C32 111.2(4)
C26 N7 C38 110.2(4)
C32 N7 C38 110.6(4)
C26 N7 K2 108.2(3)
C32 N7 K2 105.4(3)
C38 N7 K2 111.1(2)
C36 O1 C34 111.7(4)
C36 O1 K2 114.9(3)
C34 O1 K2 111.7(3)
C33 O2 C35 112.6(4)
C33 O2 K2 116.3(3)
C35 O2 K2 116.5(3)
C27 O3 C28 111.3(3)
C27 O3 K2 117.4(2)
C28 O3 K2 117.9(2)
C29 O4 C30 111.4(4)
C29 O4 K2 112.9(3)
C30 O4 K2 116.3(3)
C39 O5 C40 112.0(3)
C39 O5 K2 114.9(2)
C40 O5 K2 116.7(2)
C42 O6 C41 110.7(3)
C42 O6 K2 118.8(2)
C41 O6 K2 113.6(2)
loop_
_geom_bond_atom_site_label_1
_geom_bond_atom_site_label_2
_geom_bond_distance
Mn1 N2 2.150(3)
Mn1 N3 2.164(3)
Mn1 N4 2.165(3)
Mn1 N5 2.172(3)
Mn1 C1 2.220(4)
C1 N1 1.036(5)
C(A1 N4 1.364(5)
C(A1 C(M1 1.410(5)
C(A1 C(B1 1.455(5)
C(A2 N4 1.365(5)
C(A2 C(M2 1.411(5)
C(A2 C(B2 1.451(5)
C(A3 N5 1.377(5)
C(A3 C(M2 1.409(5)
C(A3 C(B3 1.449(5)
C(A4 N5 1.374(5)
C(A4 C(M3 1.412(5)
C(A4 C(B4 1.442(5)
C(A5 N2 1.368(5)
C(A5 C(M3 1.419(5)
C(A5 C(B5 1.456(5)
C(A6 N2 1.382(5)
C(A6 C(M4 1.413(5)
C(A6 C(B6 1.442(5)
C(A7 N3 1.378(5)
C(A7 C(M4 1.416(5)
C(A7 C(B7 1.441(5)
C(A8 N3 1.365(5)
C(A8 C(M1 1.419(5)
C(A8 C(B8 1.433(5)
C(B1 C(B2 1.346(6)
C(B1 H(B1 0.9500
C(B2 H(B2 0.9500
C(B3 C(B4 1.356(5)
C(B3 H(B3 0.9500
C(B4 H(B4 0.9500
C(B5 C(B6 1.353(6)
C(B5 H(B5 0.9500
C(B6 H(B6 0.9500
C(B7 C(B8 1.347(5)
C(B7 H(B7 0.9500
C(B8 H(B8 0.9500
C(M1 C2 1.493(5)
C(M2 C8 1.491(5)
C(M3 C14 1.500(5)
C(M4 C20 1.506(5)
C2 C3 1.393(5)
C2 C4 1.397(6)
C3 C7 1.391(6)
C3 H3A 0.9500
C4 C5 1.375(6)
C4 H4A 0.9500
C5 C6 1.368(6)
C5 H5A 0.9500
C6 C7 1.385(6)
C6 H6A 0.9500
C7 H7A 0.9500
C8 C9 1.390(5)
C8 C13 1.392(6)
C9 C10 1.402(5)
C9 H9A 0.9500
C10 C11 1.377(6)
C10 H10A 0.9500
C11 C12 1.385(5)
C11 H11A 0.9500
C12 C13 1.383(5)
C12 H12A 0.9500
C13 H13A 0.9500
C14 C15 1.385(6)
C14 C19 1.396(5)
C15 C16 1.388(6)
C15 H15A 0.9500
C16 C17 1.376(6)
C16 H16A 0.9500
C17 C18 1.381(7)
C17 H17A 0.9500
C18 C19 1.380(6)
C18 H18A 0.9500
C19 H19A 0.9500
C20 C21 1.383(6)
C20 C25 1.395(5)
C21 C22 1.402(6)
C21 H21A 0.9500
C22 C23 1.374(6)
C22 H22A 0.9500
C23 C24 1.377(7)
C23 H23A 0.9500
C24 C25 1.383(6)
C24 H24A 0.9500
C25 H25A 0.9500
C26 N7 1.472(6)
C26 C28 1.498(6)
C26 H26A 0.9900
C26 H26B 0.9900
C27 O3 1.423(5)
C27 C29 1.491(6)
C27 H27A 0.9900
C27 H27B 0.9900
C28 O3 1.426(5)
C28 H28A 0.9900
C28 H28B 0.9900
C29 O4 1.427(6)
C29 H29A 0.9900
C29 H29B 0.9900
C30 O4 1.431(5)
C30 C31 1.499(7)
C30 H30A 0.9900
C30 H30B 0.9900
C31 N6 1.483(6)
C31 H31A 0.9900
C31 H31B 0.9900
C32 N7 1.474(5)
C32 C33 1.508(7)
C32 H32A 0.9900
C32 H32B 0.9900
C33 O2 1.406(6)
C33 H33A 0.9900
C33 H33B 0.9900
C34 O1 1.428(5)
C34 C35 1.481(7)
C34 H34A 0.9900
C34 H34B 0.9900
C35 O2 1.436(6)
C35 H35A 0.9900
C35 H35B 0.9900
C36 O1 1.419(6)
C36 C37 1.512(6)
C36 H36A 0.9900
C36 H36B 0.9900
C37 N6 1.467(6)
C37 H37A 0.9900
C37 H37B 0.9900
C38 N7 1.476(6)
C38 C39 1.498(6)
C38 H38A 0.9900
C38 H38B 0.9900
C39 O5 1.432(5)
C39 H39A 0.9900
C39 H39B 0.9900
C40 O5 1.434(5)
C40 C41 1.498(6)
C40 H40A 0.9900
C40 H40B 0.9900
C41 O6 1.426(5)
C41 H41A 0.9900
C41 H41B 0.9900
C42 O6 1.420(5)
C42 C43 1.495(6)
C42 H42A 0.9900
C42 H42B 0.9900
C43 N6 1.487(5)
C43 H43A 0.9900
C43 H43B 0.9900
K2 O2 2.737(3)
K2 O3 2.795(3)
K2 O6 2.807(3)
K2 O1 2.837(3)
K2 O5 2.859(3)
K2 O4 2.864(3)
K2 N6 3.023(4)
K2 N7 3.078(4)
