#------------------------------------------------------------------------------
#$Date: 2019-11-23 04:42:05 +0200 (Sat, 23 Nov 2019) $
#$Revision: 232150 $
#$URL: file:///home/coder/svn-repositories/cod/cif/4/34/70/4347063.cif $
#------------------------------------------------------------------------------
#
# This file is available in the Crystallography Open Database (COD),
# http://www.crystallography.net/
#
# All data on this site have been placed in the public domain by the
# contributors.
#
data_4347063
loop_
_publ_author_name
'Bia\/lek, Micha\/l J'
'Latos-Gra\.zy\'nski, Lechos\/law'
_publ_section_title
;
 Palladium(II), Ruthenium(II), and Ruthenium(III) Complexes of
 23-Thiaazuliporphyrin: The Case of Coordination-Induced Contraction.
;
_journal_issue                   4
_journal_name_full               'Inorganic chemistry'
_journal_page_first              1758
_journal_page_last               1769
_journal_paper_doi               10.1021/acs.inorgchem.5b02684
_journal_volume                  55
_journal_year                    2016
_chemical_formula_sum            'C54.95 H40.68 Cl1.03 N2 O Pd S'
_chemical_formula_weight         919.80
_space_group_crystal_system      triclinic
_space_group_IT_number           2
_space_group_name_Hall           '-P 1'
_space_group_name_H-M_alt        'P -1'
_atom_sites_solution_hydrogens   geom
_audit_creation_method           SHELXL-2013
_cell_angle_alpha                62.24(3)
_cell_angle_beta                 81.23(3)
_cell_angle_gamma                89.46(4)
_cell_formula_units_Z            2
_cell_length_a                   10.635(3)
_cell_length_b                   14.695(4)
_cell_length_c                   15.144(5)
_cell_measurement_reflns_used    7608
_cell_measurement_temperature    100(2)
_cell_measurement_theta_max      36.93
_cell_measurement_theta_min      3.07
_cell_volume                     2064.7(12)
_computing_structure_refinement  'SHELXL-2013 (Sheldrick, 2013)'
_diffrn_ambient_temperature      100(2)
_diffrn_detector_area_resol_mean 8.34
_diffrn_measured_fraction_theta_full 0.995
_diffrn_measured_fraction_theta_max 0.995
_diffrn_measurement_device_type  'Xcalibur, Sapphire2, large Be window'
_diffrn_measurement_method       '\w scans'
_diffrn_radiation_type           MoK\a
_diffrn_radiation_wavelength     0.71073
_diffrn_reflns_av_R_equivalents  0.0466
_diffrn_reflns_av_unetI/netI     0.0680
_diffrn_reflns_Laue_measured_fraction_full 0.995
_diffrn_reflns_Laue_measured_fraction_max 0.995
_diffrn_reflns_limit_h_max       12
_diffrn_reflns_limit_h_min       -12
_diffrn_reflns_limit_k_max       17
_diffrn_reflns_limit_k_min       -17
_diffrn_reflns_limit_l_max       18
_diffrn_reflns_limit_l_min       -18
_diffrn_reflns_number            16434
_diffrn_reflns_point_group_measured_fraction_full 0.995
_diffrn_reflns_point_group_measured_fraction_max 0.995
_diffrn_reflns_theta_full        25.500
_diffrn_reflns_theta_max         25.499
_diffrn_reflns_theta_min         3.076
_diffrn_source                   'Enhance (Mo) X-ray Source'
_exptl_absorpt_coefficient_mu    0.612
_exptl_absorpt_correction_T_max  0.966
_exptl_absorpt_correction_T_min  0.857
_exptl_absorpt_correction_type   analytical
_exptl_absorpt_process_details
;
CrysAlisPro, Agilent Technologies,
Version 1.171.36.28 (release 01-02-2013 CrysAlis171 .NET)
(compiled Feb  1 2013,16:14:44)
Analytical numeric absorption correction using a multifaceted crystal
			model based on expressions derived by R.C. Clark & J.S. Reid.
(Clark, R. C. & Reid, J. S. (1995). Acta Cryst. A51, 887-897)
;
_exptl_crystal_colour            'dark green'
_exptl_crystal_density_diffrn    1.479
_exptl_crystal_description       parallelepiped
_exptl_crystal_F_000             944
_exptl_crystal_size_max          0.360
_exptl_crystal_size_mid          0.100
_exptl_crystal_size_min          0.070
_refine_diff_density_max         0.807
_refine_diff_density_min         -0.639
_refine_diff_density_rms         0.094
_refine_ls_extinction_method     none
_refine_ls_goodness_of_fit_ref   1.051
_refine_ls_hydrogen_treatment    constr
_refine_ls_matrix_type           full
_refine_ls_number_parameters     608
_refine_ls_number_reflns         7640
_refine_ls_number_restraints     1
_refine_ls_restrained_S_all      1.051
_refine_ls_R_factor_all          0.0696
_refine_ls_R_factor_gt           0.0498
_refine_ls_shift/su_max          0.009
_refine_ls_shift/su_mean         0.000
_refine_ls_structure_factor_coef Fsqd
_refine_ls_weighting_details
;
 w=1/[\s^2^(Fo^2^)+(0.0450P)^2^+1.3850P]
 where P=(Fo^2^+2Fc^2^)/3
;
_refine_ls_weighting_scheme      calc
_refine_ls_wR_factor_gt          0.1039
_refine_ls_wR_factor_ref         0.1140
_reflns_Friedel_coverage         0.000
_reflns_number_gt                6035
_reflns_number_total             7640
_reflns_threshold_expression     'I > 2\s(I)'
_cod_data_source_file            ic5b02684_si_002.cif
_cod_data_source_block           '[Pd(SBzc-CHO)]'
_cod_database_code               4347063
_shelx_space_group_comment
;
The symmetry employed for this shelxl refinement is uniquely defined
by the following loop, which should always be used as a source of
symmetry information in preference to the above space-group names.
They are only intended as comments.
;
_shelx_estimated_absorpt_t_min   0.810
_shelx_estimated_absorpt_t_max   0.958
_shelxl_version_number           2013-2
_shelx_res_file
;
TITL ix_2 in P-1
CELL 0.71073  10.635  14.695  15.144  62.24  81.23  89.46
ZERR    2.00   0.003   0.004   0.005   0.03   0.03   0.04
LATT 1
SFAC C  H  N  O  Cl S  Pd
UNIT 109.9 81.35 4 2 2.052 2 2
L.S. 10
OMIT -3 51
ACTA 51
BOND $H
FMAP 2
EQIV $1 1-X, -Y, 2-Z
SADI 0.005 C30 CL3 C30 CL3_$1
temp -173
SIZE 0.36 0.10 0.07
PLAN 30
LIST 4
EADP C2B1 C2B2
EXYZ C2B1 C2B2
EADP C3B1 C3B2
EXYZ C3B1 C3B2
WGHT    0.045000    1.385000
FVAR       1.01084   0.56573   0.80698
PD1   7    0.230731    0.459066    0.462706    11.00000    0.02709    0.02288 =
         0.02383   -0.00715   -0.00627    0.00141
N22   3    0.185865    0.591415    0.470551    11.00000    0.02315    0.02478 =
         0.02414   -0.00759   -0.00544   -0.00192
N24   3    0.272628    0.334271    0.440908    11.00000    0.02347    0.02301 =
         0.02484   -0.00525   -0.00316    0.00297
S23   6    0.085495    0.492745    0.360001    11.00000    0.02733    0.02041 =
         0.02621   -0.00846   -0.00624    0.00161
C1    1    0.400422    0.323895    0.609397    11.00000    0.02352    0.03296 =
         0.02694   -0.00468   -0.00488    0.00168
C2    1    0.465804    0.322658    0.690658    11.00000    0.02810    0.03974 =
         0.02983   -0.00504   -0.00862   -0.00008
C2A   1    0.540415    0.251028    0.755426    11.00000    0.05057    0.04919 =
         0.04569   -0.00077   -0.02671    0.00568
AFIX  43
H2A   2    0.557393    0.188925    0.752281    11.00000   -1.20000
AFIX   0

C3    1    0.440300    0.412954    0.697227    11.00000    0.01988    0.05135 =
         0.02335   -0.00923   -0.00601    0.00056
C3A   1    0.495447    0.435680    0.764081    11.00000    0.02423    0.08701 =
         0.02984   -0.02678   -0.00281    0.00151
AFIX  43
H3A   2    0.483431    0.499134    0.765548    11.00000   -1.20000
AFIX   0

C4    1    0.353646    0.471285    0.624026    11.00000    0.02277    0.03613 =
         0.02335   -0.00822   -0.00221   -0.00465
C5    1    0.287809    0.556142    0.619487    11.00000    0.02326    0.03397 =
         0.02542   -0.01216   -0.00122   -0.00496
C5A   1    0.296411    0.591850    0.696207    11.00000    0.02932    0.03519 =
         0.03208   -0.01471   -0.00953   -0.00277
C5B   1    0.227770    0.538079    0.793542    11.00000    0.02766    0.03312 =
         0.03556   -0.01673   -0.00652    0.00157
AFIX  43
H5B   2    0.173702    0.479193    0.810529    11.00000   -1.20000
AFIX   0
C5C   1    0.236567    0.568643    0.866536    11.00000    0.03977    0.04261 =
         0.03460   -0.01873   -0.01166    0.00900
AFIX  43
H5C   2    0.189743    0.530405    0.933006    11.00000   -1.20000
AFIX   0
C5D   1    0.313685    0.654862    0.842037    11.00000    0.04422    0.04383 =
         0.04653   -0.02685   -0.02388    0.01327
AFIX  43
H5D   2    0.319076    0.676856    0.891306    11.00000   -1.20000
AFIX   0
C5E   1    0.382748    0.708880    0.746043    11.00000    0.05426    0.03942 =
         0.05115   -0.01750   -0.02820   -0.00456
AFIX  43
H5E   2    0.436551    0.767769    0.729473    11.00000   -1.20000
AFIX   0
C5F   1    0.374398    0.677966    0.673187    11.00000    0.04602    0.04490 =
         0.03619   -0.01368   -0.00750   -0.01533
AFIX  43
H5F   2    0.422363    0.715977    0.607115    11.00000   -1.20000
AFIX   0
C6    1    0.208238    0.609806    0.548808    11.00000    0.02579    0.02765 =
         0.02607   -0.01235   -0.00189   -0.00617
C7    1    0.141900    0.696835    0.543812    11.00000    0.03554    0.02547 =
         0.02801   -0.01137   -0.00571   -0.00393
AFIX  43
H7    2    0.139835    0.724466    0.589557    11.00000   -1.20000
AFIX   0
C8    1    0.082602    0.732632    0.462003    11.00000    0.03246    0.02487 =
         0.03229   -0.01283   -0.00472   -0.00097
AFIX  43
H8    2    0.031642    0.790116    0.440066    11.00000   -1.20000
AFIX   0
C9    1    0.110042    0.668893    0.414463    11.00000    0.02603    0.01841 =
         0.02891   -0.00917   -0.00410   -0.00077
C10   1    0.069533    0.690386    0.321416    11.00000    0.02432    0.02217 =
         0.02618   -0.00716   -0.00288    0.00089
C10A  1    0.022799    0.793431    0.258213    11.00000    0.03481    0.02272 =
         0.02719   -0.01210   -0.00399    0.00476
C10B  1    0.094988    0.885306    0.227649    11.00000    0.03563    0.02426 =
         0.02758   -0.00953   -0.00227   -0.00246
AFIX  43
H10B  2    0.174137    0.883517    0.250038    11.00000   -1.20000
AFIX   0
C10C  1    0.051169    0.979023    0.164696    11.00000    0.04485    0.01966 =
         0.02830   -0.00924    0.00159   -0.00012
AFIX  43
H10C  2    0.100342    1.041019    0.145282    11.00000   -1.20000
AFIX   0
C10D  1   -0.063315    0.984031    0.129435    11.00000    0.05044    0.02654 =
         0.02287   -0.01323   -0.00156    0.00822
C10E  1   -0.133590    0.893191    0.159307    11.00000    0.03768    0.02936 =
         0.02648   -0.01420   -0.00910    0.00957
AFIX  43
H10E  2   -0.211580    0.895119    0.135325    11.00000   -1.20000
AFIX   0
C10F  1   -0.092092    0.798525    0.224142    11.00000    0.03542    0.02325 =
         0.02660   -0.01243   -0.00359    0.00213
AFIX  43
H10F  2   -0.143049    0.736931    0.245165    11.00000   -1.20000
AFIX   0
C11   1    0.073702    0.621908    0.281666    11.00000    0.02374    0.01773 =
         0.02831   -0.00833   -0.00631    0.00169
C12   1    0.076671    0.636287    0.182300    11.00000    0.02677    0.02207 =
         0.02886   -0.00950   -0.00910    0.00371
AFIX  43
H12   2    0.059096    0.699473    0.128247    11.00000   -1.20000
AFIX   0
C13   1    0.107132    0.551085    0.170680    11.00000    0.03163    0.02753 =
         0.02667   -0.01260   -0.00887    0.00145
AFIX  43
H13   2    0.112227    0.549828    0.108084    11.00000   -1.20000
AFIX   0
C14   1    0.130442    0.464538    0.261432    11.00000    0.02753    0.02167 =
         0.03085   -0.01249   -0.00757   -0.00185
C15   1    0.186318    0.373148    0.279068    11.00000    0.02410    0.02239 =
         0.03290   -0.01225   -0.00673    0.00011
C15A  1    0.196706    0.343092    0.196729    11.00000    0.03608    0.01960 =
         0.03228   -0.01207   -0.00820    0.00245
C15B  1    0.088755    0.334855    0.158566    11.00000    0.03631    0.02716 =
         0.03614   -0.01448   -0.01056    0.00413
AFIX  43
H15B  2    0.008135    0.347860    0.185644    11.00000   -1.20000
AFIX   0
C15C  1    0.097346    0.307827    0.081289    11.00000    0.04371    0.02767 =
         0.03798   -0.01328   -0.01404   -0.00160
AFIX  43
H15C  2    0.022517    0.303038    0.056095    11.00000   -1.20000
AFIX   0
C15D  1    0.213069    0.287823    0.040569    11.00000    0.05273    0.01884 =
         0.03012   -0.00724   -0.01009    0.00179
C15E  1    0.321213    0.298175    0.076949    11.00000    0.04268    0.03038 =
         0.03615   -0.01361   -0.01114    0.01265
AFIX  43
H15E  2    0.401919    0.286538    0.048688    11.00000   -1.20000
AFIX   0
C15F  1    0.313512    0.325346    0.154221    11.00000    0.03810    0.03066 =
         0.03619   -0.01664   -0.01322    0.00898
AFIX  43
H15F  2    0.388807    0.331806    0.178086    11.00000   -1.20000
AFIX   0
C16   1    0.238977    0.310049    0.367947    11.00000    0.03073    0.01970 =
         0.03007   -0.00931   -0.00554    0.00192
C17   1    0.275267    0.208873    0.390243    11.00000    0.04344    0.02626 =
         0.03198   -0.01031   -0.00716    0.00686
AFIX  43
H17   2    0.262308    0.173486    0.353132    11.00000   -1.20000
AFIX   0
C18   1    0.331471    0.172188    0.473687    11.00000    0.04268    0.02270 =
         0.03475   -0.00477   -0.00627    0.00915
AFIX  43
H18   2    0.364747    0.106480    0.505730    11.00000   -1.20000
AFIX   0
C19   1    0.331617    0.250398    0.504807    11.00000    0.03004    0.02112 =
         0.02556   -0.00363   -0.00129    0.00243
C20   1    0.393942    0.245261    0.582518    11.00000    0.02747    0.02826 =
         0.02889   -0.00353   -0.00207    0.00199
C20A  1    0.458512    0.146778    0.634537    11.00000    0.03399    0.03112 =
         0.02842   -0.00557   -0.00528    0.00584
C20B  1    0.389391    0.056902    0.705800    11.00000    0.03277    0.03334 =
         0.03272   -0.01131   -0.00369    0.00573
AFIX  43
H20B  2    0.299603    0.056612    0.722884    11.00000   -1.20000
AFIX   0
C20C  1    0.450338   -0.033256    0.752773    11.00000    0.05091    0.02715 =
         0.04028   -0.00597   -0.00185    0.00231
AFIX  43
H20C  2    0.402342   -0.094595    0.802912    11.00000   -1.20000
AFIX   0
C20D  1    0.579788   -0.034121    0.727033    11.00000    0.04719    0.02997 =
         0.04204   -0.01350   -0.01088    0.01355
AFIX  43
H20D  2    0.621080   -0.096085    0.758875    11.00000   -1.20000
AFIX   0
C20E  1    0.649410    0.054809    0.655149    11.00000    0.03576    0.05251 =
         0.04661   -0.01534   -0.01017    0.01404
AFIX  43
H20E  2    0.738910    0.054551    0.637043    11.00000   -1.20000
AFIX   0
C20F  1    0.588378    0.144894    0.609192    11.00000    0.03022    0.04070 =
         0.04967    0.00292   -0.00580    0.00437
AFIX  43
H20F  2    0.636711    0.206264    0.559491    11.00000   -1.20000
AFIX   0
C21   1    0.338585    0.417232    0.569708    11.00000    0.02207    0.02641 =
         0.02140   -0.00422   -0.00104   -0.00273
C22   1   -0.109321    1.086475    0.058497    11.00000    0.06289    0.02659 =
         0.03387   -0.01021   -0.00500    0.01184
AFIX 137
H22A  2   -0.064762    1.142423    0.062093    11.00000   -1.50000
H22B  2   -0.201330    1.086869    0.078494    11.00000   -1.50000
H22C  2   -0.091602    1.096336   -0.010940    11.00000   -1.50000
AFIX   0
C23   1    0.223822    0.257109   -0.042089    11.00000    0.06480    0.03191 =
         0.03816   -0.01827   -0.01061    0.00300
AFIX 137
H23A  2    0.292986    0.299752   -0.096877    11.00000   -1.50000
H23B  2    0.143323    0.267202   -0.068410    11.00000   -1.50000
H23C  2    0.242159    0.184374   -0.014798    11.00000   -1.50000
AFIX   0
PART 1
C2B1  1    0.588986    0.272204    0.824063   -21.00000    0.04166    0.07682 =
         0.04299    0.00453   -0.02220   -0.00765
C3B1  1    0.568060    0.362394    0.827917   -21.00000    0.02362    0.11472 =
         0.02032   -0.01807   -0.00373   -0.00679
AFIX  43
H3B1  2    0.603875    0.375198    0.875172   -21.00000   -1.20000
AFIX   0
C24   1    0.640894    0.209120    0.914384   -21.00000    0.04310    0.04042 =
         0.03957   -0.01480   -0.02018    0.02729
AFIX  43
H24   2    0.657987    0.142693    0.921462   -21.00000   -1.20000
AFIX   0

O24   4    0.668268    0.221112    0.984481   -21.00000    0.04472    0.05410 =
         0.02866   -0.02003   -0.01560    0.01343
PART 0
PART 2
C2B2  1    0.588986    0.272204    0.824063    21.00000    0.04166    0.07682 =
         0.04299    0.00453   -0.02220   -0.00765
AFIX  43
H2B2  2    0.637859    0.223150    0.869447    21.00000   -1.20000
AFIX   0
C3B2  1    0.568060    0.362394    0.827917    21.00000    0.02362    0.11472 =
         0.02032   -0.01807   -0.00373   -0.00679
C25   1    0.612902    0.361874    0.910443    21.00000    0.02781    0.05268 =
         0.03563   -0.03271    0.00048    0.00071
AFIX  43
H25   2    0.606026    0.424583    0.914091    21.00000   -1.20000
AFIX   0
O25   4    0.660125    0.292811    0.979519    21.00000    0.04520    0.06272 =
         0.03261   -0.02869   -0.01671    0.01839
PART 0
PART 3
C26   1    0.853138    0.111678    0.312325    31.00000    0.05386    0.04129 =
         0.05127   -0.02434   -0.02252    0.00594
AFIX  33
H26A  2    0.853320    0.110607    0.248084    31.00000   -1.50000
H26B  2    0.874469    0.182175    0.298927    31.00000   -1.50000
H26C  2    0.768346    0.087685    0.353942    31.00000   -1.50000
AFIX   0
C27   1    0.951124    0.041329    0.368102    31.00000    0.04983    0.05343 =
         0.05134   -0.03242   -0.01868    0.01037
AFIX  23
H27A  2    0.930556   -0.029182    0.379244    31.00000   -1.20000
H27B  2    1.036246    0.065515    0.325148    31.00000   -1.20000
AFIX   0
C28   1    0.956728    0.037275    0.469113    31.00000    0.03963    0.04795 =
         0.05159   -0.03443   -0.00214   -0.00105
AFIX  23
H28A  2    0.984152    0.106969    0.456824    31.00000   -1.20000
H28B  2    0.869545    0.019621    0.509046    31.00000   -1.20000
AFIX   0
PART 0
PART 4
C29   1    0.898620    0.012307    0.377911   -31.00000    0.05491    0.03872 =
         0.05586   -0.03764   -0.03112    0.01554
AFIX  23
H29A  2    0.897713   -0.015964    0.330073   -31.00000   -1.20000
H29B  2    0.876524   -0.045273    0.447540   -31.00000   -1.20000
AFIX   0
CL1   5    0.786608    0.102470    0.357617   -31.00000    0.05738    0.08083 =
         0.19393   -0.09034   -0.05457    0.02939
CL2   5    1.052746    0.067326    0.361295   -31.00000    0.05247    0.06154 =
         0.05516   -0.02103   -0.01402   -0.00629
PART 0
CL3   5    0.611728   -0.023402    0.950323    10.64000    0.07930    0.09120 =
         0.05787   -0.03948   -0.00689    0.01073
C30   1    0.548388    0.014018    1.037963    10.32000    0.03830    0.08280 =
         0.03241   -0.01587   -0.00891   -0.01265
AFIX  23
H30A  2    0.568933   -0.036027    1.104613    10.32000   -1.20000
H30B  2    0.590125    0.081853    1.019550    10.32000   -1.20000
AFIX   0
HKLF 4

REM  ix_2 in P-1
REM R1 =  0.0498 for    6035 Fo > 4sig(Fo)  and  0.0696 for all    7640 data
REM    608 parameters refined using      1 restraints

END

WGHT      0.0450      1.3850

REM Highest difference peak  0.807,  deepest hole -0.639,  1-sigma level  0.094
Q1    1   0.6232 -0.0855  0.9804  11.00000  0.05    0.81
Q2    1   0.5569 -0.0187  0.9252  11.00000  0.05    0.49
Q3    1   0.2540  0.3329  0.3990  11.00000  0.05    0.49
Q4    1   0.3072  0.6203  0.6168  11.00000  0.05    0.48
Q5    1   0.5167  0.0249  1.0453  11.00000  0.05    0.47
Q6    1   0.4568  0.5905  0.7157  11.00000  0.05    0.44
Q7    1   0.3673  0.5181  0.4231  11.00000  0.05    0.41
Q8    1   0.1444  0.4846  0.3999  11.00000  0.05    0.40
Q9    1   0.3163  0.4176  0.6154  11.00000  0.05    0.39
Q10   1   0.6561  0.0031  0.9200  11.00000  0.05    0.39
Q11   1  -0.0374  0.8649  0.1327  11.00000  0.05    0.38
Q12   1   0.2153  0.3534  0.3322  11.00000  0.05    0.38
Q13   1   0.2431  0.5570  0.5928  11.00000  0.05    0.37
Q14   1   0.3175  0.2940  0.4612  11.00000  0.05    0.37
Q15   1   0.3612  0.3628  0.5932  11.00000  0.05    0.37
Q16   1   0.7152  0.1083  0.9717  11.00000  0.05    0.37
Q17   1   1.0042 -0.0138  0.4728  11.00000  0.05    0.37
Q18   1   0.2035  0.4060  0.6438  11.00000  0.05    0.36
Q19   1   0.1828  0.3589  0.5613  11.00000  0.05    0.36
Q20   1  -0.1039  0.9344  0.1710  11.00000  0.05    0.36
Q21   1   0.3018  0.6566  0.6833  11.00000  0.05    0.36
Q22   1   0.1146  0.4297  0.5205  11.00000  0.05    0.35
Q23   1   1.0639  0.0868  0.4140  11.00000  0.05    0.35
Q24   1   0.5743  0.1294  0.9712  11.00000  0.05    0.35
Q25   1   0.3152  0.4415  0.5198  11.00000  0.05    0.34
Q26   1   0.1228  0.6008  0.4732  11.00000  0.05    0.34
Q27   1   0.0141  0.4684  0.3918  11.00000  0.05    0.34
Q28   1   0.3694  0.2227  0.4813  11.00000  0.05    0.34
Q29   1   0.4746  0.4184  0.7427  11.00000  0.05    0.33
Q30   1   0.1025  0.4718  0.3125  11.00000  0.05    0.33
;
_shelx_res_checksum              1803
_shelx_hkl_file
;
   0   0  -2 32.4578 13.9231   2
   0   0  -2 33.4703 12.8952   1
   0   0  -3 1824.16 64.4551   1
   0   0  -3 1761.19 63.2881   2
   0   0  -4 471.871 41.1705   1
   0   0   4 649.665 32.7070   3
   0   0  -4 578.235 45.0368   2
   0   0  -5 37.4337 20.5416   2
   0   0   5 15.4524 13.0039   3
   0   0  -5-2.69778 18.5190   1
   0   0  -6 456.878 47.5112   1
   0   0   6 339.270 31.3107   3
   0   0  -6 517.066 50.9487   2
   0   0  -7 39.8212 26.3423   1
   0   0   7 21.8890 14.1974   3
   0   0  -7 29.3578 27.7986   2
   0   0   8 268.263 32.5919   3
   0   0  -8 157.615 38.5646   1
   0   0  -8 246.665 41.9038   2
   0   0  -9 195.422 43.5463   1
   0   0  -9 92.4017 31.0560   2
   0   0 -10 4299.52 179.832   2
   0   0 -10 4418.54 181.867   1
   0   0 -11 2524.05 146.201   1
   0   0 -11 2509.98 144.604   2
   0   0 -12 1881.25 131.945   2
   0   0 -12 1809.28 132.302   1
   0   0 -13 2072.84 146.720   1
   0   0 -13 2056.56 146.084   2
   0   0  14 608.646 100.258   4
   0   0 -14 798.155 99.4274   1
   0   0  15-2.32480 47.8835   4
   0   0  16 227.188 77.8739   4
   0   0  17 353.026 89.7751   4
   0  -1  16 597.480 115.513   4
   0  -1  15 412.678 93.5854   4
   0  -1  14 354.565 87.8202   4
   0   1 -14 493.003 83.0705   2
   0  -1  13 1927.28 162.093   4
   0   1 -13 2098.12 145.637   1
   0   1 -12 1047.74 100.761   1
   0  -1  12 907.472 111.995   4
   0   1 -12 862.559 97.8568   2
   0   1 -11 2928.06 166.815   2
   0   1 -11 3027.56 160.543   1
   0  -1  11 2710.36 171.116   4
   0  -1  10-43.8398 44.3042   4
   0   1 -10 58.0083 39.6299   2
   0   1 -10-3.03701 30.3810   1
   0   1  -9 84.9901 31.4382   2
   0   1  -9 134.647 37.8575   1
   0   1  -8 7.51647 25.4926   2
   0  -1   8 5.70590 16.3596   3
   0   1  -8-25.0894 22.4685   1
   0   1  -7 66.0429 27.5095   1
   0  -1   7 52.1060 17.4395   3
   0   1  -7 120.663 40.0015   2
   0  -1   6 1581.38 60.8245   3
   0   1  -6 1876.35 100.302   2
   0   1  -6 1909.57 91.4896   1
   0   1  -5 242.800 34.8885   1
   0  -1   5 252.493 25.7219   3
   0   1  -5 195.106 36.6866   2
   0   1  -4 40.2849 16.6908   1
   0  -1   4 49.8704 13.1853   3
   0   1  -4 56.4026 26.9790   2
   0  -1   3 18180.3 150.778   3
   0   1  -3 18218.7 231.218   2
   0   1  -2 1079.56 39.8362   1
   0  -1   2 1135.92 52.2472   4
   0   1  -2 1060.23 52.9727   2
   0  -1  -3 2006.72 64.4405   4
   0   1   3 1923.38 51.3530   3
   0  -1  -3 1981.68 67.1393   1
   0  -1  -4 389.061 38.3496   1
   0  -1  -4 642.233 38.6317   2
   0   1   4 494.027 31.1110   3
   0  -1  -5 22.1752 19.9995   2
   0  -1  -5-7.70096 22.1415   1
   0   1   5-8.63579 13.3194   3
   0  -1  -6 62.8152 25.2506   1
   0  -1  -6 57.2273 23.7636   2
   0   1   6 21.8884 13.9999   3
   0  -1  -7 1749.31 97.1001   1
   0  -1  -7 1589.71 81.8487   2
   0  -1  -8 2994.61 120.406   2
   0  -1  -8 3022.65 134.125   1
   0   1   9 2232.79 91.1066   3
   0  -1  -9 2310.07 125.071   1
   0  -1  -9 2179.07 113.033   2
   0  -1 -10 1910.62 112.396   2
   0  -1 -10 2064.52 127.395   1
   0  -1 -11 3135.14 150.585   2
   0  -1 -11 3014.84 160.150   1
   0  -1 -12 1228.66 110.569   1
   0  -1 -12 1403.34 109.481   2
   0  -1 -13 168.302 49.3437   1
   0  -1 -14 588.177 84.7312   1
   0  -1 -15 111.089 56.9097   1
   0   1  16 59.9214 53.8360   4
   0  -1 -16 84.1127 45.8294   1
   0   1  17 5.10608 51.8248   4
   0  -2  16 508.300 105.459   4
   0  -2  15 64.4861 61.5455   4
   0  -2  14 288.668 77.8378   4
   0   2 -14 158.975 58.4464   2
   0  -2  13 733.022 105.149   4
   0   2 -13 648.620 93.6853   2
   0  -2  12 1811.74 152.205   4
   0   2 -12 1862.24 146.254   2
   0   2 -11 1383.03 108.915   1
   0   2 -11 1431.21 126.930   2
   0  -2  11 1223.49 122.869   4
   0  -2  10 666.763 88.0764   4
   0   2 -10 780.510 78.5308   1
   0   2 -10 876.482 96.3211   2
   0  -2   9 267.027 60.3212   4
   0   2  -9 318.068 59.0362   2
   0   2  -9 421.217 57.3430   1
   0   2  -8 732.574 78.6588   2
   0   2  -8 854.874 70.9101   1
   0  -2   8 731.727 83.6018   4
   0  -2   7 625.017 43.2469   3
   0  -2   7 514.449 67.6952   4
   0   2  -7 645.042 70.7149   2
   0   2  -7 605.204 56.4417   1
   0   2  -6 2628.12 128.036   2
   0   2  -6 2663.48 106.294   1
   0  -2   6 2589.71 128.540   4
   0  -2   6 2543.42 79.9950   3
   0   2  -5 1645.87 76.2963   1
   0  -2   5 1724.56 98.5528   4
   0  -2   5 1368.64 55.4892   3
   0   2  -5 1547.25 91.9234   2
   0   2  -4 2133.90 100.863   2
   0  -2   4 2040.74 98.3899   4
   0  -2   4 1783.54 59.0069   3
   0   2  -4 1509.46 65.3459   1
   0   2  -3 1123.30 49.0841   1
   0   2  -3 1585.25 80.8110   2
   0  -2   3 1744.19 80.8462   4
   0  -2   3 1571.36 52.8960   3
   0   2  -2 118.883 28.4056   2
   0  -2   2 134.655 18.2850   3
   0  -2   2 180.462 30.9733   4
   0   2  -2 134.787 16.4919   1
   0  -2   1 16703.0 185.996   4
   0   2  -1 17105.6 201.786   2
   0  -2   1 17696.2 157.606   3
   0  -2   0 4154.97 76.0466   3
   0  -2   0 3961.43 79.4175   4
   0   2   0 4231.74 82.9555   2
   0  -2  -2 223.832 21.0502   1
   0  -2  -2 257.017 22.8095   4
   0  -2  -3 19.9417 17.6485   1
   0  -2  -3 22.3255 15.2741   4
   0  -2  -4 2710.66 86.4339   4
   0  -2  -4 3934.14 108.378   1
   0  -2  -5 560.417 48.9550   1
   0   2   5 380.364 31.6139   3
   0  -2  -5 554.948 46.7034   4
   0  -2  -5 592.852 35.0618   2
   0   2   6 24.5298 16.3193   3
   0  -2  -6-10.0228 24.7288   1
   0  -2  -6 5.09202 15.3030   2
   0  -2  -7 41.0020 25.6954   1
   0   2   7 41.8722 19.1202   3
   0  -2  -7 15.1589 16.9970   2
   0  -2  -8 176.723 39.5449   1
   0   2   8 302.547 37.4904   3
   0  -2  -8 318.841 39.6509   2
   0  -2  -9 2879.20 143.025   1
   0   2   9 2844.58 105.369   3
   0  -2  -9 2762.82 115.525   2
   0  -2 -10 2560.44 120.884   2
   0   2  10 2957.64 112.228   3
   0  -2 -11 1731.45 122.257   1
   0  -2 -11 1894.55 110.742   2
   0  -2 -12 2727.87 160.654   1
   0  -2 -13 8.01659 33.4042   1
   0  -2 -14 56.1706 42.1549   1
   0  -2 -15 284.283 72.2672   1
   0  -2 -16-18.2850 33.7182   1
   0  -2 -17 138.599 53.1857   1
   0   2  18 30.2634 53.4558   4
   0   3 -15 472.684 97.5191   2
   0  -3  15 410.109 92.9565   4
   0  -3  14 61.4765 45.2573   4
   0   3 -14 25.3214 39.1829   2
   0  -3  13 234.022 75.0167   4
   0   3 -13 337.576 74.3523   2
   0   3 -12 452.985 84.6101   2
   0  -3  12 389.336 82.2000   4
   0  -3  11 86.0355 58.7682   4
   0   3 -11 224.657 65.3570   2
   0  -3  10-52.8879 41.5473   4
   0   3 -10 76.8111 39.1331   2
   0   3  -9 110.558 35.7883   1
   0  -3   9 33.1368 37.4446   4
   0   3  -9 130.607 47.0653   2
   0  -3   8 4168.90 190.516   4
   0   3  -8 4172.85 154.929   1
   0   3  -8 3990.50 186.384   2
   0   3  -7 5237.80 160.090   1
   0  -3   7 5248.26 199.963   4
   0   3  -7 4703.86 191.942   2
   0   3  -6 720.029 76.3689   2
   0  -3   6 668.070 45.7285   3
   0  -3   6 674.137 73.3678   4
   0   3  -6 663.008 55.1581   1
   0   3  -5 2806.56 132.265   2
   0  -3   5 2779.00 129.156   4
   0   3  -5 2812.19 98.4996   1
   0  -3   4 2052.49 101.873   4
   0  -3   4 1417.30 61.0874   3
   0   3  -4 1945.18 105.213   2
   0   3  -4 1648.93 68.6609   1
   0   3  -3 1615.97 92.5561   2
   0  -3   3 1111.30 53.1812   3
   0   3  -3 1179.50 50.6414   1
   0  -3   3 1857.94 90.8633   4
   0  -3   2 4354.45 124.414   4
   0   3  -2 4838.20 86.6020   1
   0   3  -2 4363.75 133.091   2
   0  -3   1 12689.5 165.678   3
   0   3  -1 14404.5 216.910   2
   0  -3   0 6445.54 115.029   3
   0   3   0 6709.27 128.840   2
   0  -3   0 6342.79 124.506   4
   0  -3  -1 6239.73 115.782   3
   0  -3  -1 5881.68 111.718   4
   0   3   1 6414.99 104.762   2
   0  -3  -2 34.2786 20.3235   4
   0  -3  -2 13.5934 13.0966   1
   0  -3  -3 791.415 46.4461   4
   0  -3  -3 791.220 45.7645   1
   0  -3  -4 407.879 39.5628   1
   0  -3  -4 247.841 30.3436   4
   0  -3  -5 11179.3 195.424   4
   0  -3  -5 11562.1 208.680   1
   0   3   6 1666.61 74.3303   3
   0  -3  -6 1762.18 85.8077   4
   0  -3  -6 1857.43 57.6377   2
   0  -3  -6 1707.91 91.3132   1
   0  -3  -7 21.5185 26.6156   4
   0   3   7 22.8331 19.0083   3
   0  -3  -7 11.8639 24.9612   1
   0  -3  -7 30.2107 17.0543   2
   0  -3  -8 305.750 47.8559   1
   0  -3  -8 329.850 36.0765   2
   0   3   8 324.923 40.3322   3
   0  -3  -9 7482.14 226.959   1
   0   3   9 7173.63 171.039   3
   0  -3 -10 607.586 55.1711   2
   0  -3 -10 640.573 75.7948   1
   0   3  10 666.409 58.6745   3
   0   3  11 1683.19 92.8664   3
   0  -3 -11 2329.05 143.456   1
   0  -3 -12 1504.32 120.324   1
   0  -3 -13 355.832 67.7882   1
   0  -3 -14 156.160 44.6034   1
   0  -3 -15-66.5539 36.9340   1
   0  -3 -16 57.1087 50.1465   1
   0  -3 -17 35.8923 33.2998   1
   0  -3 -18 62.6149 46.4540   1
   0  -3 -19 107.145 60.4170   1
   0   4 -15 96.3228 49.8811   2
   0   4 -14-44.1302 39.1593   2
   0  -4  14 121.390 66.7214   4
   0   4 -13 33.8946 44.6421   2
   0  -4  13 159.052 74.4262   4
   0  -4  12 156.009 62.0702   4
   0   4 -12-66.7216 41.5151   2
   0  -4  11 349.714 81.6626   4
   0   4 -11 320.541 78.1675   2
   0   4 -10 175.297 58.2693   2
   0  -4  10 217.569 58.3228   4
   0   4  -9 62.9114 47.4439   2
   0  -4   9 129.810 48.2429   4
   0  -4   8 2062.31 140.342   4
   0   4  -8 2236.77 147.766   2
   0  -4   7 3611.25 174.878   4
   0   4  -7 3820.35 182.140   2
   0  -4   6 2232.06 86.8873   3
   0   4  -6 2348.01 137.681   2
   0  -4   6 2215.54 128.746   4
   0   4  -6 2475.45 102.161   1
   0   4  -5 1.78712 31.7728   2
   0  -4   5 10.8038 13.6636   3
   0  -4   5 51.1668 33.2405   4
   0   4  -5 33.1903 16.8935   1
   0   4  -4 3728.80 153.769   2
   0  -4   4 3710.47 146.578   4
   0   4  -4 2689.30 87.8203   1
   0  -4   4 2722.97 92.2505   3
   0   4  -3 141.931 19.8247   1
   0  -4   3 245.286 43.3390   4
   0  -4   3 185.616 28.4819   3
   0   4  -3 195.492 39.1516   2
   0  -4   2 13305.9 234.094   4
   0   4  -2 13670.7 256.405   2
   0   4  -2 13843.5 149.548   1
   0  -4   1 53.3990 25.0050   4
   0  -4   1 11.2042 16.8890   3
   0   4  -1 44.8733 26.3194   2
   0  -4   0 3677.10 103.435   3
   0   4   0 4005.63 116.198   2
   0   4   1 2385.28 79.1473   2
   0  -4  -1 3098.96 95.0103   4
   0  -4  -1 2436.06 84.7456   3
   0  -4  -1 3330.38 65.6031   1
   0  -4  -2 91.4125 17.6273   1
   0   4   2 130.039 21.3560   2
   0  -4  -2 72.1867 18.7635   4
   0  -4  -3 489.563 40.7457   4
   0  -4  -3 756.346 44.9275   1
   0  -4  -4 105.944 24.7076   1
   0  -4  -4 57.0846 21.0332   4
   0  -4  -5-13.9217 24.7615   4
   0  -4  -5-1.15271 21.1280   1
   0  -4  -6 8973.68 204.487   1
   0  -4  -6 8869.48 193.079   4
   0  -4  -7 3.67841 25.9441   1
   0  -4  -7 10.9185 22.4699   4
   0  -4  -7 6.57376 9.01900   2
   0   4   7-7.25759 23.8968   3
   0  -4  -8 83.5275 18.0367   2
   0  -4  -8 154.946 39.4675   1
   0  -4  -8 82.8790 31.4043   4
   0   4   8 28.3297 21.5961   3
   0   4   9 488.940 49.0299   3
   0  -4  -9 542.626 40.1520   2
   0  -4  -9 540.537 64.7288   1
   0   4  10 3018.84 121.686   3
   0  -4 -10 2998.67 156.414   1
   0  -4 -11 3935.59 188.371   1
   0   4  11 3956.65 144.055   3
   0  -4 -12 1481.63 122.685   1
   0  -4 -13 74.0918 43.0634   1
   0  -4 -14 324.158 69.6592   1
   0  -4 -15 17.3185 46.6744   1
   0  -4 -16 283.533 71.1888   1
   0  -4 -17 74.5098 55.6272   1
   0  -4 -18 82.0907 50.8548   1
   0  -4 -19 62.0221 48.6837   1
   0   5 -14 3.24689 43.9931   2
   0  -5  14 122.133 64.2476   4
   0   5 -13 111.710 62.6275   2
   0  -5  13 102.399 65.1284   4
   0   5 -12 36.5862 44.6065   2
   0  -5  12 95.2279 63.5030   4
   0  -5  11 22.2712 47.1806   4
   0   5 -11 68.8022 57.6043   2
   0  -5  10 162.597 64.3254   4
   0   5 -10 111.613 54.2256   2
   0  -5   9 438.262 77.2973   4
   0   5  -9 589.710 87.4633   2
   0   5  -8 868.245 99.6585   2
   0  -5   8 806.979 93.7326   4
   0  -5   7 1415.52 116.068   4
   0   5  -7 1498.03 124.673   2
   0   5  -6 977.284 98.1768   2
   0  -5   6 1172.49 101.312   4
   0  -5   5 913.926 60.6213   3
   0   5  -5 815.362 83.9587   2
   0  -5   5 1215.25 94.9019   4
   0   5  -5 1014.27 62.5060   1
   0  -5   4 196.578 44.0040   4
   0   5  -4 152.272 41.8632   2
   0  -5   4 99.9909 23.4258   3
   0   5  -4 155.812 23.4749   1
   0  -5   3 166.688 38.5305   4
   0   5  -3 187.247 22.8697   1
   0  -5   3 171.500 33.0730   3
   0   5  -3 174.285 39.0778   2
   0   5  -2 4064.34 152.178   2
   0  -5   2 3959.60 140.475   4
   0  -5   2 4106.50 122.455   3
   0  -5   1 735.239 53.0600   3
   0   5  -1 611.932 59.5510   2
   0  -5   1 569.553 55.9349   4
   0  -5   0 4802.39 82.6062   1
   0  -5   0 4960.80 143.837   4
   0  -5   0 4839.31 132.186   3
   0   5   0 4959.58 146.289   2
   0  -5  -1 7.72355 27.4930   4
   0   5   1 17.8104 20.4252   2
   0  -5  -1-7.83918 23.4941   3
   0  -5  -1 21.7090 10.6268   1
   0  -5  -2 1748.66 80.7184   4
   0  -5  -2 1628.61 58.1861   1
   0  -5  -3 6447.29 130.862   1
   0   5   3 6735.59 114.429   2
   0  -5  -3 6376.80 148.986   4
   0  -5  -4 3666.90 117.039   4
   0  -5  -4 3760.36 110.820   1
   0  -5  -5 5713.99 152.638   1
   0  -5  -5 5720.90 152.195   4
   0  -5  -6 297.737 42.4241   4
   0  -5  -6 182.726 35.1212   1
   0  -5  -7 1552.44 90.3805   4
   0  -5  -7 1649.03 98.1914   1
   0  -5  -8 2737.94 132.865   1
   0  -5  -8 2907.25 129.041   4
   0  -5  -8 2722.73 61.1528   2
   0  -5  -9 2980.70 138.231   4
   0   5   9 3027.64 124.554   3
   0  -5  -9 2991.13 149.625   1
   0   5  10 4789.56 161.526   3
   0  -5 -10 4825.21 195.012   1
   0  -5 -10 4571.86 182.413   4
   0  -5 -11 2663.65 152.806   1
   0   5  11 2662.70 125.042   3
   0  -5 -12 141.670 48.7761   1
   0   5  12 128.480 37.2382   3
   0  -5 -13 3.67635 37.6197   1
   0  -5 -14 107.061 45.6237   1
   0  -5 -15 207.880 57.0999   1
   0  -5 -16 163.222 62.8024   1
   0  -5 -17 199.217 62.3765   1
   0  -5 -18-16.0484 37.8915   1
   0  -5 -19 182.131 68.3124   1
   0   6 -13-60.6938 56.2731   2
   0  -6  13 57.1419 51.9284   4
   0   6 -12 79.4911 48.3974   2
   0  -6  12 26.1667 56.3560   4
   0   6 -11-33.4640 51.0411   2
   0  -6  11-10.8351 46.7287   4
   0   6 -10 183.965 71.7237   2
   0  -6  10 254.105 67.2881   4
   0  -6   9 793.418 103.645   4
   0   6  -9 787.057 106.169   2
   0   6  -8 2246.07 162.711   2
   0  -6   8 1876.22 149.622   4
   0  -6   7 2264.36 151.918   4
   0   6  -7 2509.43 166.361   2
   0   6  -6 2973.23 172.703   2
   0  -6   6 3081.90 167.772   4
   0  -6   5 701.035 77.3970   4
   0   6  -5 753.079 86.4874   2
   0  -6   4 209.758 36.5705   3
   0  -6   4 208.719 42.8324   4
   0   6  -4 188.432 47.0719   2
   0   6  -3 629.594 70.0991   2
   0  -6   3 601.343 65.7012   4
   0  -6   3 711.553 57.9274   3
   0   6  -3 721.837 41.9747   1
   0   6  -2-9.85115 31.2660   2
   0  -6   2 5.19732 23.2981   3
   0  -6   2 35.2824 32.6010   4
   0   6  -1 934.006 76.6209   2
   0  -6   1 1092.34 79.4314   4
   0  -6   1 1066.79 67.2572   3
   0  -6   0 1300.64 75.2435   3
   0   6   0 1213.35 81.1375   2
   0  -6   0 1115.68 44.2485   1
   0  -6   0 1231.72 81.5694   4
   0   6   1 1041.27 69.3635   2
   0  -6  -1 900.664 41.3842   1
   0  -6  -1 1126.28 73.2673   3
   0  -6  -1 939.333 67.6987   4
   0  -6  -2 632.437 55.1826   4
   0  -6  -2 651.241 39.7456   1
   0   6   2 666.222 52.5700   2
   0  -6  -3 1789.80 88.6155   4
   0  -6  -3 1860.81 72.9877   1
   0  -6  -4 9716.02 204.728   4
   0   6   4 9976.45 141.080   2
   0  -6  -4 9480.75 180.215   1
   0  -6  -5 9105.91 202.883   4
   0  -6  -5 8719.68 192.093   1
   0  -6  -6 2059.99 102.334   1
   0  -6  -6 2111.03 104.164   4
   0  -6  -7 905.966 75.4127   4
   0  -6  -7 798.433 69.6837   1
   0  -6  -8 3590.55 153.870   1
   0  -6  -8 3557.02 147.342   4
   0  -6  -9 473.475 64.7288   1
   0  -6  -9 418.141 57.3435   4
   0  -6 -10 2166.57 127.046   4
   0   6  10 2275.95 117.137   3
   0  -6 -10 2247.56 134.746   1
   0  -6 -11 1168.40 100.019   4
   0  -6 -11 1057.26 102.111   1
   0   6  11 1160.17 87.5286   3
   0   6  12 3.73760 28.3452   3
   0  -6 -12 26.4429 36.8340   1
   0  -6 -13 27.2881 33.3620   1
   0   6  13-16.0173 28.0366   3
   0  -6 -14 8.65671 35.0921   1
   0  -6 -15 37.0203 43.1490   1
   0  -6 -16 404.111 84.5812   1
   0  -6 -17 290.364 74.0318   1
   0  -6 -18 211.376 73.2143   1
   0  -6 -19 138.478 63.8624   1
   0  -7  12 62.2704 55.9014   4
   0   7 -12 107.659 68.5886   2
   0  -7  11 58.6316 55.6151   4
   0   7 -11 17.9325 50.0156   2
   0  -7  10 971.380 125.883   4
   0   7 -10 1153.55 140.709   2
   0   7  -9 2187.77 173.763   2
   0  -7   9 1848.65 155.381   4
   0   7  -8 1682.91 150.352   2
   0  -7   8 1729.11 145.274   4
   0  -7   7 1771.05 140.261   4
   0   7  -7 2024.75 156.288   2
   0   7  -6 1177.88 118.594   2
   0  -7   6 1237.85 112.941   4
   0   7  -5 1950.39 142.424   2
   0  -7   5 1816.79 127.197   4
   0  -7   4 990.450 73.7526   3
   0   7  -4 1211.46 106.056   2
   0   7  -3 473.545 69.5527   2
   0  -7   3 401.451 53.0154   3
   0  -7   3 499.080 68.5148   4
   0  -7   2 791.499 66.2247   3
   0   7  -2 769.068 78.9760   2
   0  -7   2 733.639 73.1755   4
   0  -7   1 2146.74 118.207   4
   0   7  -1 2200.47 121.945   2
   0  -7   1 2273.44 106.073   3
   0  -7   0 307.639 50.6045   4
   0   7   0 308.437 47.6584   2
   0  -7   0 250.717 22.7845   1
   0  -7   0 285.056 46.2104   3
   0  -7  -1 2593.89 73.2588   1
   0  -7  -1 2814.24 126.683   4
   0  -7  -1 3127.82 128.923   3
   0   7   1 2981.33 123.543   2
   0  -7  -2 2849.06 85.4479   1
   0   7   2 3042.02 116.775   2
   0  -7  -2 3152.86 128.877   4
   0  -7  -3 5432.68 129.108   1
   0   7   3 6141.57 148.521   2
   0  -7  -3 6237.35 178.347   4
   0  -7  -4 10081.6 190.801   1
   0  -7  -4 10806.0 233.840   4
   0  -7  -5 14803.4 255.566   1
   0   7   5 15631.2 174.205   2
   0  -7  -5 15619.6 282.240   4
   0  -7  -6 1412.49 87.5353   4
   0  -7  -6 1378.94 84.8826   1
   0  -7  -7 3655.35 146.289   1
   0  -7  -7 3901.80 149.946   4
   0  -7  -8 2252.01 123.957   1
   0  -7  -8 2429.87 125.023   4
   0  -7  -9 4105.66 168.538   4
   0  -7  -9 3878.25 170.475   1
   0  -7 -10 1837.27 120.649   4
   0  -7 -10 1981.92 129.219   1
   0   7  11 826.207 79.7361   3
   0  -7 -11 922.545 95.1844   1
   0  -7 -11 803.846 84.2144   4
   0  -7 -12 72.1014 44.7290   1
   0  -7 -12 83.6908 38.6544   4
   0   7  12 29.8181 27.6421   3
   0   7  13 354.050 58.3417   3
   0  -7 -13 326.684 70.8065   1
   0  -7 -14 489.430 81.9766   1
   0  -7 -15 190.147 63.4324   1
   0  -7 -16 28.3482 46.4938   1
   0  -7 -17 327.066 76.4111   1
   0  -7 -18 155.549 61.7728   1
   0  -7 -19 518.612 104.024   1
   0   8 -11 326.243 91.7814   2
   0  -8  11 290.494 80.6694   4
   0  -8  10 415.761 91.5736   4
   0   8 -10 426.183 96.8340   2
   0  -8   9 1049.72 123.769   4
   0   8  -9 1017.66 132.922   2
   0   8  -8 1159.17 128.218   2
   0  -8   8 1382.15 134.645   4
   0  -8   7 1482.94 134.260   4
   0   8  -7 1823.57 155.565   2
   0   8  -6 1136.82 118.069   2
   0  -8   6 820.268 96.1418   4
   0  -8   5 62.1952 43.2228   4
   0   8  -5 78.0873 51.8112   2
   0  -8   4 1158.18 108.424   4
   0   8  -4 1167.10 111.940   2
   0  -8   3 441.951 54.1283   3
   0  -8   3 416.117 67.9114   4
   0   8  -3 551.679 79.0584   2
   0  -8   2 29.5175 25.2975   3
   0   8  -2 29.3140 35.3191   2
   0  -8   1 83.7573 34.4919   3
   0  -8   1 83.0537 39.0515   4
   0   8  -1 14.8117 34.4980   2
   0  -8   0 1687.55 109.220   4
   0   8   0 1644.86 109.777   2
   0  -8   0 1730.00 101.852   3
   0  -8  -1 2548.52 125.500   3
   0  -8  -1 2550.78 130.075   4
   0  -8  -1 2035.93 68.7328   1
   0   8   1 2440.02 122.566   2
   0   8   2 2998.24 126.379   2
   0  -8  -2 2660.21 85.3223   1
   0  -8  -2 2966.27 135.088   4
   0  -8  -3 2041.38 82.1263   1
   0   8   3 2227.67 99.2044   2
   0  -8  -3 2442.51 120.369   4
   0  -8  -4 4114.05 155.153   4
   0  -8  -4 3876.18 121.932   1
   0  -8  -5 466.774 52.1932   4
   0   8   5 455.924 37.1927   2
   0  -8  -5 473.310 47.6716   1
   0  -8  -6 2237.58 117.371   4
   0   8   6 1927.40 61.1828   2
   0  -8  -6 1937.23 102.091   1
   0  -8  -7 2816.85 134.524   4
   0  -8  -7 2764.75 129.370   1
   0  -8  -8 905.853 82.6685   4
   0  -8  -8 890.678 80.8250   1
   0  -8  -9 39.1368 32.7585   1
   0  -8  -9 73.4810 35.6583   4
   0  -8 -10 383.927 62.4168   4
   0  -8 -10 356.776 61.0564   1
   0  -8 -11 151.758 42.4784   4
   0  -8 -11 171.715 45.4787   1
   0   8  11 166.659 39.4601   3
   0   8  12-14.9626 33.0735   3
   0  -8 -12 22.9080 39.4835   1
   0  -8 -12-7.83209 32.4702   4
   0  -8 -13 1674.73 130.709   4
   0   8  13 1582.04 115.351   3
   0  -8 -13 1626.00 137.063   1
   0  -8 -14 798.600 106.766   1
   0   8  14 708.412 84.5669   3
   0  -8 -14 704.952 94.1111   4
   0  -8 -15 717.987 105.276   1
   0  -8 -16 396.540 83.2974   1
   0  -8 -17 96.5413 54.9634   1
   0  -8 -18 210.296 57.8653   1
   0  -8 -19 196.413 70.5091   1
   0  -9  10 44.8280 52.7719   4
   0   9 -10-25.5245 51.4402   2
   0   9  -9 511.218 102.767   2
   0  -9   9 525.823 95.0332   4
   0   9  -8 1132.70 136.370   2
   0  -9   8 725.663 106.377   4
   0   9  -7 1253.58 136.276   2
   0  -9   7 1100.43 124.759   4
   0  -9   6 797.892 106.600   4
   0   9  -6 850.142 108.914   2
   0  -9   5 1325.46 125.312   4
   0   9  -5 1659.68 142.009   2
   0   9  -4 221.261 63.0698   2
   0  -9   4 144.848 53.8412   4
   0  -9   3 2486.58 157.596   4
   0   9  -3 2345.13 157.708   2
   0   9  -2 101.625 51.1662   2
   0  -9   2 106.750 42.8560   4
   0  -9   2 111.250 35.3938   3
   0  -9   1 24.4695 34.7981   4
   0  -9   1 11.6987 29.5419   3
   0   9  -1 26.7641 35.0716   2
   0  -9   0 2232.50 140.174   4
   0  -9   0 2667.25 144.574   3
   0   9   0 2083.33 132.570   2
   0  -9  -1 145.774 40.4142   4
   0   9   1 203.395 43.6913   2
   0  -9  -2 1606.40 108.706   4
   0   9   2 1556.86 97.9443   2
   0   9   3 2394.55 111.936   2
   0  -9  -3 2074.96 85.5572   1
   0  -9  -3 2220.76 124.879   4
   0  -9  -4 602.040 68.9472   4
   0   9   4 583.059 52.7268   2
   0  -9  -4 410.231 44.0224   1
   0   9   5 1546.76 75.7554   2
   0  -9  -5 1506.09 87.2046   1
   0  -9  -5 1714.75 106.925   4
   0  -9  -6 2199.22 109.303   1
   0  -9  -6 2144.69 119.863   4
   0  -9  -7 106.750 40.8639   4
   0  -9  -7 149.198 35.1362   1
   0  -9  -8 285.099 50.3487   1
   0  -9  -8 263.220 52.3428   4
   0  -9  -9 336.364 53.9579   4
   0  -9  -9 420.743 61.6531   1
   0  -9 -10-11.1904 32.1810   1
   0  -9 -10 29.8633 27.2161   4
   0  -9 -11 588.488 79.0743   1
   0  -9 -11 681.426 83.0305   4
   0  -9 -12 11.1406 35.6795   1
   0  -9 -12 71.6448 43.7776   4
   0   9  12-8.41156 36.6869   3
   0   9  13 1316.03 111.504   3
   0  -9 -13 1129.05 111.094   4
   0  -9 -13 1082.79 114.078   1
   0   9  14 521.325 74.1440   3
   0  -9 -14 510.569 85.8529   4
   0  -9 -14 516.872 83.7106   1
   0   9  15 492.469 77.0569   3
   0  -9 -15 504.992 90.3237   1
   0  -9 -15 247.695 64.4337   4
   0  -9 -16 321.210 76.4635   1
   0  -9 -17 57.7158 47.0419   1
   0  -9 -18 45.1150 59.2632   1
   0  -9 -19 252.262 73.8891   1
   0  10  -9 146.194 68.3720   2
   0 -10   9 342.017 89.5268   4
   0  10  -8 367.361 83.5017   2
   0 -10   8 303.407 78.9407   4
   0 -10   7 422.599 87.9121   4
   0  10  -7 220.765 71.4165   2
   0  10  -6 58.5712 43.8782   2
   0 -10   6 53.6387 43.3859   4
   0 -10   5 404.689 84.2661   4
   0  10  -5 435.412 82.0572   2
   0  10  -4 52.5848 45.8049   2
   0 -10   4 36.6374 42.6024   4
   0 -10   3 605.670 89.9207   4
   0  10  -3 644.713 91.5601   2
   0 -10   2-78.5602 43.9926   4
   0  10  -2 3.39786 37.8712   2
   0 -10   2 58.6783 40.7079   3
   0 -10   1 670.755 84.5104   4
   0 -10   1 710.002 77.9042   3
   0  10  -1 728.791 85.2840   2
   0  10   0 438.919 68.8056   2
   0 -10   0 407.895 65.1706   4
   0 -10  -1 2128.00 134.308   4
   0  10   1 1988.85 124.599   2
   0  10   2 2438.02 129.552   2
   0 -10  -2 2335.12 139.572   4
   0  10   3 5199.12 177.454   2
   0 -10  -3 5070.44 197.025   4
   0 -10  -4 1906.84 91.3444   1
   0 -10  -4 1998.83 123.386   4
   0  10   4 2099.53 106.965   2
   0  10   5 815.394 62.1462   2
   0 -10  -5 942.317 85.3523   4
   0 -10  -5 546.969 53.3699   1
   0 -10  -6 925.706 72.2495   1
   0 -10  -6 1122.72 92.5919   4
   0 -10  -7 21.4689 28.8154   4
   0 -10  -7 56.0259 31.1888   1
   0 -10  -8 298.129 60.0430   4
   0 -10  -8 336.674 51.8077   1
   0 -10  -9 373.801 60.8781   4
   0 -10  -9 422.506 65.8870   1
   0 -10 -10 122.738 46.3218   4
   0 -10 -10 56.0582 37.5931   1
   0 -10 -11 294.207 58.6672   4
   0 -10 -11 296.344 65.5493   1
   0 -10 -12 32.2489 31.9029   1
   0 -10 -12 134.249 50.3310   4
   0  10  13-17.6677 39.8005   3
   0 -10 -13 57.8935 40.7290   4
   0 -10 -13 96.6459 56.3396   1
   0  10  14 776.412 94.4495   3
   0 -10 -14 602.139 89.9977   4
   0 -10 -14 640.770 92.2200   1
   0 -10 -15 273.649 69.3215   1
   0 -10 -15 197.666 57.0797   4
   0  10  15 353.895 68.4006   3
   0 -10 -16 433.187 92.0807   1
   0 -10 -16 268.264 73.2879   4
   0 -10 -17 261.635 68.8794   1
   0 -10 -18 161.416 66.4164   1
   0 -10 -19 39.4331 49.1154   1
   0  11  -8 372.511 86.4525   2
   0 -11   8 445.710 98.5135   4
   0 -11   7 58.0660 58.9779   4
   0  11  -7 61.7695 54.9553   2
   0  11  -6 15.0655 52.1153   2
   0 -11   6 6.35514 47.1668   4
   0 -11   5 210.401 65.0481   4
   0  11  -5 185.731 62.5152   2
   0  11  -4 1310.48 134.766   2
   0 -11   4 1470.04 141.254   4
   0 -11   3 597.479 90.3579   4
   0  11  -3 760.984 106.396   2
   0 -11   2 141.066 53.7647   4
   0  11  -2 10.7334 40.1874   2
   0 -11   1 46.2085 45.7300   4
   0  11  -1 49.0583 39.5603   2
   0 -11   0 171.825 50.2844   4
   0  11   0 241.779 58.4196   2
   0  11   1 174.687 45.8329   2
   0 -11  -1 205.030 57.1693   4
   0  11   2 4649.16 193.594   2
   0 -11  -2 4790.73 206.758   4
   0  11   3 6982.68 219.395   2
   0 -11  -3 7321.23 251.537   4
   0  11   4 1014.16 80.2822   2
   0 -11  -4 967.328 93.1487   4
   0 -11  -5 2417.47 141.928   4
   0 -11  -6-42.6118 30.5670   4
   0 -11  -6 17.7373 27.2638   1
   0 -11  -7-2.41219 27.8179   4
   0 -11  -7 11.5695 27.2597   1
   0 -11  -8-20.5240 32.7300   4
   0 -11  -8-5.50729 25.9511   1
   0 -11  -9 54.4866 26.0100   1
   0 -11  -9 55.6703 43.3255   4
   0 -11 -10 2.19015 31.5134   1
   0 -11 -10-4.60665 37.7377   4
   0 -11 -11 256.812 57.1815   1
   0 -11 -11 317.961 65.4181   4
   0 -11 -12 740.636 92.7332   1
   0 -11 -12 763.916 95.8985   4
   0 -11 -13 549.105 88.3932   1
   0 -11 -13 521.510 83.6115   4
   0 -11 -14 811.666 106.835   1
   0  11  14 788.428 94.2776   3
   0 -11 -14 898.913 112.057   4
   0  11  15 1732.71 137.877   3
   0 -11 -15 1567.39 146.854   4
   0 -11 -15 1518.28 147.821   1
   0 -11 -16 218.697 67.6325   1
   0  11  16 141.481 46.3511   3
   0 -11 -16 167.331 68.1203   4
   0 -11 -17 68.3644 54.0833   4
   0 -11 -17 178.476 67.1556   1
   0 -11 -18 43.4128 53.6910   1
   0 -11 -19 292.443 83.4351   1
   0  12  -7 16.4313 47.5380   2
   0 -12   7-51.7974 59.2508   4
   0  12  -6-24.8038 38.2402   2
   0 -12   6 182.176 66.7399   4
   0  12  -5 204.217 70.9407   2
   0 -12   5 156.786 67.0014   4
   0  12  -4 458.766 90.3854   2
   0 -12   4 377.678 77.8665   4
   0  12  -3 339.243 81.1191   2
   0 -12   3 274.360 75.5424   4
   0 -12   2 617.469 94.3372   4
   0  12  -2 372.671 74.5638   2
   0  12  -1 118.372 47.4841   2
   0 -12   1 135.614 45.3680   4
   0 -12   0 856.629 105.693   4
   0  12   0 1027.70 110.475   2
   0  12   1 473.140 76.3304   2
   0 -12  -1 506.973 79.4552   4
   0  12   2 30.4378 34.2618   2
   0 -12  -2 13.7436 40.8585   4
   0 -12  -3 695.037 86.6229   4
   0  12   3 648.667 77.1974   2
   0 -12  -4 3860.29 193.196   4
   0  12   4 3848.17 165.238   2
   0 -12  -5 259.929 57.4363   4
   0 -12  -6 218.365 54.1528   4
   0 -12  -7 5.43958 31.5441   4
   0 -12  -7 63.8829 34.9993   1
   0 -12  -8 215.757 53.0050   4
   0 -12  -8 224.176 48.3351   1
   0 -12  -9 35.4752 39.3734   4
   0 -12  -9 38.5410 31.3974   1
   0 -12 -10 64.7500 40.2665   1
   0 -12 -10 121.553 40.5139   4
   0 -12 -11 3045.39 175.022   1
   0 -12 -11 2793.16 171.907   4
   0 -12 -12 1230.31 119.648   1
   0 -12 -12 1336.23 126.449   4
   0 -12 -13 943.236 110.863   1
   0 -12 -13 1019.86 112.894   4
   0  12  14 2291.69 158.875   3
   0 -12 -14 2337.31 170.979   4
   0 -12 -14 2147.37 167.955   1
   0 -12 -15 555.324 96.8529   1
   0 -12 -15 512.523 92.4910   4
   0  12  15 574.940 90.0740   3
   0 -12 -16 298.886 82.8347   4
   0  12  16 252.641 67.5357   3
   0 -12 -16 188.212 72.7927   1
   0 -12 -17 61.4451 44.1083   1
   0 -12 -17 1.11264 44.2850   4
   0 -12 -18-30.6119 56.5942   1
   0 -12 -19-49.2788 45.7704   1
   0  13  -6 52.0881 62.8189   2
   0 -13   6 208.861 76.8669   4
   0 -13   5 386.384 86.5566   4
   0  13  -5 350.480 89.3914   2
   0  13  -4 392.918 97.2180   2
   0 -13   4 569.169 104.738   4
   0  13  -3 384.625 87.3628   2
   0 -13   3 458.462 97.3112   4
   0 -13   2 903.894 118.055   4
   0  13  -2 1051.56 124.108   2
   0 -13   1 311.500 70.1275   4
   0  13  -1 307.593 73.8890   2
   0  13   0 436.294 84.8670   2
   0 -13   0 285.284 68.2836   4
   0  13   1 1076.38 110.276   2
   0 -13  -1 928.932 109.246   4
   0  13   2 1128.45 106.913   2
   0 -13  -2 893.146 104.467   4
   0  13   3-2.43464 40.9034   2
   0 -13  -3 8.11177 36.3154   4
   0 -13  -4-4.57595 42.5345   4
   0 -13  -5 162.443 62.1255   4
   0 -13  -6 289.164 62.9364   4
   0 -13  -7-47.6256 40.0707   4
   0 -13  -8 50.0186 36.2836   4
   0 -13  -9 168.146 41.0113   1
   0 -13  -9 203.514 55.2808   4
   0 -13 -10 104.181 47.9855   4
   0 -13 -10 22.5174 30.5794   1
   0 -13 -11 1709.32 140.459   4
   0 -13 -11 1671.05 131.877   1
   0 -13 -12 1544.41 136.351   4
   0 -13 -12 1435.86 128.079   1
   0 -13 -13 720.552 104.309   4
   0 -13 -13 821.828 105.008   1
   0 -13 -14 956.134 119.408   4
   0 -13 -14 956.273 114.000   1
   0 -13 -15 640.560 103.496   1
   0 -13 -15 520.295 100.205   4
   0  13  15 620.805 92.1548   3
   0 -13 -16 80.4518 65.6097   4
   0  13  16 42.8152 43.6230   3
   0 -13 -16 63.7333 55.6232   1
   0 -13 -17 38.0318 39.8340   4
   0  13  17 85.9854 44.5442   3
   0 -13 -17-12.1500 49.8313   1
   0 -13 -18 107.158 62.3238   1
   0 -13 -18 38.8277 49.9685   4
   0  14  -5 1750.18 181.713   2
   0  14  -4 479.753 97.3451   2
   0 -14   4 595.344 111.777   4
   0 -14   3 1030.86 132.719   4
   0  14  -3 1263.02 146.819   2
   0  14  -2 573.595 100.087   2
   0 -14   2 704.576 112.232   4
   0 -14   1 1079.96 129.098   4
   0  14  -1 1017.83 124.094   2
   0  14   0 787.364 112.114   2
   0 -14   0 993.097 120.396   4
   0 -14  -1 952.476 115.789   4
   0  14   1 845.375 104.451   2
   0  14   2 218.729 59.4537   2
   0 -14  -2 67.5683 47.9585   4
   0 -14  -3 295.071 68.6470   4
   0 -14  -4 681.683 94.2170   4
   0 -14  -5 760.980 100.931   4
   0 -14  -6 0.29809 38.6675   4
   0 -14  -7 356.652 71.1987   4
   0 -14  -8 1523.04 134.075   4
   0 -14  -9 553.443 85.7255   4
   0 -14 -10 829.473 102.467   4
   0 -14 -11 598.880 85.6142   1
   0 -14 -11 446.079 77.8100   4
   0 -14 -12 930.004 112.822   4
   0 -14 -12 623.753 85.3504   1
   0 -14 -13 561.833 96.3670   4
   0 -14 -13 411.622 76.0052   1
   0 -14 -14 689.879 103.639   4
   0 -14 -14 945.341 119.261   1
   0 -14 -15 210.258 71.0295   1
   0 -14 -15 132.043 64.2935   4
   0  14  16 76.7718 55.4891   3
   0 -14 -16 38.2293 54.5240   4
   0 -14 -16 109.893 60.6007   1
   0  14  17 135.723 58.6090   3
   0 -14 -17 20.2312 45.2028   4
   0 -14 -17 142.225 67.2750   1
   0 -14 -18-16.1820 56.7047   1
   0 -14 -18 81.9643 55.2547   4
   0 -15   3 860.717 133.648   4
   0  15  -3 689.489 118.198   2
   0 -15   2 521.612 106.030   4
   0  15  -2 421.554 90.1521   2
   0 -15   1 196.569 65.8342   4
   0  15  -1 238.045 71.0777   2
   0  15   0 204.403 61.6672   2
   0 -15   0 216.388 68.0459   4
   0  15   1 511.873 88.3423   2
   0 -15  -1 510.851 95.1502   4
   0 -15  -2 134.378 57.8934   4
   0 -15  -3 69.1136 46.5813   4
   0 -15  -4 32.0600 60.4027   4
   0 -15  -5 305.133 70.6945   4
   0 -15  -6 1028.11 115.563   4
   0 -15  -7 578.978 93.3034   4
   0 -15  -8 1472.98 138.971   4
   0 -15  -9 1042.19 117.472   4
   0 -15 -10 353.400 73.2578   4
   0 -15 -11 164.465 53.2354   4
   0 -15 -12 314.788 76.6161   4
   0 -15 -13 565.165 89.6807   1
   0 -15 -13 473.975 90.6745   4
   0 -15 -14 182.219 72.1303   4
   0 -15 -14 144.232 49.0783   1
   0 -15 -15 174.687 77.1653   4
   0 -15 -15 114.451 50.7409   1
   0 -15 -16 39.2645 56.3948   4
   0  15  16-35.7086 44.6147   3
   0 -15 -16 76.5592 45.3418   1
   0  15  17-39.0470 52.9609   3
   0 -15 -17-64.3035 51.8404   1
   0 -15 -17 7.92929 55.0671   4
   0 -15 -18 133.507 59.3505   1
   0 -15 -18 72.6895 57.8113   4
   0  15  18 78.9746 46.5825   3
   0  16  -2 230.627 83.5025   2
   0 -16   1 96.4154 62.7552   4
   0  16  -1 37.8637 42.8729   2
   0 -16   0 186.752 73.2527   4
   0  16   0 139.717 67.3246   2
   0 -16  -1 57.2721 47.2695   4
   0 -16  -2 156.250 68.5284   4
   0 -16  -3 49.3906 49.9997   4
   0 -16  -4 74.1586 57.9622   4
   0 -16  -5 437.847 86.0883   4
   0 -16  -6 425.397 82.9084   4
   0 -16  -7 1168.77 132.310   4
   0 -16  -8 485.294 86.0063   4
   0 -16  -9 40.9152 46.9253   4
   0 -16 -10 284.737 70.8839   4
   0 -16 -11 223.068 67.7105   4
   0 -16 -12 214.748 65.2857   4
   0 -16 -13 364.662 80.6609   4
   0 -16 -14 91.6366 63.5841   4
   0 -16 -15 37.2237 48.1246   4
   0 -16 -15 103.866 51.1019   1
   0  16  16 75.5490 46.7408   3
   0 -16 -16 64.5395 43.3659   1
   0 -16 -16 13.3716 47.4161   4
   0  16  17 224.310 76.9103   3
   0 -16 -17 230.106 81.0592   1
   0 -16 -17 206.968 77.4732   4
   0  17  -1 78.4386 50.5248   2
   0 -17  -1 58.3641 53.2855   4
   0 -17  -2-65.1260 46.0977   4
   0 -17  -3-14.3327 40.1069   4
   0 -17  -4 96.6737 49.3393   4
   0 -17  -5 459.215 95.8888   4
   0 -17  -6 681.087 111.627   4
   0 -17  -7 627.369 106.448   4
   0 -17  -8 714.567 104.332   4
   0 -17  -9 463.127 91.7497   4
   0 -17 -10 26.2279 46.5999   4
   0 -17 -11 322.166 83.6053   4
   0 -17 -12 198.738 68.8955   4
   0 -17 -13 260.529 74.0097   4
   0 -17 -14-22.0097 39.1225   4
   0 -17 -15 55.1018 53.9149   4
   0  17  16 169.956 69.2491   3
   0 -17 -16 155.218 68.0598   4
   0 -18  -3-56.0557 59.4386   4
   0 -18  -4 166.351 77.4527   4
   0 -18  -5 448.060 95.5696   4
   0 -18  -6 560.003 105.196   4
   0 -18  -7 275.716 75.7725   4
   0 -18  -8 314.371 81.0038   4
   0 -18  -9-5.57698 36.8893   4
   0 -18 -10 85.9587 44.7397   4
   0 -18 -11 70.5809 54.1630   4
   0 -18 -12 126.484 56.7890   4
   0 -18 -13-68.1825 57.7323   4
   0 -18 -14-95.0046 59.8221   4
   0 -18 -15 62.7366 65.9967   4
   0 -19  -7 155.128 66.4471   4
   0 -19  -8 63.4414 53.4510   4
   0 -19  -9 91.8245 57.8591   4
   0 -19 -10 0.22503 48.1837   4
   0 -19 -11-18.2547 42.8783   4
   0 -19 -12 5.60945 43.0960   4
   1 -19 -10 23.9584 44.6910   4
   1 -19  -9 122.837 60.5929   4
   1 -19  -8 107.957 62.6603   4
   1 -18 -14 114.278 65.0722   4
   1 -18 -13 54.3967 46.0259   4
   1 -18 -12 92.5553 55.9492   4
   1 -18 -11 80.1055 45.7686   4
   1 -18 -10 27.2455 36.5632   4
   1 -18  -9 190.196 69.8843   4
   1 -18  -8 10.1246 44.7805   4
   1 -18  -7-6.18893 38.0508   4
   1 -18  -6 135.114 59.6881   4
   1 -18  -5 214.018 78.2781   4
   1 -18  -4 76.7102 61.0590   4
   1 -18  -3 42.6203 55.1205   4
   1 -17 -16 479.317 101.162   4
   1 -17 -15 483.447 97.6740   4
   1 -17 -14 65.0688 54.1275   4
   1 -17 -13 61.4054 44.1851   4
   1 -17 -12 69.2591 58.6306   4
   1 -17 -11 28.0871 56.0133   4
   1 -17 -10 437.771 91.4735   4
   1 -17  -9 105.405 46.8476   4
   1 -17  -8 3.69571 45.2772   4
   1 -17  -7 147.914 67.0386   4
   1 -17  -6 57.6945 47.5126   4
   1 -17  -5 275.314 78.1623   4
   1 -17  -4 156.744 55.8020   4
   1 -17  -3 376.888 85.4985   4
   1 -17  -2 52.6970 62.6739   4
   1 -17  -1 129.234 64.4125   4
  -1  17  -1 300.706 85.5399   2
   1 -16 -17 239.499 75.6144   1
   1 -16 -17 221.679 79.0818   4
  -1  16  17 225.614 69.7419   3
   1 -16 -16 310.646 80.8787   4
   1 -16 -16 474.215 96.3352   1
   1 -16 -15 348.978 84.4694   4
   1 -16 -14 149.067 64.7999   4
   1 -16 -13 13.4072 49.5121   4
   1 -16 -12 88.3098 60.2347   4
   1 -16 -11 26.2109 52.6580   4
   1 -16 -10 78.1246 52.8156   4
   1 -16  -9 119.233 60.1551   4
   1 -16  -8 137.672 54.8957   4
   1 -16  -7 302.681 84.7962   4
   1 -16  -6 507.627 90.9302   4
   1 -16  -5 841.896 112.845   4
   1 -16  -4 869.837 120.763   4
   1 -16  -3 152.627 75.4550   4
   1 -16  -2 30.8590 46.3843   4
   1 -16  -1 134.481 57.5560   4
   1 -16   0 516.493 103.764   4
  -1  16   0 436.863 91.4275   2
  -1  16  -1 373.801 97.2233   2
   1 -16   1 310.032 84.5275   4
  -1  16  -2 1.30201 52.2742   2
   1 -15 -18 301.207 78.1004   1
  -1  15  17 363.330 86.9358   3
   1 -15 -17 234.578 79.2761   4
   1 -15 -17 439.675 94.1327   1
   1 -15 -16 404.549 82.7862   1
   1 -15 -16 444.157 93.7356   4
   1 -15 -15 199.229 73.9812   4
   1 -15 -15 124.807 45.4141   1
   1 -15 -14 23.2146 41.6726   1
   1 -15 -14 39.5952 45.4250   4
   1 -15 -13 61.7711 52.8622   4
   1 -15 -12-20.1916 44.0374   4
   1 -15 -11 96.4257 57.4314   4
   1 -15 -10-45.3564 46.4602   4
   1 -15  -9 490.511 83.2140   4
   1 -15  -8 60.8712 54.2469   4
   1 -15  -7 193.070 59.4106   4
   1 -15  -6 3227.47 205.859   4
   1 -15  -5 1634.61 149.241   4
   1 -15  -4 853.281 109.867   4
   1 -15  -3 587.138 92.4846   4
   1 -15  -2 204.167 67.8466   4
  -1  15   1 63.7503 42.6518   2
   1 -15  -1 117.610 56.6934   4
   1 -15   0 344.727 80.7906   4
  -1  15   0 207.512 58.5457   2
  -1  15  -1 94.9771 50.1501   2
   1 -15   1 285.537 80.5424   4
  -1  15  -2 193.319 78.6693   2
   1 -15   2 39.0350 54.6108   4
  -1  15  -3 5.74694 52.2204   2
   1 -15   3 171.542 78.6210   4
   1 -14 -18 642.533 114.307   4
   1 -14 -18 442.388 100.687   1
   1 -14 -17 407.608 88.2850   4
   1 -14 -17 625.129 104.713   1
  -1  14  17 686.785 102.857   3
   1 -14 -16 507.776 93.4485   1
  -1  14  16 283.297 71.8107   3
   1 -14 -16 374.980 83.2783   4
   1 -14 -15 217.414 71.2921   4
   1 -14 -15 274.940 80.6634   1
   1 -14 -14 78.1641 52.4492   4
   1 -14 -14 115.510 58.1032   1
   1 -14 -13 3.44338 45.7561   4
   1 -14 -13 30.1447 30.4142   1
   1 -14 -12 6.55569 41.8424   4
   1 -14 -12 61.5220 45.5128   1
   1 -14 -11 39.2272 51.4937   4
   1 -14 -10 31.7744 53.0184   4
   1 -14  -9 360.308 73.7202   4
   1 -14  -8 1062.28 113.934   4
   1 -14  -7 398.546 73.1370   4
   1 -14  -6 1864.30 150.940   4
   1 -14  -5 3854.95 211.833   4
   1 -14  -4 1705.70 143.133   4
   1 -14  -3 180.823 60.8403   4
   1 -14  -2 192.513 60.9093   4
  -1  14   2 157.519 49.7854   2
   1 -14  -1 64.4048 47.4788   4
  -1  14   1-16.8857 37.7693   2
   1 -14   0 10.4979 44.5927   4
  -1  14   0 64.0071 40.8307   2
   1 -14   1 399.202 89.9193   4
  -1  14  -1 332.484 82.2491   2
   1 -14   2-4.50022 45.1694   4
  -1  14  -2-11.4587 48.0234   2
  -1  14  -3 102.704 60.7928   2
   1 -14   3 75.4910 56.8626   4
  -1  14  -4 162.969 56.9436   2
   1 -14   4 251.241 84.0076   4
  -1  14  -5 542.439 103.786   2
   1 -14   5 460.307 99.2846   4
   1 -13 -18 223.430 75.0226   4
   1 -13 -18 411.211 89.6294   1
   1 -13 -17 646.688 109.931   1
   1 -13 -17 560.705 100.340   4
   1 -13 -16 209.781 66.0712   4
  -1  13  16 250.771 67.9352   3
   1 -13 -16 395.246 88.5048   1
   1 -13 -15 95.3436 55.3081   1
   1 -13 -15-3.67259 51.6747   4
   1 -13 -14 51.8279 40.1473   4
   1 -13 -14 107.041 56.1195   1
   1 -13 -13 42.5809 48.8665   1
   1 -13 -13 25.7722 56.0229   4
   1 -13 -12 36.3834 38.4821   1
   1 -13 -12 95.2642 55.8008   4
   1 -13 -11 131.446 50.9275   4
   1 -13 -11 89.6655 37.7419   1
   1 -13 -10 168.131 44.6387   1
   1 -13 -10 174.486 57.3887   4
   1 -13  -9 393.075 77.5001   4
   1 -13  -8 222.313 59.8821   4
   1 -13  -7 2522.87 164.048   4
   1 -13  -6 2592.94 166.371   4
   1 -13  -5 508.548 77.6635   4
   1 -13  -4 77.3851 41.6686   4
   1 -13  -3 359.845 70.3500   4
  -1  13   3 292.655 55.5469   2
   1 -13  -2 51.9263 37.4138   4
  -1  13   2-8.15703 36.6304   2
   1 -13  -1 134.903 51.9313   4
  -1  13   1 59.0355 42.9011   2
  -1  13   0 25.1380 41.9174   2
   1 -13   0 54.4202 43.2625   4
   1 -13   1 151.368 57.6482   4
  -1  13  -1 29.0489 43.0103   2
   1 -13   2 14.1079 42.4395   4
  -1  13  -2 107.790 61.2190   2
   1 -13   3 444.940 90.4694   4
  -1  13  -3 621.994 105.561   2
  -1  13  -4 109.824 54.2884   2
   1 -13   4 36.8893 47.2900   4
  -1  13  -5 373.127 84.3503   2
   1 -13   5 663.959 114.669   4
   1 -13   6 779.942 129.709   4
  -1  13  -6 891.315 131.667   2
   1 -12 -18 116.505 63.7824   1
   1 -12 -17 272.139 77.3588   1
   1 -12 -17 224.348 67.7143   4
   1 -12 -16 310.827 83.6991   1
   1 -12 -16 418.052 89.7612   4
  -1  12  16 260.058 66.0247   3
   1 -12 -15 204.626 60.7471   4
   1 -12 -15 89.7941 46.0288   1
  -1  12  15 126.463 46.2748   3
   1 -12 -14 132.791 58.6931   4
   1 -12 -14 131.038 52.4213   1
   1 -12 -13 696.382 97.8829   4
   1 -12 -13 909.185 109.580   1
   1 -12 -12 119.963 48.8744   1
   1 -12 -12 102.314 51.5184   4
   1 -12 -11 586.774 91.2992   4
   1 -12 -11 505.184 78.7606   1
   1 -12 -10-31.3635 37.2327   4
   1 -12 -10 62.9881 40.6286   1
   1 -12  -9-23.7809 28.0896   1
   1 -12  -9 12.6243 35.3165   4
   1 -12  -8 49.1948 31.5160   4
   1 -12  -8 123.161 40.2743   1
   1 -12  -7 1405.93 119.521   4
   1 -12  -6 1912.27 138.823   4
   1 -12  -5 1502.78 125.768   4
  -1  12   4 13.0201 25.8834   2
   1 -12  -4 1.01016 34.4167   4
  -1  12   3 39.1185 37.5223   2
   1 -12  -3 3.51544 41.8144   4
  -1  12   2 207.452 56.3434   2
   1 -12  -2 203.392 50.8458   4
   1 -12  -1 494.133 75.0298   3
  -1  12   1 379.610 64.2249   2
   1 -12  -1 477.002 78.3966   4
   1 -12   0 274.171 65.7934   4
   1 -12   0 406.104 67.5602   3
  -1  12   0 299.537 65.8717   2
   1 -12   1 98.4726 53.5568   4
  -1  12  -1 80.6601 54.4367   2
   1 -12   1 98.5523 50.0054   3
   1 -12   2 32.6241 45.0131   4
  -1  12  -2 66.1747 61.6991   2
   1 -12   3 362.243 80.3232   4
  -1  12  -3 251.798 71.8031   2
  -1  12  -4 85.0906 60.5108   2
   1 -12   4 84.4942 61.0198   4
   1 -12   5 1028.68 129.987   4
  -1  12  -5 1034.11 134.178   2
  -1  12  -6 595.912 103.558   2
   1 -12   6 601.157 109.536   4
  -1  12  -7 169.217 69.2354   2
   1 -12   7 168.730 78.8578   4
   1 -11 -18 454.306 91.8563   1
   1 -11 -17 94.8654 57.4114   4
   1 -11 -17 152.088 66.8136   1
   1 -11 -16 16.4943 45.9502   4
   1 -11 -16 75.9920 54.6102   1
  -1  11  15-50.4600 49.0010   3
   1 -11 -15 14.5774 45.3600   1
   1 -11 -15 92.6476 48.6250   4
   1 -11 -14 171.638 61.5085   4
   1 -11 -14 291.036 71.5075   1
   1 -11 -13 449.119 79.8043   4
   1 -11 -13 398.480 74.3686   1
   1 -11 -12 674.344 90.0665   4
   1 -11 -12 893.027 103.629   1
   1 -11 -11 107.526 44.1525   1
   1 -11 -11 95.3207 48.9090   4
   1 -11 -10 365.194 67.5758   4
   1 -11 -10 445.587 70.2264   1
   1 -11  -9-50.4476 37.8058   4
   1 -11  -9 43.2562 34.9496   1
   1 -11  -8 224.245 45.7658   1
   1 -11  -8 275.621 56.9629   4
   1 -11  -7 2174.00 119.563   1
   1 -11  -7 2154.68 139.458   4
   1 -11  -6 4057.99 189.444   4
   1 -11  -6 3956.81 152.027   1
  -1  11   5 1581.77 95.4291   2
   1 -11  -5 2366.75 144.151   4
  -1  11   4 1018.34 81.6302   2
   1 -11  -4 1074.05 100.666   4
  -1  11   3 140.172 40.3414   2
   1 -11  -3 33.6604 31.7310   4
  -1  11   2 1.44459 29.4262   2
   1 -11  -2 58.4260 41.2671   4
   1 -11  -2 17.4484 33.7540   3
  -1  11   1 726.426 86.7784   2
   1 -11  -1 794.696 88.3536   3
   1 -11  -1 719.623 87.3412   4
   1 -11   0 570.195 71.2560   3
   1 -11   0 564.857 82.0930   4
  -1  11   0 673.963 82.0119   2
   1 -11   1 576.489 80.1557   4
   1 -11   1 591.174 77.3779   3
  -1  11  -1 701.450 93.4285   2
   1 -11   2-22.3952 45.1626   4
  -1  11  -2 16.4256 44.8596   2
   1 -11   2 0.00000 39.4991   3
   1 -11   3-24.1394 41.6437   4
  -1  11  -3-30.0047 41.9971   2
   1 -11   4 464.428 78.8050   4
  -1  11  -4 356.853 80.7648   2
  -1  11  -5 1742.97 160.030   2
   1 -11   5 1741.01 155.397   4
  -1  11  -6 795.514 118.830   2
   1 -11   6 694.329 108.975   4
  -1  11  -7 93.3889 61.3709   2
   1 -11   7 104.636 58.5545   4
   1 -11   8 115.538 64.8719   4
  -1  11  -8 153.386 71.2588   2
   1 -10 -19 109.217 69.0570   1
   1 -10 -18 59.0754 57.6885   1
   1 -10 -17 101.937 48.1000   1
   1 -10 -16-10.8071 40.8222   1
   1 -10 -16-50.2108 45.6702   4
   1 -10 -15 28.5308 48.9113   1
   1 -10 -15-22.9033 46.7673   4
  -1  10  14 364.029 66.3794   3
   1 -10 -14 363.211 77.7877   4
   1 -10 -14 413.816 81.4637   1
   1 -10 -13 801.390 101.610   1
   1 -10 -13 698.956 100.022   4
   1 -10 -12 581.965 86.0698   1
   1 -10 -12 494.874 75.8949   4
   1 -10 -11 952.105 98.0301   1
   1 -10 -11 907.961 95.9172   4
   1 -10 -10 269.101 56.7274   4
   1 -10 -10 283.322 58.3643   1
   1 -10  -9 130.822 43.5975   1
   1 -10  -9 130.944 42.5003   4
   1 -10  -8 2011.64 122.040   1
   1 -10  -8 2031.75 132.530   4
   1 -10  -7 3371.44 149.913   1
   1 -10  -7 3351.03 164.379   4
   1 -10  -6 2528.90 143.683   4
   1 -10  -6 2075.50 108.162   1
  -1  10   5 188.140 38.2662   2
   1 -10  -5 266.547 49.6395   4
   1 -10  -5 329.578 47.2342   1
  -1  10   4 435.552 51.4455   2
   1 -10  -4 465.398 66.3148   4
   1 -10  -3 372.184 60.2948   4
  -1  10   3 213.421 49.8411   2
   1 -10  -2 122.847 39.9713   4
  -1  10   2 215.247 46.3682   2
   1 -10  -2 221.920 49.6419   3
   1 -10  -1 556.672 74.0120   4
   1 -10  -1 585.364 72.4361   3
  -1  10   1 555.633 71.0966   2
  -1  10   0 32.9961 36.5466   2
   1 -10   0-13.9951 29.7014   3
   1 -10   0-41.1790 35.1879   4
   1 -10   1 55.0131 30.0323   3
  -1  10  -1 55.9442 40.4447   2
   1 -10   1 58.3628 41.8290   4
   1 -10   2 1605.59 117.692   3
   1 -10   2 1418.95 121.663   4
  -1  10  -2 1471.69 126.602   2
  -1  10  -3 435.376 80.9101   2
   1 -10   3 486.273 69.8201   3
   1 -10   3 432.767 73.6450   4
   1 -10   4 3395.28 196.876   4
  -1  10  -4 3561.41 207.788   2
   1 -10   5 1821.97 154.422   4
  -1  10  -5 1801.58 157.410   2
  -1  10  -6 2563.37 191.376   2
   1 -10   6 2542.34 186.843   4
  -1  10  -7 438.265 90.1429   2
   1 -10   7 515.113 96.4368   4
  -1  10  -8 92.0092 61.9391   2
   1 -10   8 58.5427 54.3163   4
  -1  10  -9 3.03002 58.8698   2
   1 -10   9 132.926 64.4791   4
   1 -10  10 53.7138 61.3245   4
   1  -9 -19-18.4120 54.9840   1
   1  -9 -18 44.2844 47.0007   1
   1  -9 -17 206.143 71.5201   1
   1  -9 -16 101.260 56.6560   1
   1  -9 -15 104.981 55.0450   1
   1  -9 -15 144.627 58.3690   4
  -1   9  14 481.646 70.4150   3
   1  -9 -14 470.592 84.4068   1
   1  -9 -14 384.304 73.4630   4
   1  -9 -13 124.865 55.8674   4
  -1   9  13 22.4004 28.1845   3
   1  -9 -13 136.197 52.0243   1
   1  -9 -12 721.731 91.5103   1
   1  -9 -12 727.797 87.3631   4
   1  -9 -11 75.4658 34.6386   1
   1  -9 -11-0.83968 30.8141   4
   1  -9 -10 998.330 97.3100   1
   1  -9 -10 949.328 92.7789   4
   1  -9  -9 54.2780 33.1412   4
   1  -9  -9 17.8744 27.7951   1
   1  -9  -8 88.7209 36.2775   4
   1  -9  -8 80.3077 36.0778   1
   1  -9  -7 4419.28 178.767   4
   1  -9  -7 4155.94 162.243   1
   1  -9  -6 1249.77 83.2497   1
  -1   9   6 1209.58 61.8487   2
   1  -9  -6 1142.41 92.3378   4
   1  -9  -5 639.181 55.6924   1
   1  -9  -5 893.843 82.5869   4
  -1   9   5 604.149 50.3061   2
   1  -9  -4 367.151 57.6749   4
  -1   9   4 324.079 42.0827   2
   1  -9  -4 266.871 35.0493   1
   1  -9  -3 604.124 75.6516   3
   1  -9  -3 552.597 44.1718   1
   1  -9  -3 681.289 72.2600   4
  -1   9   3 537.892 56.2460   2
   1  -9  -2 1933.86 118.888   4
   1  -9  -2 2113.84 124.113   3
  -1   9   2 2134.95 117.534   2
   1  -9  -1 1087.73 92.9858   4
   1  -9  -1 1269.93 95.5573   3
  -1   9   1 1307.93 97.6518   2
  -1   9   0 2651.57 143.466   2
   1  -9   0 2599.42 137.277   3
   1  -9   0 2373.36 138.849   4
   1  -9   1 477.901 62.8140   3
   1  -9   1 400.521 62.8892   4
  -1   9  -1 407.528 66.3250   2
   1  -9   2 40.3968 35.1101   3
  -1   9  -2 78.0911 43.2530   2
   1  -9   2 52.2995 32.1777   4
   1  -9   3 1942.72 140.719   4
   1  -9   3 2246.82 127.777   3
  -1   9  -3 1938.36 143.138   2
   1  -9   4 3686.50 195.896   4
  -1   9  -4 3424.05 196.858   2
   1  -9   5 3495.90 200.402   4
  -1   9  -5 3462.20 203.684   2
  -1   9  -6 1191.41 127.628   2
   1  -9   6 1174.13 121.563   4
   1  -9   7 190.009 67.9743   4
  -1   9  -7 235.534 71.8514   2
  -1   9  -8-33.0388 46.9698   2
   1  -9   8-67.9445 49.3190   4
  -1   9  -9 109.195 56.0632   2
   1  -9   9 103.529 55.6473   4
   1  -9  10 48.5203 46.6406   4
  -1   9 -10 102.297 58.2572   2
  -1   9 -11 112.161 73.3026   2
   1  -9  11 139.909 66.0386   4
   1  -8 -19-19.8170 45.5902   1
   1  -8 -18-50.1000 56.3608   1
   1  -8 -17-53.5967 46.4397   1
   1  -8 -16 119.762 56.0519   1
   1  -8 -15 885.966 111.849   1
   1  -8 -14 864.163 108.941   1
   1  -8 -14 741.121 98.0672   4
   1  -8 -13 2273.98 156.423   4
  -1   8  13 2460.74 136.924   3
   1  -8 -13 2468.31 170.647   1
   1  -8 -12 807.322 96.8347   1
   1  -8 -12 715.344 89.2904   4
   1  -8 -11 1227.73 110.786   4
   1  -8 -11 1167.87 107.786   1
   1  -8 -10 605.657 76.2036   4
   1  -8 -10 623.908 77.2763   1
   1  -8  -9 685.915 76.1251   1
   1  -8  -9 772.393 83.1645   4
   1  -8  -8 462.971 61.8734   4
   1  -8  -8 427.027 57.1008   1
   1  -8  -7 1633.58 106.211   4
   1  -8  -7 1805.60 106.108   1
   1  -8  -6 235.069 42.5194   1
   1  -8  -6 208.485 42.6941   4
   1  -8  -5-0.31976 27.9928   4
   1  -8  -5 18.0490 20.5010   1
   1  -8  -4 11.0189 28.2505   4
   1  -8  -4 45.1866 20.7560   1
   1  -8  -3 1354.49 95.3377   3
   1  -8  -3 1322.21 90.2445   4
   1  -8  -3 1242.88 65.0203   1
  -1   8   3 1343.18 77.9729   2
   1  -8  -2 1920.33 112.461   4
   1  -8  -2 2190.05 116.827   3
  -1   8   2 1978.42 102.583   2
   1  -8  -2 1872.47 66.9429   1
  -1   8   1 7174.03 207.837   2
   1  -8  -1 7093.68 208.180   3
   1  -8  -1 6726.26 209.580   4
   1  -8   0 1782.17 104.972   3
  -1   8   0 1728.11 111.411   2
   1  -8   0 1644.87 107.405   4
   1  -8   1 2713.58 142.293   4
  -1   8  -1 3071.11 154.313   2
   1  -8   1 3046.62 137.110   3
   1  -8   2 3049.29 154.811   4
   1  -8   2 3231.05 146.142   3
  -1   8  -2 3160.25 163.994   2
  -1   8  -3 6240.93 240.759   2
   1  -8   3 6245.43 230.962   4
   1  -8   3 6465.05 207.370   3
   1  -8   4 3013.44 145.687   3
   1  -8   4 2576.01 158.343   4
  -1   8  -4 2722.13 166.414   2
  -1   8  -5 113.782 40.1437   2
   1  -8   5 137.776 47.2512   4
   1  -8   6 157.789 47.7311   4
  -1   8  -6 58.2868 41.2864   2
  -1   8  -7 93.6726 48.1023   2
   1  -8   7 124.924 47.7467   4
  -1   8  -8 65.1646 43.9776   2
   1  -8   8 50.3533 41.2774   4
   1  -8   9 170.919 66.0666   4
  -1   8  -9 230.035 73.5152   2
   1  -8  10 200.750 65.1842   4
  -1   8 -10 333.497 87.3579   2
  -1   8 -11 350.132 88.5572   2
   1  -8  11 261.415 80.3327   4
   1  -8  12 29.7857 47.5557   4
  -1   8 -12 72.9178 56.4096   2
   1  -7 -19 19.9255 50.8171   1
   1  -7 -18 91.6563 56.0557   1
   1  -7 -17-33.0381 40.1383   1
   1  -7 -16 463.435 92.9127   1
   1  -7 -15 915.129 113.682   1
   1  -7 -14 2513.34 176.876   1
   1  -7 -13 4720.63 229.221   1
   1  -7 -12 3884.95 200.197   1
   1  -7 -12 3511.70 185.499   4
  -1   7  12 3753.21 161.588   3
   1  -7 -11 562.979 78.5222   1
   1  -7 -11 622.752 80.8137   4
   1  -7 -10 92.9732 37.3902   4
   1  -7 -10 126.480 37.6703   1
   1  -7  -9 637.912 72.1151   1
   1  -7  -9 647.028 71.6600   4
   1  -7  -8 288.312 47.8768   1
   1  -7  -8 279.054 51.6483   4
   1  -7  -7 2297.32 118.954   1
   1  -7  -7 2380.66 124.407   4
   1  -7  -6 73.5959 27.0930   1
   1  -7  -6 55.5247 25.8927   4
   1  -7  -5 168.745 38.8246   4
   1  -7  -5 153.577 33.8376   1
   1  -7  -4 1930.44 86.3528   1
   1  -7  -4 1971.86 104.685   4
   1  -7  -3 4364.07 115.919   1
   1  -7  -3 4609.88 157.109   4
   1  -7  -3 4695.20 164.233   3
   1  -7  -2 14053.3 177.251   1
   1  -7  -2 15016.1 281.902   3
   1  -7  -2 14044.1 275.293   4
  -1   7   1 4928.04 159.627   2
   1  -7  -1 4930.87 166.374   4
   1  -7  -1 4607.30 85.6110   1
   1  -7  -1 5247.45 169.187   3
   1  -7   0 3409.48 136.119   3
   1  -7   0 2963.31 133.479   4
  -1   7   0 3379.87 139.991   2
   1  -7   1 1121.33 86.1140   4
  -1   7  -1 1103.43 88.2742   2
   1  -7   1 1238.05 86.3273   3
  -1   7  -2 933.984 89.1857   2
   1  -7   2 908.633 82.2403   4
   1  -7   2 1040.83 80.8467   3
  -1   7  -3 3176.35 163.833   2
   1  -7   3 3567.93 143.580   3
   1  -7   3 3089.13 154.666   4
  -1   7  -4 675.169 86.2265   2
   1  -7   4 764.964 70.1117   3
   1  -7   4 804.231 84.9873   4
   1  -7   5 3895.15 153.635   3
   1  -7   5 3513.11 174.763   4
  -1   7  -5 3718.52 194.216   2
  -1   7  -6 168.878 53.7797   2
   1  -7   6 106.562 43.9831   4
  -1   7  -7-26.0377 42.1163   2
   1  -7   7 14.4503 41.2433   4
  -1   7  -8 465.495 83.9285   2
   1  -7   8 454.502 85.0003   4
   1  -7   9 479.489 85.2826   4
  -1   7  -9 592.342 99.2620   2
  -1   7 -10 475.040 87.4601   2
   1  -7  10 395.687 79.9685   4
   1  -7  11 886.668 121.371   4
  -1   7 -11 887.008 123.249   2
   1  -7  12 126.629 65.7934   4
  -1   7 -12 204.764 74.0358   2
  -1   7 -13 496.004 107.102   2
   1  -6 -19 140.086 63.1406   1
   1  -6 -18-6.08097 36.9959   1
   1  -6 -17-4.28877 41.1306   1
   1  -6 -16 269.675 68.1872   1
   1  -6 -15 934.089 117.739   1
   1  -6 -14 1346.25 130.656   1
   1  -6 -13 3732.97 203.664   1
   1  -6 -12 1277.72 116.544   1
  -1   6  12 1312.41 93.7454   3
  -1   6  11 2899.90 130.052   3
   1  -6 -11 2979.29 168.353   1
   1  -6 -11 2703.23 153.797   4
   1  -6 -10 1538.63 111.595   4
   1  -6 -10 1518.91 116.640   1
   1  -6  -9-11.7803 29.3479   4
   1  -6  -9 14.3380 27.1539   1
   1  -6  -8 2111.89 121.630   1
   1  -6  -8 2035.84 116.561   4
   1  -6  -7 331.485 50.0111   1
   1  -6  -7 216.163 18.7239   2
   1  -6  -7 304.688 48.7405   4
   1  -6  -6 31.2916 22.2960   4
   1  -6  -6 9.48122 9.10853   2
   1  -6  -6 5.53726 23.2399   1
   1  -6  -5 6896.88 173.956   1
   1  -6  -5 7170.73 188.852   4
   1  -6  -4 855.337 65.9829   4
   1  -6  -4 852.956 57.2042   1
   1  -6  -3 5723.28 130.060   1
   1  -6  -3 6151.05 174.195   3
   1  -6  -3 6257.63 168.137   4
   1  -6  -2 15981.6 269.166   4
   1  -6  -2 16368.0 274.593   3
   1  -6  -2 15868.1 184.615   1
   1  -6  -1 14030.3 259.065   4
   1  -6  -1 14579.6 258.847   3
   1  -6   0 1387.76 86.6550   4
   1  -6   0 1403.08 83.4178   3
  -1   6   0 1527.92 90.8275   2
  -1   6  -1 544.957 59.6731   2
   1  -6   1 439.895 52.3783   4
   1  -6   1 543.335 54.2648   3
   1  -6   2 5381.85 179.004   4
   1  -6   2 5750.89 168.506   3
  -1   6  -2 5732.10 192.597   2
   1  -6   3 50.4857 33.5557   4
  -1   6  -3 118.432 37.5028   2
   1  -6   3 71.0428 28.2635   3
   1  -6   4 558.702 65.2043   4
   1  -6   4 592.872 57.6615   3
  -1   6  -4 570.098 74.4486   2
   1  -6   5 51.1263 24.8088   3
  -1   6  -5 8.11738 36.5314   2
   1  -6   5 93.5605 39.6440   4
  -1   6  -5 34.0844 21.8866   5
  -1   6  -6 127.424 46.8300   2
   1  -6   6 89.2805 39.5240   4
  -1   6  -6 131.829 34.1613   5
   1  -6   7 40.0279 39.4872   4
  -1   6  -7 1.74269 37.0184   2
  -1   6  -8-70.3249 52.2027   2
   1  -6   8 4.55821 34.5969   4
   1  -6   9 219.055 57.4941   4
  -1   6  -9 152.864 59.3354   2
  -1   6 -10 1376.21 139.519   2
   1  -6  10 1532.97 145.095   4
  -1   6 -11 721.639 111.413   2
   1  -6  11 499.526 95.6553   4
  -1   6 -12 350.297 88.0232   2
   1  -6  12 345.494 83.3258   4
   1  -6  13 388.234 94.6256   4
  -1   6 -13 508.795 104.753   2
  -1   6 -14 837.419 128.314   2
   1  -5 -18 103.276 52.2268   1
   1  -5 -17-20.5325 44.9546   1
   1  -5 -16 80.0535 53.1856   1
   1  -5 -15 208.690 63.1569   1
   1  -5 -14 1959.12 156.861   1
   1  -5 -13 1196.53 117.439   1
   1  -5 -12 994.414 105.269   1
   1  -5 -11 325.499 60.1718   1
  -1   5  11 292.974 43.7915   3
  -1   5  10 736.510 64.7117   3
   1  -5 -10 760.047 81.8227   1
   1  -5 -10 791.669 81.7941   4
   1  -5  -9 170.263 43.6374   4
   1  -5  -9 103.043 38.4731   1
   1  -5  -8 1344.72 94.6702   4
   1  -5  -8 1214.66 91.8035   1
   1  -5  -8 1217.27 51.2474   2
   1  -5  -7 318.007 45.6296   4
   1  -5  -7 185.344 39.5294   1
   1  -5  -7 212.110 21.0411   2
   1  -5  -6 96.0419 31.5794   1
   1  -5  -6 69.8279 31.2449   4
   1  -5  -6 70.2872 12.7710   2
   1  -5  -5 2825.70 113.131   1
   1  -5  -5 3047.33 118.021   4
   1  -5  -5 2737.35 62.9598   2
   1  -5  -4 7915.29 178.794   4
   1  -5  -4 7835.93 165.196   1
   1  -5  -3 4767.77 115.274   1
   1  -5  -3 4811.40 136.383   4
   1  -5  -3 4697.33 142.036   3
   1  -5  -2 9273.35 189.681   3
   1  -5  -2 9082.30 135.336   1
   1  -5  -2 9156.46 185.666   4
   1  -5  -1 7363.26 170.936   3
   1  -5  -1 6869.54 165.337   4
   1  -5   0 550.994 52.8502   4
   1  -5   0 640.265 55.8395   3
  -1   5  -1 1201.94 78.2871   2
   1  -5   1 1307.59 72.6238   3
   1  -5   1 1181.43 75.1500   4
   1  -5   2-25.1984 28.6320   4
   1  -5   2 1.17489 23.5502   3
  -1   5  -2-14.3699 26.7040   2
  -1   5  -3 663.271 70.8537   2
   1  -5   3 609.282 62.0082   4
   1  -5   3 659.842 57.2014   3
  -1   5  -3 702.612 31.5688   1
   1  -5   4 683.000 56.7428   3
   1  -5   4 702.246 69.2536   4
  -1   5  -4 720.896 77.6633   2
  -1   5  -4 783.074 41.0337   1
  -1   5  -5 95.2913 39.5604   2
   1  -5   5 137.778 31.9248   3
   1  -5   5 120.797 37.2169   4
   1  -5   6 156.014 32.6927   3
   1  -5   6 258.675 51.5696   4
  -1   5  -6 218.030 43.0667   5
  -1   5  -6 213.094 49.5594   2
  -1   5  -7 1020.36 102.936   2
   1  -5   7 1025.10 100.721   4
  -1   5  -7 891.175 82.7927   5
   1  -5   8 770.538 91.1656   4
  -1   5  -8 1010.69 108.602   2
  -1   5  -9 314.945 75.3286   2
   1  -5   9 259.099 61.7857   4
   1  -5  10 74.6440 53.9865   4
  -1   5 -10 56.1323 47.6652   2
   1  -5  11 40.3689 49.3881   4
  -1   5 -11 210.383 71.2805   2
   1  -5  12 145.353 58.9529   4
  -1   5 -12 187.415 58.8367   2
   1  -5  13 9.61153 43.3185   4
  -1   5 -13 43.9593 50.7310   2
   1  -5  14 305.342 79.9635   4
  -1   5 -14 352.993 90.8787   2
   1  -4 -18-65.2577 44.5106   1
   1  -4 -17 337.505 79.3794   1
   1  -4 -16 588.450 97.8980   1
   1  -4 -15 1369.87 134.552   1
   1  -4 -14 1514.75 135.723   1
   1  -4 -13 240.743 59.3254   1
   1  -4 -12 31.8207 31.8429   1
   1  -4 -11 383.234 65.9813   1
   1  -4 -10 306.364 58.9253   1
   1  -4 -10 322.044 38.3006   2
  -1   4  10 352.161 41.4878   3
   1  -4  -9 117.958 37.2188   1
  -1   4   9 160.103 30.9193   3
   1  -4  -9 146.763 26.2221   2
   1  -4  -8-38.2782 30.9732   1
   1  -4  -8-5.68675 13.1520   2
   1  -4  -8-15.9152 25.5358   4
   1  -4  -7 519.619 60.7394   1
   1  -4  -7 581.081 36.6432   2
   1  -4  -7 548.479 58.7372   4
   1  -4  -6 322.384 26.0408   2
   1  -4  -6 315.286 47.0477   1
   1  -4  -6 291.026 40.4366   4
   1  -4  -5 983.041 67.2785   1
   1  -4  -5 1044.75 68.8963   4
   1  -4  -5 1081.29 39.9905   2
   1  -4  -4 10939.4 195.280   1
   1  -4  -4 11134.3 121.200   2
   1  -4  -4 11171.3 201.383   4
   1  -4  -3 4304.63 106.841   1
   1  -4  -3 4380.32 119.760   4
   1  -4  -3 4190.86 82.3783   2
   1  -4  -3 4147.38 118.359   3
   1  -4  -2 4099.84 116.445   3
   1  -4  -2 4186.75 112.666   4
   1  -4  -2 4094.16 88.5201   1
   1  -4  -1 8317.40 165.103   3
   1  -4  -1 9249.72 169.480   4
   1  -4   0 966.453 57.8629   3
   1  -4   0 1283.43 67.7100   4
   1  -4   1 1717.68 81.8759   4
   1  -4   1 1810.90 77.7959   3
   1  -4   2 87.2987 24.1383   3
   1  -4   2 108.820 30.3350   4
  -1   4  -2 28.5909 29.6228   2
  -1   4  -3-1.96250 27.0642   2
   1  -4   3 2.55852 20.3024   3
  -1   4  -3 48.8914 12.3944   1
   1  -4   4 6633.39 191.670   4
   1  -4   4 6835.93 161.076   3
  -1   4  -4 6746.22 207.243   2
  -1   4  -4 6834.47 120.196   1
  -1   4  -5 82.5959 19.7714   1
   1  -4   5 61.2805 25.4802   3
  -1   4  -5 96.4111 41.6313   2
   1  -4   5 83.1160 35.7130   4
   1  -4   6 1446.35 101.693   4
  -1   4  -6 1579.34 74.8514   1
  -1   4  -6 1766.86 103.482   5
  -1   4  -6 1459.43 108.398   2
   1  -4   6 1606.15 84.1995   3
  -1   4  -7 925.249 81.1467   5
   1  -4   7 867.784 64.1617   3
  -1   4  -7 1252.06 106.374   2
   1  -4   7 1269.16 104.649   4
  -1   4  -8 1136.66 104.379   2
   1  -4   8 944.781 96.4920   4
  -1   4  -8 1363.78 104.362   5
  -1   4  -9 2208.65 155.148   2
   1  -4   9 2140.90 146.931   4
  -1   4 -10 340.493 72.0610   2
   1  -4  10 332.277 68.1449   4
  -1   4 -11 19.2032 41.6080   2
   1  -4  11-34.3852 43.6439   4
  -1   4 -12 34.2240 45.6122   2
   1  -4  12 107.214 64.4681   4
   1  -4  13 101.225 52.7252   4
  -1   4 -13 169.362 64.7928   2
   1  -4  14 319.648 87.3616   4
  -1   4 -14 225.874 70.8248   2
  -1   4 -15 171.085 61.2411   2
   1  -4  15 167.579 69.7982   4
   1  -3 -18 586.936 105.614   1
   1  -3 -17 202.603 63.8269   1
   1  -3 -16 476.919 88.6668   1
   1  -3 -15 1240.45 130.154   1
   1  -3 -14 460.194 78.7228   1
   1  -3 -13 324.786 63.3891   1
   1  -3 -12-6.16448 33.0668   1
   1  -3 -11 121.562 32.6672   2
   1  -3 -11 113.219 44.5372   1
   1  -3 -10 258.763 38.9026   2
  -1   3  10 380.096 41.4592   3
   1  -3 -10 316.254 59.4032   1
   1  -3  -9 883.383 83.3827   1
  -1   3   9 731.234 54.2325   3
   1  -3  -9 605.288 51.3156   2
   1  -3  -8 4816.18 178.236   1
  -1   3   8 4908.28 127.520   3
   1  -3  -8 4698.60 125.103   2
   1  -3  -7 906.354 50.7868   2
   1  -3  -7 932.793 77.4039   1
   1  -3  -7 890.006 71.0547   4
   1  -3  -6 7564.11 184.817   4
   1  -3  -6 7610.07 194.650   1
   1  -3  -6 7173.02 127.069   2
   1  -3  -5 3222.81 117.090   1
   1  -3  -5 3277.32 76.7300   2
   1  -3  -5 3273.17 114.899   4
   1  -3  -4 1153.86 65.3557   1
   1  -3  -4 1264.43 42.1443   2
   1  -3  -4 1194.65 66.0483   4
   1  -3  -3 12520.2 181.265   3
   1  -3  -3 12128.3 182.704   4
   1  -3  -3 12812.8 124.595   2
   1  -3  -3 12233.3 178.495   1
   1  -3  -2 44935.9 331.000   3
   1  -3  -2 44676.5 285.226   1
   1  -3  -2 44974.8 325.580   4
   1  -3  -2 44302.2 249.394   2
   1  -3  -1 6179.09 126.450   3
   1  -3  -1 5644.20 115.499   4
   1  -3   0 2292.02 77.4674   3
   1  -3   0 2155.22 76.2207   4
   1  -3   1 3300.47 94.4844   3
   1  -3   1 4783.30 117.893   4
   1  -3   2 3521.89 106.941   4
   1  -3   2 2654.32 85.9775   3
   1  -3   3 1131.72 70.3767   4
   1  -3   3 856.643 51.6552   3
  -1   3  -3 1076.67 72.9909   2
  -1   3  -3 1130.06 41.8857   1
  -1   3  -4 20.4264 12.0287   1
   1  -3   4 8.23460 21.7389   4
   1  -3   4-5.81186 17.0542   3
  -1   3  -4 27.2806 26.2658   2
   1  -3   5 783.358 51.9864   3
  -1   3  -5 511.253 40.2999   1
  -1   3  -5 705.244 71.8498   2
   1  -3   5 720.974 67.8652   4
  -1   3  -6 3252.01 108.956   1
   1  -3   6 3220.20 109.311   3
  -1   3  -6 3128.23 149.097   2
   1  -3   6 3175.83 143.254   4
  -1   3  -7 3224.15 118.678   1
   1  -3   7 3019.94 150.057   4
  -1   3  -7 3253.39 160.240   2
   1  -3   7 2938.68 108.784   3
  -1   3  -8 4316.79 194.759   2
  -1   3  -8 4242.72 147.413   1
   1  -3   8 4489.09 192.915   4
  -1   3  -9 3987.76 154.508   1
  -1   3  -9 4095.32 194.810   2
  -1   3  -9 4389.63 188.704   5
   1  -3   9 3811.77 190.097   4
  -1   3 -10 697.476 90.2260   2
   1  -3  10 529.537 80.0760   4
  -1   3 -11 2028.09 151.688   2
   1  -3  11 2079.14 158.163   4
   1  -3  12 466.758 84.4725   4
  -1   3 -12 690.469 98.6214   2
   1  -3  13 231.432 72.4784   4
  -1   3 -13 306.987 72.1718   2
   1  -3  14 74.5587 51.9929   4
  -1   3 -14 64.2802 41.1834   2
   1  -3  15 22.5428 47.5707   4
  -1   3 -15 31.4128 48.9166   2
   1  -2 -18 315.745 82.1329   1
   1  -2 -17 296.473 73.0822   1
   1  -2 -16 39.7678 40.8540   1
   1  -2 -15 388.812 75.5785   1
   1  -2 -14 52.1474 40.3205   1
   1  -2 -13 6.86352 35.8040   1
   1  -2 -12 33.4982 38.5632   1
   1  -2 -12-11.7385 24.4788   2
   1  -2 -11-2.69396 26.9962   2
   1  -2 -11-0.34083 32.4132   1
   1  -2 -10 131.877 38.1790   1
   1  -2 -10 86.2661 29.8489   2
   1  -2  -9 1332.44 83.8351   2
  -1   2   9 1302.28 65.9750   3
   1  -2  -9 1322.42 100.843   1
  -1   2   8 193.366 27.2134   3
   1  -2  -8 296.828 35.7056   2
   1  -2  -8 304.266 49.1004   1
   1  -2  -7 2594.18 97.6104   2
   1  -2  -7 2578.42 122.468   1
  -1   2   6 14.2995 12.4058   3
   1  -2  -6 25.0902 19.8214   1
   1  -2  -6 41.0700 20.5048   2
   1  -2  -5 11380.3 214.222   1
   1  -2  -5 11448.9 208.242   4
   1  -2  -5 10802.5 151.149   2
   1  -2  -4 17832.6 236.243   4
   1  -2  -4 18202.3 242.535   1
   1  -2  -4 18145.4 177.634   2
   1  -2  -3 3766.13 100.307   1
   1  -2  -3 4052.66 73.2962   2
   1  -2  -3 3804.78 98.6486   4
   1  -2  -2 151.060 22.0491   4
   1  -2  -2 159.159 20.9217   1
   1  -2  -2 156.276 22.5942   3
   1  -2  -1-9.00667 10.9733   2
   1  -2  -1 0.67422 17.3672   3
   1  -2  -1 11.3365 13.6952   4
   1  -2   0 633.342 36.0839   4
   1  -2   0 714.326 38.7897   3
   1  -2   1 18.9110 15.8150   4
   1  -2   1-9.71804 17.4519   3
   1  -2   2 363.521 35.4316   4
   1  -2   2 254.831 27.1611   3
   1  -2   3 260.085 35.4580   4
  -1   2  -3 281.471 24.1836   1
   1  -2   3 195.238 26.0658   3
  -1   2  -4-8.60955 24.1877   2
   1  -2   4 26.8071 25.6872   4
  -1   2  -4 3.84548 11.6682   1
   1  -2   4-0.56126 17.0440   3
  -1   2  -5 4516.65 158.615   2
   1  -2   5 4671.54 119.007   3
  -1   2  -5 4727.48 119.865   1
   1  -2   5 4629.13 150.547   4
   1  -2   6 10985.0 191.472   3
  -1   2  -6 10876.9 257.972   2
   1  -2   6 10971.0 252.388   4
  -1   2  -6 11312.5 205.267   1
  -1   2  -7 1486.03 104.924   2
  -1   2  -7 1698.98 102.673   5
   1  -2   7 1542.48 76.5415   3
  -1   2  -7 1572.27 85.6036   1
   1  -2   7 1586.57 106.166   4
  -1   2  -8 5287.95 166.288   1
   1  -2   8 5259.15 201.433   4
   1  -2   8 4776.05 139.261   3
  -1   2  -8 4935.98 193.272   2
  -1   2  -9 4386.87 184.696   5
   1  -2   9 4103.36 188.045   4
  -1   2  -9 4153.99 159.393   1
  -1   2  -9 3966.70 181.391   2
   1  -2  10 911.079 100.513   4
  -1   2 -10 907.566 98.1677   2
  -1   2 -10 957.946 97.0562   5
  -1   2 -10 858.840 78.8237   1
   1  -2  11 55.1432 43.5658   4
  -1   2 -11-2.65057 31.8637   2
  -1   2 -12 547.493 82.6969   2
   1  -2  12 434.740 83.5352   4
   1  -2  13 189.903 66.0925   4
  -1   2 -13 114.281 44.1054   2
   1  -2  14 138.150 57.8479   4
  -1   2 -14 9.48966 38.1440   2
   1  -2  15 57.8563 59.2368   4
   1  -2  16 5.28489 48.3420   4
  -1   1  17-198.511 77.1422   4
   1  -1 -16-4.81064 40.3599   1
   1  -1 -15 51.4183 41.2736   1
   1  -1 -14 79.6268 48.6740   1
   1  -1 -13 192.920 54.7744   1
   1  -1 -12-10.2649 32.7730   2
   1  -1 -12 22.9703 34.7408   1
   1  -1 -11 1383.74 113.607   1
   1  -1 -11 1573.17 111.176   2
   1  -1 -10 3246.12 148.265   2
   1  -1 -10 3405.42 166.813   1
   1  -1  -9 1778.34 113.626   1
   1  -1  -9 1846.84 106.118   2
  -1   1   8 1720.47 66.6948   3
   1  -1  -8 1803.39 109.151   1
   1  -1  -8 1749.64 97.2948   2
   1  -1  -7 4525.53 143.494   2
   1  -1  -7 4309.53 153.862   1
  -1   1   7 4269.27 96.3221   3
  -1   1   6 2269.06 64.6606   3
   1  -1  -6 2388.10 106.666   1
   1  -1  -6 2327.61 95.1495   2
  -1   1   5 1191.67 43.5324   3
   1  -1  -5 1188.87 72.4052   1
   1  -1  -5 1233.55 62.1833   2
   1  -1  -4 418.422 35.4495   2
   1  -1  -4 496.891 43.2827   1
   1  -1  -3 16599.7 200.105   4
   1  -1  -3 15950.7 199.606   1
   1  -1  -2 5391.50 99.7187   1
   1  -1  -2 5592.61 84.9634   2
   1  -1  -2 5486.64 98.2501   4
   1  -1   1 2205.44 56.3637   3
   1  -1   2 29.4012 15.5308   4
   1  -1   2 39.8283 16.0732   3
  -1   1  -3 1510.89 53.1156   1
   1  -1   3 1547.01 67.1543   4
  -1   1  -4 4089.06 126.609   2
   1  -1   4 4294.32 123.295   4
   1  -1   5 2563.54 106.570   4
  -1   1  -5 2444.90 89.2314   1
  -1   1  -5 2342.84 103.660   2
   1  -1   6 3750.50 109.719   3
  -1   1  -6 3560.24 139.117   2
   1  -1   6 3820.85 139.919   4
  -1   1  -6 3836.69 123.861   1
  -1   1  -7 3417.99 127.904   1
  -1   1  -7 3413.98 138.470   5
   1  -1   7 3135.71 139.022   4
  -1   1  -7 3159.59 139.575   2
   1  -1   7 3220.34 106.762   3
  -1   1  -8 1954.75 117.945   2
  -1   1  -8 2083.77 108.186   1
  -1   1  -8 1929.66 112.032   5
   1  -1   8 1829.34 114.765   4
   1  -1   8 1868.54 87.2280   3
  -1   1  -9 609.316 69.3289   5
   1  -1   9 955.898 92.4918   4
  -1   1  -9 822.026 82.8402   2
   1  -1   9 598.831 54.8091   3
  -1   1  -9 807.435 73.6893   1
  -1   1 -10 1702.75 120.788   5
   1  -1  10 1674.77 127.009   4
  -1   1 -10 1824.14 124.968   2
  -1   1 -10 1972.13 118.444   1
  -1   1 -11-5.90659 29.8043   2
   1  -1  11 82.9184 38.9409   4
  -1   1 -11 25.9795 28.2941   1
  -1   1 -12-23.3585 31.7165   2
  -1   1 -12 43.8851 34.8848   1
   1  -1  12 11.3575 39.9707   4
   1  -1  13 504.287 89.7327   4
  -1   1 -13 193.704 49.9770   2
  -1   1 -14 83.0987 47.6902   2
   1  -1  14 156.691 59.8524   4
   1  -1  15 19.9432 49.8642   4
   1  -1  16 26.6275 48.5720   4
   1  -1  17 198.853 71.4458   4
  -1   0  16 97.4204 63.9890   4
  -1   0  15 14.5076 54.9346   4
   1   0 -15 18.7388 37.0344   1
   1   0 -14 76.4940 47.0719   1
  -1   0  14 0.91839 56.3781   4
   1   0 -13 114.099 47.4492   2
   1   0 -13 158.584 55.2027   1
   1   0 -12 62.7653 43.0413   2
   1   0 -12 68.7328 40.9937   1
   1   0 -11 1098.87 102.092   2
   1   0 -11 1303.86 110.365   1
   1   0 -10 5854.44 217.280   1
   1   0 -10 5940.93 215.401   2
   1   0  -9 4420.91 175.183   2
   1   0  -9 4361.67 176.701   1
   1   0  -8 2739.79 130.007   2
   1   0  -8 2842.25 134.917   1
   1   0  -7 3034.20 129.233   2
  -1   0   7 3112.07 76.2796   3
   1   0  -7 3276.52 136.856   1
   1   0  -6 179.317 35.7004   2
  -1   0   6 122.835 16.4637   3
   1   0  -6 177.988 32.4221   1
   1   0  -5 5084.53 142.028   1
   1   0  -5 4949.45 139.157   2
   1   0  -4 6013.34 141.141   1
   1   0  -4 6121.97 140.292   2
   1   0  -3 76.8197 20.8779   2
   1   0  -3 45.1741 18.4452   1
   1   0  -2 4.93433 15.8049   1
   1   0  -2 35.2703 23.8912   2
   1   0   2 699.546 34.5609   3
  -1   0  -2 708.224 32.1185   1
  -1   0  -3 19676.9 192.624   1
   1   0   3 19180.7 191.016   3
   1   0   4 1338.86 58.0699   3
  -1   0  -4 1251.66 59.0763   1
  -1   0  -5 7184.67 159.671   2
  -1   0  -5 7559.18 157.535   1
  -1   0  -6 4497.10 140.420   2
  -1   0  -6 4737.35 139.948   1
   1   0   6 4638.82 121.263   3
  -1   0  -7 6673.00 178.584   1
   1   0   7 6316.67 149.499   3
  -1   0  -7 6339.89 179.653   2
   1   0   8 2637.78 101.592   3
  -1   0  -8 2648.45 123.054   1
  -1   0  -8 2676.31 127.685   5
  -1   0  -8 2564.04 124.069   2
  -1   0  -9 1627.89 105.506   2
   1   0   9 1733.11 88.0707   3
  -1   0  -9 1858.39 110.522   1
  -1   0  -9 1840.26 114.859   5
  -1   0 -10 1032.52 88.0404   1
  -1   0 -10 969.025 89.0677   2
  -1   0 -10 1061.77 94.6612   5
  -1   0 -11 95.7448 30.8564   1
  -1   0 -11 62.9500 30.9925   5
  -1   0 -12 288.035 55.8967   1
  -1   0 -12 379.900 64.2246   2
   1   0  13 225.883 61.0769   4
  -1   0 -13 180.820 44.4280   1
  -1   0 -13 269.941 58.6219   2
  -1   0 -14 122.565 48.4775   1
   1   0  14 13.5313 44.7618   4
   1   0  15 112.073 57.2216   4
   1   0  16 300.207 82.1675   4
   1   0  17 375.295 88.8924   4
  -1  -1  16 107.936 72.1036   4
  -1  -1  15-17.4319 47.7996   4
   1   1 -14 17.2308 41.1496   2
  -1  -1  14 85.5858 57.6530   4
  -1  -1  13 82.8487 56.5234   4
   1   1 -13-16.6459 29.0650   2
   1   1 -13 25.6820 40.0349   1
   1   1 -12 445.795 73.2157   2
   1   1 -12 561.329 77.3530   1
  -1  -1  12 481.871 85.5256   4
  -1  -1  11 592.989 87.3556   4
   1   1 -11 786.605 94.3063   2
   1   1 -11 796.615 88.5655   1
   1   1 -10 2611.30 152.624   2
   1   1 -10 2511.77 143.362   1
   1   1  -9 609.699 73.2115   2
   1   1  -9 613.347 67.4463   1
   1   1  -8 2474.29 133.947   2
   1   1  -8 2388.13 122.296   1
   1   1  -7 1143.46 80.1769   1
   1   1  -7 1033.81 80.8093   2
   1   1  -6 8123.26 210.040   2
   1   1  -6 8567.51 201.252   1
   1   1  -5 3898.90 137.029   2
   1   1  -5 4005.28 127.710   1
   1   1  -4 1306.11 74.3466   2
   1   1  -4 1250.65 66.8604   1
   1   1  -3 8.62998 21.7095   2
   1   1  -3 6.65725 17.8160   1
   1   1  -2 3251.84 93.4725   2
   1   1  -2 3258.58 83.1126   1
   1   1  -1 341.460 26.0989   1
   1   1  -1 282.023 26.9344   2
   1   1   2 3630.48 73.4428   3
  -1  -1  -2 3693.94 74.4104   1
  -1  -1  -3 533.193 35.6645   1
   1   1   3 495.852 33.8853   3
   1   1   4 5418.86 112.976   3
  -1  -1  -4 5757.22 126.228   1
  -1  -1  -5 6064.21 129.292   2
  -1  -1  -5 5860.88 141.208   1
   1   1   6 5575.45 132.415   3
  -1  -1  -6 5443.12 139.210   2
  -1  -1  -6 5630.03 152.915   1
  -1  -1  -7 8778.78 190.703   2
  -1  -1  -7 8849.75 207.992   1
   1   1   7 8585.42 171.849   3
   1   1   8 2724.01 104.671   3
  -1  -1  -8 2785.36 126.152   1
  -1  -1  -8 2653.30 113.953   2
  -1  -1  -8 2972.65 128.858   5
   1   1   9 6062.01 165.389   3
  -1  -1  -9 6027.44 181.769   2
  -1  -1  -9 6391.31 203.946   1
  -1  -1  -9 6348.05 203.864   5
  -1  -1 -10 311.021 51.4264   2
   1   1  10 244.335 40.2103   3
  -1  -1 -10 328.916 55.9160   1
  -1  -1 -10 251.368 47.9657   5
  -1  -1 -11 308.010 53.7440   1
  -1  -1 -11 360.698 59.1425   5
  -1  -1 -11 279.601 47.5993   2
  -1  -1 -12 351.007 59.6811   2
  -1  -1 -12 238.409 54.4899   1
  -1  -1 -13 531.230 74.8625   1
  -1  -1 -14 120.728 49.3870   1
   1   1  15 230.693 71.5136   4
  -1  -1 -15-8.35022 30.5969   1
   1   1  16 338.622 80.6279   4
   1   1  17 400.852 92.5149   4
   1   1  18 193.437 74.4108   4
  -1  -2  15 45.0305 59.4588   4
  -1  -2  14 148.484 67.8713   4
   1   2 -14 102.046 48.8497   2
   1   2 -13 46.7252 38.6523   2
  -1  -2  13 2.56293 43.8186   4
  -1  -2  12 94.3389 51.1796   4
   1   2 -12 94.0515 51.9298   2
   1   2 -12 128.498 54.0081   1
   1   2 -11 1242.19 106.856   1
  -1  -2  11 1021.83 118.659   4
   1   2 -11 1245.08 118.867   2
   1   2 -10 1929.04 125.268   1
   1   2 -10 2136.48 145.255   2
  -1  -2  10 1970.55 147.705   4
  -1  -2   9 1631.13 126.897   4
   1   2  -9 1695.54 111.034   1
   1   2  -9 1741.52 127.038   2
   1   2  -8 969.136 91.8684   2
  -1  -2   8 1263.06 107.858   4
   1   2  -8 1028.12 83.6513   1
  -1  -2   7 964.373 87.5468   4
   1   2  -7 924.220 74.9733   1
   1   2  -7 976.071 86.8495   2
  -1  -2   6 902.625 81.3837   4
   1   2  -6 808.563 63.9603   1
   1   2  -6 802.826 78.3956   2
  -1  -2   6 609.707 31.5730   3
  -1  -2   5 1436.73 94.2636   4
   1   2  -5 1548.14 81.8639   1
   1   2  -5 1404.73 91.4517   2
  -1  -2   4 1463.81 86.8670   4
   1   2  -4 1458.48 71.3897   1
   1   2  -4 1479.63 85.9847   2
  -1  -2   3 661.215 54.4541   4
   1   2  -3 588.754 51.9218   2
   1   2  -3 495.264 39.8582   1
   1   2  -2 1507.96 61.1889   1
  -1  -2   2 1502.81 72.5540   4
  -1  -2   1 7372.43 130.057   4
   1   2  -1 7265.97 138.552   2
   1   2  -1 7219.39 112.458   1
   1   2   0 7692.07 119.918   2
  -1  -2   0 7622.65 110.321   4
   1   2   1 620.244 27.6847   2
   1   2   2 18688.3 180.793   3
  -1  -2  -2 19315.2 180.784   1
   1   2   3 1850.00 64.5006   3
  -1  -2  -3 1968.22 57.0032   4
  -1  -2  -3 1998.10 68.1422   1
   1   2   4 997.830 52.4235   3
  -1  -2  -4 1002.98 47.7580   4
  -1  -2  -5 116.192 20.8347   2
  -1  -2  -5 114.614 26.3203   1
   1   2   5 98.0985 21.7423   3
   1   2   6 5521.53 133.200   3
  -1  -2  -6 5512.16 120.578   2
  -1  -2  -6 5814.36 158.054   1
   1   2   7 7064.02 160.063   3
  -1  -2  -7 7188.02 190.634   1
  -1  -2  -7 6753.79 148.507   2
  -1  -2  -8 4511.15 162.999   1
  -1  -2  -8 4046.18 126.543   2
   1   2   8 4440.19 137.505   3
  -1  -2  -9 1144.03 73.4173   2
  -1  -2  -9 1374.31 97.8645   1
   1   2   9 1260.46 77.1249   3
  -1  -2  -9 1206.81 87.0088   5
  -1  -2 -10 72.5669 30.5617   1
  -1  -2 -10 39.5838 22.2711   2
  -1  -2 -10 139.447 42.2583   5
   1   2  10 42.6706 22.0244   3
  -1  -2 -11 1085.55 96.6123   5
  -1  -2 -11 873.248 75.8798   2
  -1  -2 -11 888.226 89.2601   1
   1   2  11 698.615 65.4050   3
  -1  -2 -12 96.1371 40.1908   1
  -1  -2 -13 12.4798 33.0005   1
  -1  -2 -14 199.565 60.3387   1
  -1  -2 -15 196.759 58.3296   1
  -1  -2 -16 5.33393 31.4584   1
   1   2  17 383.643 87.3705   4
  -1  -2 -17 555.149 93.5049   1
   1   2  18 653.185 114.152   4
  -1  -3  15 85.4664 59.5001   4
   1   3 -15-11.5606 42.1176   2
   1   3 -14 42.6873 34.2995   2
  -1  -3  14 311.945 81.8267   4
  -1  -3  13 610.276 103.592   4
   1   3 -13 632.794 98.1870   2
   1   3 -12 357.968 75.8152   2
  -1  -3  12 323.048 77.8231   4
   1   3 -11 1825.00 151.526   2
  -1  -3  11 1851.34 152.781   4
  -1  -3  10 2112.41 159.304   4
   1   3 -10 2243.41 158.897   2
   1   3 -10 2400.65 140.618   1
   1   3  -9 2479.02 159.924   2
   1   3  -9 2442.41 133.515   1
  -1  -3   9 2281.63 153.769   4
   1   3  -8 655.600 81.3926   2
   1   3  -8 856.346 77.3994   1
  -1  -3   8 616.076 80.1287   4
   1   3  -7 1189.38 83.3267   1
  -1  -3   7 1252.90 105.053   4
   1   3  -7 1102.65 100.410   2
   1   3  -6 1837.76 119.315   2
   1   3  -6 2050.55 101.554   1
  -1  -3   6 2047.83 122.143   4
  -1  -3   5 59.2727 14.2490   3
  -1  -3   5 127.094 38.4614   4
   1   3  -5 83.8386 32.1394   2
   1   3  -5 87.4467 25.1382   1
   1   3  -4 90.0374 24.5836   1
  -1  -3   4 36.3169 28.7008   4
   1   3  -4 88.9686 29.4819   2
  -1  -3   4 42.4370 13.0299   3
   1   3  -3 120.800 22.7735   1
  -1  -3   3 127.818 19.2762   3
  -1  -3   3 170.288 39.5650   4
   1   3  -3 65.6559 29.4539   2
  -1  -3   2 522.342 32.6082   3
   1   3  -2 555.536 52.0316   2
  -1  -3   2 624.654 50.3290   4
   1   3  -2 393.022 32.6708   1
   1   3  -1 2971.18 77.4286   1
  -1  -3   1 3073.72 98.0809   4
   1   3  -1 3519.78 110.093   2
   1   3   0 80.3176 21.6164   2
  -1  -3   0 76.0061 20.1081   4
   1   3   1 396.988 31.7614   2
  -1  -3  -1 410.862 34.2766   4
  -1  -3  -2 172.739 21.8949   4
  -1  -3  -2 203.880 24.7675   1
  -1  -3  -3 36.6243 18.8572   1
  -1  -3  -3 20.3382 16.4552   4
   1   3   4 19184.9 230.135   3
  -1  -3  -4 19144.1 212.457   4
   1   3   5 4147.05 113.992   3
  -1  -3  -5 3940.05 120.084   1
  -1  -3  -6 3211.66 107.599   4
  -1  -3  -6 3327.01 76.8431   2
  -1  -3  -6 3326.62 121.627   1
   1   3   6 3184.90 107.531   3
  -1  -3  -7 104.002 26.2399   1
  -1  -3  -7 84.1725 18.3175   2
   1   3   7 113.454 29.7570   3
  -1  -3  -8 260.595 47.8995   1
  -1  -3  -8 238.477 30.1701   2
   1   3   8 251.851 36.5632   3
  -1  -3  -9 259.790 42.9123   5
  -1  -3  -9 151.578 25.8690   2
  -1  -3  -9 218.624 40.4216   1
   1   3   9 267.762 42.2212   3
  -1  -3 -10 684.241 76.1348   1
  -1  -3 -10 634.575 54.5523   2
   1   3  10 623.584 61.1795   3
  -1  -3 -10 704.315 69.8629   5
  -1  -3 -11 572.515 70.1707   5
  -1  -3 -11 538.899 70.3176   1
   1   3  11 415.324 53.4101   3
  -1  -3 -12-5.39552 30.4101   5
  -1  -3 -12 64.4399 38.6372   1
  -1  -3 -13 82.3288 40.1430   1
  -1  -3 -14 376.905 71.8387   1
  -1  -3 -15 433.965 80.8904   1
  -1  -3 -16 446.280 81.7773   1
  -1  -3 -17 354.205 75.1425   1
  -1  -3 -18 757.329 111.665   1
   1   3  19 275.403 83.4267   4
   1   4 -15 73.6058 58.1911   2
   1   4 -14 127.403 63.2662   2
  -1  -4  14 100.575 58.1629   4
  -1  -4  13 220.703 76.6804   4
   1   4 -13 412.253 87.8524   2
   1   4 -12 619.711 102.370   2
  -1  -4  12 527.973 98.2883   4
   1   4 -11 1025.60 119.530   2
  -1  -4  11 1182.53 129.957   4
   1   4 -10 2631.86 179.121   2
  -1  -4  10 2252.21 167.063   4
  -1  -4   9 2388.10 163.897   4
   1   4  -9 2790.25 176.252   2
  -1  -4   8 161.428 50.8568   4
   1   4  -8 235.702 54.3547   2
   1   4  -8 229.480 47.0778   1
   1   4  -7 759.920 87.1689   2
  -1  -4   7 827.789 91.2431   4
   1   4  -7 703.048 66.1075   1
   1   4  -6 45.0654 29.3424   2
   1   4  -6 91.7056 29.7466   1
  -1  -4   6 27.8450 30.9999   4
   1   4  -5 200.549 29.9876   1
   1   4  -5 241.327 53.0658   2
  -1  -4   5 245.444 48.8928   4
   1   4  -4 35.1739 31.0532   2
  -1  -4   4 19.6098 28.7367   4
  -1  -4   4 16.8674 13.8585   3
   1   4  -4-3.87318 15.9405   1
  -1  -4   3 350.850 48.5448   4
   1   4  -3 350.330 35.3881   1
  -1  -4   3 332.676 32.5212   3
   1   4  -3 374.070 49.7829   2
   1   4  -2 1332.88 60.3529   1
   1   4  -2 1944.87 100.668   2
  -1  -4   2 1299.67 56.6327   3
  -1  -4   2 1937.62 96.2427   4
   1   4  -1 17011.4 262.476   2
  -1  -4   1 16654.3 246.345   4
   1   4   0 1207.28 65.6942   2
  -1  -4   0 1294.74 67.2772   4
   1   4   1 15332.1 202.494   2
  -1  -4  -1 15852.4 213.368   4
  -1  -4  -2 8231.34 137.198   1
   1   4   2 8111.80 124.706   2
  -1  -4  -3 4569.49 109.768   4
  -1  -4  -3 6490.40 131.675   1
  -1  -4  -4 324.162 36.4007   1
  -1  -4  -4 301.368 33.1160   4
  -1  -4  -5 131.938 32.9306   1
  -1  -4  -5 112.579 27.8236   4
   1   4   6 4682.82 133.866   3
  -1  -4  -6 4578.35 129.331   4
  -1  -4  -6 4589.91 145.998   1
   1   4   7 6141.79 162.583   3
  -1  -4  -7 6337.54 165.821   4
  -1  -4  -7 6136.71 93.4322   2
  -1  -4  -7 6648.29 187.075   1
  -1  -4  -8 1538.85 89.9635   4
  -1  -4  -8 1425.25 54.5730   2
   1   4   8 1540.66 87.2522   3
  -1  -4  -8 1566.67 100.243   1
   1   4   9 740.340 63.9439   3
  -1  -4  -9 826.913 76.7535   1
  -1  -4  -9 710.890 44.5919   2
  -1  -4 -10 95.5288 33.7460   1
   1   4  10 100.502 34.8924   3
  -1  -4 -10 97.1782 31.4393   5
  -1  -4 -11 1317.34 107.561   1
   1   4  11 1395.61 94.1862   3
  -1  -4 -11 1357.54 100.285   5
   1   4  12 450.756 60.4785   3
  -1  -4 -12 530.470 75.8919   1
  -1  -4 -12 625.516 74.2558   5
  -1  -4 -13 965.019 103.009   1
  -1  -4 -14 2083.10 156.431   1
  -1  -4 -15 620.430 90.0895   1
  -1  -4 -16 674.077 99.0257   1
  -1  -4 -17 764.523 112.324   1
  -1  -4 -18 594.275 103.756   1
  -1  -4 -19 432.082 97.4058   1
   1   5 -14 36.4086 57.0532   2
   1   5 -13 66.0943 55.4315   2
  -1  -5  13 98.6873 61.3904   4
  -1  -5  12 160.674 61.5103   4
   1   5 -12 356.293 87.6102   2
   1   5 -11 190.888 67.6229   2
  -1  -5  11 142.990 60.9149   4
  -1  -5  10 592.073 96.2844   4
   1   5 -10 630.102 102.228   2
  -1  -5   9 477.638 82.7488   4
   1   5  -9 449.471 84.2601   2
   1   5  -8 517.308 80.0150   2
  -1  -5   8 417.464 74.1259   4
  -1  -5   7 69.6549 46.6567   4
   1   5  -7 46.0825 46.4183   2
   1   5  -6 6.94030 19.3043   1
  -1  -5   6-19.3491 37.7217   4
   1   5  -6-69.3202 44.1777   2
   1   5  -5 783.743 84.0239   2
   1   5  -5 891.592 64.0966   1
  -1  -5   5 754.170 79.0910   4
  -1  -5   4 569.595 66.4045   4
   1   5  -4 476.266 64.8418   2
  -1  -5   4 403.601 37.4102   3
   1   5  -4 500.233 44.9822   1
   1   5  -3 448.451 38.3716   1
  -1  -5   3 314.051 34.2087   3
  -1  -5   3 458.384 58.7473   4
   1   5  -3 427.539 61.3032   2
   1   5  -2 8481.20 220.555   2
  -1  -5   2 8508.18 209.902   4
   1   5  -1 3644.69 136.088   2
  -1  -5   1 3468.06 125.355   4
   1   5   0 7727.05 178.340   2
  -1  -5   0 7948.58 181.578   4
  -1  -5  -1 4468.09 129.452   4
   1   5   1 4321.27 120.707   2
  -1  -5  -2 5649.14 138.120   4
  -1  -5  -2 5249.17 117.352   1
   1   5   3 385.663 29.7062   2
  -1  -5  -3 445.561 40.4962   4
  -1  -5  -3 449.485 38.7824   1
  -1  -5  -4 2154.65 87.2910   1
  -1  -5  -4 2233.11 89.0954   4
  -1  -5  -5 2255.09 91.0111   4
  -1  -5  -5 2331.47 97.9883   1
  -1  -5  -6 165.007 30.7326   4
  -1  -5  -6 197.140 34.8478   1
   1   5   7 616.256 59.5581   3
  -1  -5  -7 625.207 62.8516   1
  -1  -5  -7 636.057 57.7660   4
  -1  -5  -8 1374.13 86.8676   4
   1   5   8 1275.04 81.4606   3
  -1  -5  -8 1295.98 91.9708   1
  -1  -5  -9 77.7632 37.2350   1
   1   5   9 42.9606 26.7872   3
  -1  -5  -9 58.9781 29.7234   4
  -1  -5 -10 2169.85 131.921   1
  -1  -5 -10 2324.17 125.251   4
   1   5  10 2117.33 113.078   3
  -1  -5 -10 2257.74 115.852   5
  -1  -5 -11 393.416 68.8444   1
  -1  -5 -11 420.623 56.1612   5
   1   5  11 479.596 59.8881   3
  -1  -5 -12 1260.37 109.585   1
  -1  -5 -12 1463.39 107.316   5
   1   5  12 1412.55 101.077   3
  -1  -5 -13 1194.11 113.258   1
   1   5  13 1125.85 95.8102   3
  -1  -5 -14 1372.23 129.010   1
  -1  -5 -15 97.9447 50.0369   1
  -1  -5 -16 460.787 86.6255   1
  -1  -5 -17 488.995 94.1923   1
  -1  -5 -18 296.125 76.1168   1
  -1  -5 -19 239.449 73.5178   1
   1   6 -13 63.4327 58.5599   2
  -1  -6  13 99.9836 64.8059   4
   1   6 -12 30.9657 61.0050   2
  -1  -6  12 10.0071 63.1646   4
   1   6 -11 518.619 102.823   2
  -1  -6  11 544.087 100.106   4
  -1  -6  10 398.663 79.4585   4
   1   6 -10 467.500 94.3790   2
  -1  -6   9 24.1993 39.4010   4
   1   6  -9 36.0610 46.3664   2
   1   6  -8-13.5692 43.8350   2
  -1  -6   8 75.9923 44.8302   4
   1   6  -7 143.920 56.8634   2
  -1  -6   7 78.7812 38.9850   4
  -1  -6   6 64.7291 41.8586   4
   1   6  -6 72.4216 44.9848   2
  -1  -6   5 890.060 94.3174   4
   1   6  -5 791.728 92.8355   2
  -1  -6   4 76.4110 30.9231   4
   1   6  -4 96.9871 22.6520   1
   1   6  -4 57.2455 30.7261   2
   1   6  -3 117.751 22.0304   1
   1   6  -3 280.148 53.6744   2
  -1  -6   3 159.823 28.9876   3
  -1  -6   3 228.544 45.5373   4
   1   6  -2 1744.69 110.312   2
  -1  -6   2 1795.76 104.991   4
  -1  -6   2 1883.74 86.6313   3
   1   6  -1 1912.80 107.122   2
  -1  -6   1 1862.85 101.984   4
   1   6   0 5760.52 170.731   2
  -1  -6   0 6150.87 175.114   4
  -1  -6  -1 5980.55 126.214   1
   1   6   1 6033.79 160.105   2
  -1  -6  -1 6529.87 174.234   4
  -1  -6  -2 4001.91 106.151   1
   1   6   2 4255.91 121.077   2
  -1  -6  -2 4440.02 137.844   4
  -1  -6  -3 9993.36 200.653   4
  -1  -6  -3 8960.17 168.910   1
  -1  -6  -4 351.669 39.2226   1
   1   6   4 293.275 26.1044   2
  -1  -6  -4 342.018 41.7134   4
  -1  -6  -5-11.6343 23.0307   1
  -1  -6  -5 12.8968 22.8109   4
  -1  -6  -6 723.240 62.5528   1
  -1  -6  -6 798.327 61.2233   4
  -1  -6  -7 618.844 59.6531   1
  -1  -6  -7 603.088 57.9680   4
   1   6   8 173.297 39.7233   3
  -1  -6  -8 159.366 35.4225   4
  -1  -6  -8 103.154 33.9018   1
   1   6   9 2789.93 129.471   3
  -1  -6  -9 2661.37 139.233   1
  -1  -6  -9 2725.71 130.028   4
  -1  -6 -10 2289.54 138.355   1
  -1  -6 -10 2340.23 125.784   4
   1   6  10 2266.44 121.040   3
  -1  -6 -11 4838.88 174.095   5
  -1  -6 -11 4818.29 190.815   4
   1   6  11 4737.21 176.733   3
  -1  -6 -11 4795.61 206.392   1
  -1  -6 -12 329.432 66.5500   1
   1   6  12 265.326 56.9980   3
   1   6  13 1190.35 97.2358   3
  -1  -6 -13 1138.06 115.047   1
  -1  -6 -14 252.535 68.6208   1
   1   6  14 371.521 60.6967   3
  -1  -6 -15 42.3037 39.9760   1
  -1  -6 -16 60.2782 43.8291   1
  -1  -6 -17 122.400 56.6489   1
  -1  -6 -18 313.090 79.1321   1
  -1  -6 -19 95.7755 54.2306   1
   1   7 -12 282.308 85.0587   2
  -1  -7  12 389.732 96.8959   4
   1   7 -11 362.819 91.5899   2
  -1  -7  11 607.194 106.263   4
   1   7 -10 101.026 53.8858   2
  -1  -7  10 149.671 64.6393   4
  -1  -7   9 38.0273 43.5050   4
   1   7  -9 17.1656 50.6817   2
  -1  -7   8 314.838 72.6806   4
   1   7  -8 362.991 80.8895   2
   1   7  -7 1123.75 123.719   2
  -1  -7   7 1084.06 116.300   4
   1   7  -6 61.3205 46.9323   2
  -1  -7   6-8.20858 33.7833   4
  -1  -7   5 443.103 70.6880   4
   1   7  -5 379.244 73.4329   2
   1   7  -4 647.049 84.9639   2
  -1  -7   4 735.919 79.3370   4
   1   7  -3 480.388 68.9399   2
  -1  -7   3 381.097 46.0780   3
  -1  -7   3 401.378 60.3492   4
   1   7  -2 601.117 73.0184   2
  -1  -7   2 417.611 58.0926   4
   1   7  -1 2106.88 121.617   2
  -1  -7   1 2273.98 122.330   4
   1   7   0 13898.2 285.611   2
  -1  -7   0 14126.5 288.632   4
  -1  -7  -1 9296.17 169.930   1
  -1  -7  -1 10686.9 239.668   4
   1   7   1 10134.3 224.377   2
  -1  -7  -2 724.447 48.5044   1
   1   7   2 761.257 61.2346   2
  -1  -7  -2 848.918 69.0697   4
  -1  -7  -3 146.823 25.4965   1
  -1  -7  -3 122.038 34.2342   4
   1   7   3 183.743 31.9906   2
  -1  -7  -4 1041.76 73.0608   4
  -1  -7  -4 1059.98 65.1617   1
   1   7   4 687.435 45.6137   2
  -1  -7  -5 470.271 52.6828   4
  -1  -7  -5 397.529 43.8458   1
   1   7   5 387.342 27.8143   2
  -1  -7  -6 225.435 36.3403   1
  -1  -7  -6 300.354 41.4395   4
  -1  -7  -7 31.6779 25.5457   1
  -1  -7  -7 81.6050 33.3208   4
  -1  -7  -8 1463.55 94.0265   4
  -1  -7  -8 1318.21 93.6725   1
   1   7   9 1452.47 97.2892   3
  -1  -7  -9 1458.29 106.148   1
  -1  -7  -9 1435.61 96.6231   4
  -1  -7 -10 7364.73 243.222   1
   1   7  10 7374.65 221.330   3
  -1  -7 -10 7319.28 228.885   4
   1   7  11 6212.19 214.718   3
  -1  -7 -11 6414.22 222.336   4
  -1  -7 -11 6046.52 234.197   1
  -1  -7 -12 4928.72 221.783   1
   1   7  12 4766.37 189.495   3
  -1  -7 -12 4809.70 202.487   4
  -1  -7 -13 1276.94 121.885   1
   1   7  13 1079.01 96.3630   3
  -1  -7 -14-2.22500 37.9277   1
   1   7  14 9.77651 31.5872   3
  -1  -7 -15 376.573 77.2785   1
  -1  -7 -16 24.7433 41.4269   1
  -1  -7 -17 159.170 65.9902   1
  -1  -7 -18 141.269 61.1234   1
  -1  -7 -19-16.0591 33.2913   1
  -1  -8  11 566.030 110.069   4
   1   8 -11 493.251 101.979   2
  -1  -8  10 60.2902 54.5239   4
   1   8 -10 12.0074 54.4353   2
   1   8  -9 22.5738 46.2061   2
  -1  -8   9-4.72551 41.7542   4
  -1  -8   8 313.874 75.9779   4
   1   8  -8 266.408 77.7471   2
   1   8  -7 200.081 66.7332   2
  -1  -8   7 226.776 62.3131   4
  -1  -8   6 1420.12 126.723   4
   1   8  -6 1519.95 142.863   2
   1   8  -5 1316.16 126.832   2
  -1  -8   5 1111.62 109.103   4
  -1  -8   4 367.689 63.4956   4
   1   8  -4 356.404 69.4558   2
   1   8  -3 2957.47 167.575   2
  -1  -8   3 3087.65 165.140   4
   1   8  -2 138.318 47.3314   2
  -1  -8   2 196.290 49.3967   4
   1   8  -1 6311.55 220.424   2
  -1  -8   1 6597.97 221.270   4
  -1  -8   0 5006.92 183.748   4
   1   8   0 4701.78 179.434   2
   1   8   1 6438.93 194.561   2
  -1  -8  -1 6571.40 207.148   4
  -1  -8  -1 6055.89 140.941   1
  -1  -8  -2 123.325 24.2378   1
   1   8   2 194.593 37.6092   2
  -1  -8  -2 278.940 46.9217   4
  -1  -8  -3 152.733 28.7788   1
   1   8   3 164.764 35.8937   2
  -1  -8  -3 192.909 36.6944   4
  -1  -8  -4 230.130 40.8177   4
  -1  -8  -4 214.774 35.0582   1
   1   8   4 242.059 34.1694   2
   1   8   5 397.333 35.0351   2
  -1  -8  -5 419.863 51.8028   4
  -1  -8  -5 378.067 45.8121   1
   1   8   6 1.28699 8.49217   2
  -1  -8  -6 27.7098 24.4070   4
  -1  -8  -6-11.5970 22.6973   1
  -1  -8  -7 4054.44 155.307   1
  -1  -8  -7 4222.87 158.443   4
  -1  -8  -8 160.265 41.6371   4
  -1  -8  -8 67.5485 24.3458   1
  -1  -8  -9 3474.89 161.833   1
  -1  -8  -9 3592.68 157.196   4
   1   8  10 3012.45 146.497   3
  -1  -8 -10 2990.75 149.047   4
  -1  -8 -10 2914.78 155.764   1
  -1  -8 -11 2187.22 135.372   4
   1   8  11 2311.41 133.823   3
  -1  -8 -11 2237.02 146.777   1
  -1  -8 -12 3241.43 183.156   1
   1   8  12 3452.18 167.191   3
  -1  -8 -12 3373.10 174.746   4
  -1  -8 -13 2442.86 165.468   1
  -1  -8 -13 2351.81 151.628   4
   1   8  13 2500.87 148.536   3
   1   8  14 829.458 90.2031   3
  -1  -8 -14 726.067 97.2810   1
  -1  -8 -15 52.6644 42.8859   1
   1   8  15 35.7387 33.4538   3
  -1  -8 -16 68.7976 51.5837   1
  -1  -8 -17 72.0250 54.9328   1
  -1  -8 -18-17.9740 39.9599   1
  -1  -8 -19 174.429 63.6584   1
   1   9 -10 85.8068 61.5252   2
  -1  -9  10 314.258 86.9328   4
  -1  -9   9 110.662 63.2632   4
   1   9  -9 77.7560 63.7155   2
  -1  -9   8 358.977 83.2524   4
   1   9  -8 360.104 90.1367   2
  -1  -9   7 258.234 70.3170   4
   1   9  -7 196.079 79.4105   2
   1   9  -6 1022.32 125.846   2
  -1  -9   6 656.105 96.1460   4
   1   9  -5 2040.25 163.720   2
  -1  -9   5 2298.09 163.001   4
   1   9  -4 2557.90 173.872   2
  -1  -9   4 2395.47 160.740   4
  -1  -9   3 83.0642 45.2085   4
   1   9  -3 23.7473 39.1803   2
   1   9  -2 4561.50 207.809   2
  -1  -9   2 4791.74 208.146   4
   1   9  -1 3157.49 166.542   2
  -1  -9   1 3105.67 163.078   4
   1   9   0 1513.96 111.178   2
  -1  -9   0 1376.04 107.443   4
   1   9   1 2468.97 131.810   2
  -1  -9  -1 2369.75 133.542   4
  -1  -9  -2 264.908 33.9576   1
   1   9   2 362.949 51.8427   2
  -1  -9  -2 400.842 58.3756   4
  -1  -9  -3 407.872 41.9557   1
   1   9   3 598.225 61.2950   2
  -1  -9  -3 658.030 68.7556   4
  -1  -9  -4 877.879 64.1666   1
   1   9   4 1007.98 70.5270   2
  -1  -9  -4 1031.66 83.8863   4
  -1  -9  -5 85.0341 37.0911   4
  -1  -9  -5 153.272 31.7711   1
   1   9   5 107.205 22.2094   2
  -1  -9  -6 455.933 59.1542   4
  -1  -9  -6 442.174 52.9083   1
  -1  -9  -7 93.7531 30.2700   4
  -1  -9  -7 0.39991 24.4872   1
  -1  -9  -8 1335.09 96.2979   1
  -1  -9  -8 1441.09 100.900   4
  -1  -9  -9 1208.31 97.3687   1
  -1  -9  -9 1203.78 96.8084   4
  -1  -9 -10 2760.05 148.119   4
  -1  -9 -10 2526.57 146.180   1
  -1  -9 -11 1359.65 112.835   1
  -1  -9 -11 1177.72 100.034   4
   1   9  11 1274.19 105.812   3
  -1  -9 -12 2238.24 145.170   4
  -1  -9 -12 2491.10 159.439   1
   1   9  12 2306.13 144.981   3
  -1  -9 -13 301.076 60.7731   4
  -1  -9 -13 344.057 66.6196   1
   1   9  13 294.049 59.5557   3
  -1  -9 -14 1.97721 41.2017   4
  -1  -9 -14 18.1080 37.1904   1
   1   9  14 90.9435 47.7899   3
   1   9  15 231.880 60.1416   3
  -1  -9 -15 116.098 49.0693   1
  -1  -9 -15 162.225 53.8599   4
  -1  -9 -16 75.1384 61.5958   1
  -1  -9 -17 75.4749 54.4101   1
  -1  -9 -18 50.3464 40.7634   1
  -1  -9 -19 49.7843 51.4692   1
  -1 -10   9 96.1158 66.5683   4
   1  10  -9 377.009 96.4807   2
   1  10  -8 1121.64 146.822   2
  -1 -10   8 1131.75 138.077   4
   1  10  -7 1273.33 145.241   2
  -1 -10   7 1222.37 140.137   4
   1  10  -6 1116.46 133.251   2
  -1 -10   6 875.047 117.431   4
  -1 -10   5 1229.74 131.133   4
   1  10  -5 1381.48 140.876   2
   1  10  -4 1382.35 132.708   2
  -1 -10   4 1422.81 130.869   4
  -1 -10   3-7.31507 38.4588   4
   1  10  -3 3.21013 38.5851   2
  -1 -10   2 220.340 62.0635   4
   1  10  -2 196.457 58.4436   2
  -1 -10   1 2857.82 164.099   4
   1  10  -1 2965.36 171.062   2
  -1 -10   0 2494.70 152.980   4
   1  10   0 2538.93 150.931   2
  -1 -10  -1 161.326 46.1803   4
   1  10   1 112.123 36.7914   2
  -1 -10  -2 22.5146 32.7372   4
   1  10   2 24.9506 35.2631   2
   1  10   3 495.382 57.9998   2
  -1 -10  -3 428.804 43.9487   1
  -1 -10  -3 479.958 64.6151   4
   1  10   4 1016.46 75.7954   2
  -1 -10  -4 1059.99 90.3792   4
  -1 -10  -5 104.703 25.9977   1
  -1 -10  -5 155.005 44.4877   4
   1  10   5 119.138 30.3937   2
  -1 -10  -6 2012.00 108.790   1
  -1 -10  -6 2077.23 122.788   4
  -1 -10  -7 762.316 72.4146   1
  -1 -10  -7 816.434 79.4125   4
  -1 -10  -8 24.9856 28.3645   4
  -1 -10  -8-28.6205 25.9156   1
  -1 -10  -9 1900.16 124.252   4
  -1 -10  -9 2034.29 128.214   1
  -1 -10 -10 1575.39 116.757   4
  -1 -10 -10 1401.25 111.247   1
  -1 -10 -11 56.2450 44.1739   1
  -1 -10 -11 32.4981 35.5272   4
   1  10  12 170.100 42.6843   3
  -1 -10 -12 268.840 58.1856   4
  -1 -10 -12 351.796 68.9184   1
  -1 -10 -13 278.479 59.2526   4
   1  10  13 290.823 61.5151   3
  -1 -10 -13 267.656 58.6662   1
  -1 -10 -14 42.4548 41.4850   4
   1  10  14 73.2913 40.8700   3
  -1 -10 -14 41.6730 41.6489   1
  -1 -10 -15 44.5151 37.2936   4
  -1 -10 -15 178.560 72.4722   1
   1  10  15 208.982 62.4496   3
   1  10  16 37.6485 45.8512   3
  -1 -10 -16-51.3243 44.2172   4
  -1 -10 -16-21.1909 47.2999   1
  -1 -10 -17 98.3349 49.8255   1
  -1 -10 -18 85.3881 52.1060   1
  -1 -10 -19 61.3054 52.7524   1
  -1 -11   8 901.513 134.328   4
   1  11  -8 994.390 143.131   2
   1  11  -7 2047.41 188.952   2
  -1 -11   7 1865.08 176.571   4
   1  11  -6 1541.36 160.543   2
  -1 -11   6 1241.14 142.435   4
   1  11  -5 701.397 107.368   2
  -1 -11   5 772.553 112.161   4
   1  11  -4 4.36432 50.1748   2
  -1 -11   4-60.9686 52.4581   4
   1  11  -3 236.662 72.9467   2
  -1 -11   3 189.757 59.3745   4
   1  11  -2 991.565 111.477   2
  -1 -11   2 1006.57 109.371   4
  -1 -11   1 219.147 59.7150   4
   1  11  -1 222.496 51.5795   2
   1  11   0-30.8759 35.0314   2
  -1 -11   0 3.15535 37.1204   4
  -1 -11  -1 384.017 67.3110   4
   1  11   1 360.603 67.6012   2
  -1 -11  -2 103.290 40.8953   4
   1  11   2 108.171 44.1211   2
  -1 -11  -3 1330.87 109.485   4
   1  11   3 1232.53 95.4519   2
  -1 -11  -4 3526.02 173.734   4
   1  11   4 3847.98 154.341   2
  -1 -11  -5 2124.15 108.252   1
  -1 -11  -5 2049.77 129.589   4
  -1 -11  -6 3976.15 179.924   4
  -1 -11  -6 2838.44 131.738   1
  -1 -11  -7 772.473 81.8923   4
  -1 -11  -7 693.956 68.6835   1
  -1 -11  -8 199.758 45.8307   4
  -1 -11  -8 261.666 50.0086   1
  -1 -11  -9 63.4287 34.4051   1
  -1 -11  -9 98.1722 39.7725   4
  -1 -11 -10 2120.89 141.669   4
  -1 -11 -10 2218.57 141.421   1
  -1 -11 -11 1755.43 131.821   4
  -1 -11 -11 1699.24 129.698   1
  -1 -11 -12 5.81995 32.3897   4
   1  11  12 6.07044 36.9944   3
  -1 -11 -12 12.9590 36.9853   1
  -1 -11 -13 214.798 53.4434   4
  -1 -11 -13 254.517 65.9855   1
   1  11  13 284.828 57.8676   3
  -1 -11 -14 30.2896 43.9134   1
   1  11  14-34.4578 46.6873   3
  -1 -11 -14 130.110 51.4552   4
   1  11  15 83.7169 46.2303   3
  -1 -11 -15 174.132 61.4193   4
  -1 -11 -15 110.579 51.1903   1
  -1 -11 -16 94.4952 54.5157   1
   1  11  16 95.6871 52.5674   3
  -1 -11 -16 23.3941 41.9084   4
  -1 -11 -17 107.659 63.6966   1
  -1 -11 -17 49.1232 44.9958   4
   1  11  17 43.9111 42.8670   3
  -1 -11 -18 159.534 62.5125   1
  -1 -11 -19 237.869 72.2631   1
  -1 -12   7 530.004 105.722   4
   1  12  -7 802.302 129.533   2
   1  12  -6 266.476 79.7058   2
  -1 -12   6 169.937 66.2720   4
   1  12  -5 212.966 72.3111   2
  -1 -12   5 103.105 59.0944   4
   1  12  -4 169.371 67.2881   2
  -1 -12   4 186.609 66.0573   4
   1  12  -3 207.686 69.1719   2
  -1 -12   3 214.640 61.1225   4
   1  12  -2 115.349 56.3350   2
  -1 -12   2 120.207 65.5593   4
   1  12  -1 430.051 78.6332   2
  -1 -12   1 568.345 89.7280   4
  -1 -12   0 2.19238 36.1485   4
   1  12   0 46.7579 38.1769   2
  -1 -12  -1 1160.60 114.679   4
   1  12   1 1112.63 111.620   2
  -1 -12  -2 243.120 58.4550   4
   1  12   2 144.178 48.6803   2
  -1 -12  -3 2573.48 157.417   4
   1  12   3 2362.68 142.036   2
   1  12   4 2304.28 128.079   2
  -1 -12  -4 2153.25 144.876   4
  -1 -12  -5 2343.15 147.619   4
  -1 -12  -6 555.955 78.1705   4
  -1 -12  -7 177.964 37.9674   1
  -1 -12  -7 72.8374 38.0428   4
  -1 -12  -8 239.594 50.8543   1
  -1 -12  -8 212.155 59.1400   4
  -1 -12  -9 614.960 81.6308   4
  -1 -12  -9 474.084 68.2887   1
  -1 -12 -10 1386.82 114.738   1
  -1 -12 -10 1399.29 116.028   4
  -1 -12 -11 706.606 86.9026   1
  -1 -12 -11 797.327 94.8273   4
  -1 -12 -12 4.85198 38.0546   4
  -1 -12 -12 14.1411 32.8210   1
  -1 -12 -13 62.4130 47.9314   4
   1  12  13-63.2237 42.8654   3
  -1 -12 -13-46.3138 51.0612   1
  -1 -12 -14 526.055 89.6107   1
   1  12  14 409.205 80.2997   3
  -1 -12 -14 459.392 88.2958   4
  -1 -12 -15 419.779 82.3588   1
   1  12  15 263.590 70.6602   3
  -1 -12 -15 366.935 71.0518   4
  -1 -12 -16 105.876 57.2668   1
   1  12  16 123.881 53.8753   3
  -1 -12 -16 186.300 62.9032   4
  -1 -12 -17 66.9769 50.4208   4
  -1 -12 -17 187.641 65.7342   1
   1  12  17 136.242 50.7501   3
  -1 -12 -18 176.473 71.5826   1
  -1 -12 -19 76.8438 60.6094   1
  -1 -13   6 581.551 108.053   4
   1  13  -6 671.372 123.598   2
  -1 -13   5 41.7828 49.7220   4
   1  13  -5-35.5577 40.2818   2
   1  13  -4 88.9429 57.8136   2
  -1 -13   4 59.1237 52.5237   4
  -1 -13   3 79.8200 55.2586   4
   1  13  -3 73.1377 49.9585   2
   1  13  -2 192.921 65.5074   2
  -1 -13   2 171.330 67.0969   4
  -1 -13   1 273.744 71.6360   4
   1  13  -1 206.916 65.3750   2
  -1 -13   0 152.098 58.4751   4
   1  13   0 151.822 64.2561   2
  -1 -13  -1 146.241 50.8459   4
   1  13   1 64.3743 47.4329   2
  -1 -13  -2 264.038 62.5004   4
   1  13   2 248.334 64.1377   2
  -1 -13  -3 193.696 56.5114   4
   1  13   3 138.697 48.0720   2
  -1 -13  -4 1464.67 128.164   4
  -1 -13  -5 2497.26 159.619   4
  -1 -13  -6 161.751 52.1669   4
  -1 -13  -7 40.9659 36.3654   4
  -1 -13  -8 54.5019 39.5372   4
  -1 -13  -9 304.371 52.9921   1
  -1 -13  -9 397.945 72.7251   4
  -1 -13 -10 1180.41 108.094   1
  -1 -13 -10 1124.12 112.746   4
  -1 -13 -11 65.0788 46.3369   4
  -1 -13 -11 70.6060 41.9839   1
  -1 -13 -12-18.4125 36.8289   1
  -1 -13 -12-65.2675 37.8841   4
  -1 -13 -13 28.2579 42.4045   4
  -1 -13 -13-47.1685 40.6964   1
   1  13  13 61.3963 48.8751   3
  -1 -13 -14 554.891 87.5572   4
  -1 -13 -14 391.187 81.8264   1
   1  13  14 491.411 83.7399   3
  -1 -13 -15 718.703 104.311   1
   1  13  15 656.793 95.7287   3
  -1 -13 -15 607.284 100.728   4
   1  13  16 97.4219 47.8190   3
  -1 -13 -16 167.608 64.9777   4
  -1 -13 -16 200.577 63.4479   1
   1  13  17 40.4300 42.7122   3
  -1 -13 -17 77.0538 55.4212   1
  -1 -13 -17 72.0732 37.6578   4
   1  13  18-53.9634 51.8704   3
  -1 -13 -18 64.5659 52.7869   1
  -1 -13 -18 15.1846 45.4744   4
  -1 -14   4 69.1664 60.5545   4
   1  14  -4-34.5518 47.6816   2
  -1 -14   3 32.6425 46.3285   4
   1  14  -3 173.595 67.3710   2
   1  14  -2 163.153 76.5866   2
  -1 -14   2 216.826 77.7555   4
   1  14  -1-8.10604 48.2052   2
  -1 -14   1 156.139 57.9888   4
  -1 -14   0 8.89134 48.3881   4
   1  14   0-22.7897 46.9159   2
  -1 -14  -1 513.027 84.9241   4
   1  14   1 413.395 79.8472   2
  -1 -14  -2 693.089 98.5737   4
   1  14   2 748.369 97.5271   2
  -1 -14  -3 570.956 85.7063   4
  -1 -14  -4 1379.40 130.374   4
  -1 -14  -5 815.480 101.530   4
  -1 -14  -6 1096.36 114.234   4
  -1 -14  -7 405.801 76.8698   4
  -1 -14  -8 94.6958 47.5869   4
  -1 -14  -9 167.255 55.5129   4
  -1 -14 -10 311.370 60.2058   1
  -1 -14 -10 219.828 59.4045   4
  -1 -14 -11 13.6127 32.6198   1
  -1 -14 -11-31.7908 47.1292   4
  -1 -14 -12 3.99184 34.6208   1
  -1 -14 -12-21.2479 40.9328   4
  -1 -14 -13 800.685 111.022   1
  -1 -14 -13 813.177 107.313   4
  -1 -14 -14 222.657 57.0396   1
   1  14  14 270.162 74.8154   3
  -1 -14 -14 187.298 60.4975   4
   1  14  15 500.592 87.9690   3
  -1 -14 -15 564.957 93.6264   4
  -1 -14 -15 549.811 95.1731   1
  -1 -14 -16 382.758 83.6784   4
   1  14  16 261.515 74.9526   3
  -1 -14 -16 355.121 83.4648   1
  -1 -14 -17 307.882 83.5891   1
   1  14  17 218.719 68.7270   3
  -1 -14 -17 116.379 54.1459   4
  -1 -14 -18 505.103 98.0540   4
   1  14  18 362.998 86.9488   3
  -1 -14 -18 384.851 99.7773   1
  -1 -14 -19 174.994 62.4385   4
   1  15  -3 200.490 79.9601   2
  -1 -15   3 99.0710 67.0271   4
   1  15  -2-47.9331 49.4654   2
  -1 -15   2 11.2506 49.8189   4
   1  15  -1 12.9376 37.1956   2
  -1 -15   1 88.0435 48.6526   4
  -1 -15   0 224.958 69.3614   4
   1  15   0 59.2917 40.1857   2
   1  15   1 163.536 60.3017   2
  -1 -15  -1 199.548 61.6657   4
  -1 -15  -2 1165.53 132.969   4
  -1 -15  -3 2121.32 170.301   4
  -1 -15  -4 3419.96 210.252   4
  -1 -15  -5 559.711 91.7140   4
  -1 -15  -6 78.7542 43.0796   4
  -1 -15  -7 76.6416 48.3913   4
  -1 -15  -8 390.456 77.4423   4
  -1 -15  -9 257.065 65.8189   4
  -1 -15 -10-6.01100 37.4767   4
  -1 -15 -11 67.6799 54.7821   4
  -1 -15 -12-2.98708 48.9564   4
  -1 -15 -12 3.18963 33.2818   1
  -1 -15 -13 153.929 53.6569   1
  -1 -15 -13 184.503 64.7638   4
   1  15  14 361.144 80.6763   3
  -1 -15 -14 310.958 72.6704   1
  -1 -15 -14 443.392 89.0437   4
  -1 -15 -15 396.681 81.4988   1
   1  15  15 580.611 100.415   3
  -1 -15 -15 390.381 79.7378   4
  -1 -15 -16 342.276 74.5286   4
  -1 -15 -16 389.208 86.5923   1
  -1 -15 -17 183.588 59.7248   4
  -1 -15 -17 229.504 71.6378   1
   1  15  17 151.673 65.2922   3
  -1 -15 -18 158.580 63.3887   4
   1  15  18 180.311 83.0644   3
  -1 -15 -18 180.535 72.1993   1
   1  16  -2 232.300 82.0888   2
  -1 -16   1 34.3580 48.5983   4
   1  16  -1 19.2783 47.2583   2
   1  16   0 6.30911 48.0354   2
  -1 -16   0 135.381 57.2272   4
  -1 -16  -1 217.823 67.5837   4
  -1 -16  -2 735.208 114.885   4
  -1 -16  -3 1701.67 159.711   4
  -1 -16  -4 959.037 120.460   4
  -1 -16  -5 666.213 103.805   4
  -1 -16  -6 536.977 91.7751   4
  -1 -16  -7 127.018 56.7475   4
  -1 -16  -8 27.6097 49.9793   4
  -1 -16  -9 76.4184 48.8248   4
  -1 -16 -10 85.9396 55.7545   4
  -1 -16 -11 54.7454 49.0127   4
  -1 -16 -12 71.3510 47.1336   4
  -1 -16 -13 178.082 63.8041   4
  -1 -16 -14 345.996 77.6432   4
   1  16  15 451.000 89.6309   3
  -1 -16 -15 473.792 90.4055   1
  -1 -16 -15 513.160 97.0527   4
   1  16  16 144.107 60.7930   3
  -1 -16 -16 262.169 82.0015   4
  -1 -16 -16 212.661 66.0563   1
  -1 -16 -17 140.459 63.0007   4
   1  16  17 149.555 70.7145   3
  -1 -16 -17 41.5438 45.8851   1
  -1 -16 -18 107.337 54.7039   4
  -1 -17  -1 112.962 60.4710   4
  -1 -17  -2 186.197 64.0207   4
  -1 -17  -3 595.575 99.8285   4
  -1 -17  -4 315.303 81.0286   4
  -1 -17  -5 451.216 88.0523   4
  -1 -17  -6 2.88142 43.2378   4
  -1 -17  -7 237.920 72.4311   4
  -1 -17  -8 32.8249 43.1324   4
  -1 -17  -9 85.5076 52.7429   4
  -1 -17 -10 59.3316 45.5605   4
  -1 -17 -11 161.109 71.0943   4
  -1 -17 -12 186.348 61.7413   4
  -1 -17 -13 357.605 82.5472   4
  -1 -17 -14 782.487 115.204   4
   1  17  15 342.292 85.1473   3
  -1 -17 -15 509.720 94.5816   4
   1  17  16 24.9317 46.4767   3
  -1 -17 -16 76.9056 55.1562   4
  -1 -17 -17 89.9371 56.9298   4
  -1 -17 -17-38.1772 44.7453   1
  -1 -18  -3 589.474 108.061   4
  -1 -18  -4 146.243 64.0938   4
  -1 -18  -5 81.9857 54.5059   4
  -1 -18  -6 60.5910 49.7122   4
  -1 -18  -7 106.864 56.3343   4
  -1 -18  -8 138.634 53.5562   4
  -1 -18  -9 119.022 51.6583   4
  -1 -18 -10-1.42626 40.2454   4
  -1 -18 -11 99.1395 49.6430   4
  -1 -18 -12 286.090 84.5259   4
  -1 -18 -13 97.1632 51.4265   4
  -1 -18 -14 767.132 120.553   4
  -1 -18 -15 667.776 119.825   4
  -1 -19  -7 342.782 88.0942   4
  -1 -19  -8 44.0017 56.0006   4
  -1 -19  -9 204.270 69.1200   4
  -1 -19 -10-52.4127 61.6689   4
  -1 -19 -11 135.025 54.7443   4
  -1 -19 -12 142.853 59.1999   4
  -1 -19 -13 95.0516 63.7306   4
   2 -18 -13 85.8508 63.4798   4
   2 -18 -12 121.533 65.2449   4
   2 -18 -11 74.3215 69.6824   4
   2 -18 -10 111.650 59.5230   4
   2 -18  -9 232.885 77.4570   4
   2 -18  -8 266.907 82.4532   4
   2 -18  -7 573.331 105.981   4
   2 -18  -6 12.7721 50.2892   4
   2 -18  -5 107.375 73.9720   4
   2 -18  -4 31.4641 45.1655   4
   2 -17 -15 55.7924 57.2745   4
   2 -17 -14 93.4594 60.5704   4
   2 -17 -13 61.8918 49.3254   4
   2 -17 -12 52.5436 51.6833   4
   2 -17 -11 212.599 71.0743   4
   2 -17 -10 407.837 86.0291   4
   2 -17  -9 124.239 44.5198   4
   2 -17  -8 779.755 115.659   4
   2 -17  -7 529.183 95.1694   4
   2 -17  -6-24.5212 46.9543   4
   2 -17  -5-11.5585 46.0780   4
   2 -17  -4 20.9941 50.0849   4
   2 -17  -3 33.5613 57.2187   4
   2 -17  -2 99.6573 62.1415   4
   2 -17  -1 15.4697 47.5007   4
  -2  17  -1 142.463 72.4951   2
   2 -16 -17-13.6898 48.1862   1
   2 -16 -16-100.704 68.8769   4
   2 -16 -15 174.986 71.2537   4
   2 -16 -14 40.0923 57.9646   4
   2 -16 -13 13.8526 39.2156   4
   2 -16 -12 169.582 72.3080   4
   2 -16 -11 173.301 63.4265   4
   2 -16 -10 281.598 79.9437   4
   2 -16  -9 1660.83 161.419   4
   2 -16  -8 884.475 119.976   4
   2 -16  -7 47.6060 51.4912   4
   2 -16  -6 120.364 63.3477   4
   2 -16  -5 28.3784 50.0746   4
   2 -16  -4 175.464 76.3105   4
   2 -16  -3 44.1733 51.8983   4
   2 -16  -2 84.1397 55.9451   4
   2 -16  -1-42.1487 47.8640   4
   2 -16   0 80.7716 49.8737   4
  -2  16   0 134.809 67.1031   2
  -2  16  -1 1062.03 137.779   2
   2 -16   1 953.943 134.035   4
  -2  16  -2 841.857 122.351   2
   2 -15 -17 30.9986 59.6133   1
   2 -15 -17 193.240 82.5459   4
   2 -15 -16 8.12495 44.7579   4
   2 -15 -16 18.1408 38.1911   1
   2 -15 -15 314.397 78.1875   1
   2 -15 -15 214.619 69.9611   4
   2 -15 -14 254.897 80.6341   4
   2 -15 -13 159.386 64.3582   4
   2 -15 -12 155.368 57.2631   4
   2 -15 -11 395.892 84.9228   4
   2 -15 -10 576.503 96.5121   4
   2 -15  -9 285.741 71.6242   4
   2 -15  -8 1459.78 142.951   4
   2 -15  -7 32.0106 38.6096   4
   2 -15  -6 36.2985 48.1723   4
   2 -15  -5 53.4305 53.8137   4
   2 -15  -4 83.0319 52.8576   4
   2 -15  -3 203.935 68.5346   4
   2 -15  -2 114.911 59.8603   4
   2 -15  -1 161.595 74.1058   4
  -2  15   1 72.9411 41.6800   2
   2 -15   0 139.010 69.0529   4
  -2  15   0 178.583 60.1699   2
   2 -15   1 405.774 91.1209   4
  -2  15  -1 354.293 86.9649   2
   2 -15   2 1234.03 145.685   4
  -2  15  -2 1266.68 149.552   2
   2 -15   3 194.616 74.2161   4
  -2  15  -3 308.197 88.0609   2
   2 -14 -18 194.279 67.8339   1
   2 -14 -17 53.7407 42.2713   1
   2 -14 -17-21.4053 42.8900   4
   2 -14 -16 318.529 81.4805   1
   2 -14 -16 135.621 64.8550   4
   2 -14 -15 175.408 69.2091   4
   2 -14 -15 107.777 53.0558   1
   2 -14 -14 136.406 50.7964   1
   2 -14 -14 274.913 74.2273   4
   2 -14 -13 65.5991 37.2559   1
   2 -14 -13 87.7893 56.7508   4
   2 -14 -12 94.9640 55.7717   4
   2 -14 -11 542.073 89.8079   4
   2 -14 -10 1293.49 133.344   4
   2 -14  -9 2550.86 178.799   4
   2 -14  -8 95.0214 39.0613   4
   2 -14  -7 431.743 82.6562   4
   2 -14  -6 37.3702 38.1458   4
   2 -14  -5 677.081 94.6561   4
   2 -14  -4 174.008 55.9015   4
   2 -14  -3 133.526 53.9030   4
   2 -14  -2 494.177 84.1843   3
  -2  14   2 372.718 70.1795   2
   2 -14  -2 300.759 73.3475   4
   2 -14  -1 1003.04 116.422   3
   2 -14  -1 948.896 116.939   4
  -2  14   1 826.593 105.563   2
   2 -14   0 354.700 79.9266   4
   2 -14   0 383.442 78.7533   3
  -2  14   0 361.769 78.6763   2
  -2  14  -1 1796.06 162.245   2
   2 -14   1 1875.57 167.313   4
   2 -14   1 1347.74 131.728   3
  -2  14  -2 1056.99 132.095   2
   2 -14   2 1072.58 133.690   4
   2 -14   3 463.747 93.4274   4
  -2  14  -3 593.307 104.223   2
   2 -14   4 151.097 63.5974   4
  -2  14  -4 258.942 80.4435   2
   2 -14   5 104.140 60.8659   4
  -2  14  -5 60.8473 54.9420   2
   2 -13 -18 45.8462 62.1689   4
   2 -13 -18-26.8360 44.4988   1
   2 -13 -17 227.387 77.4570   1
   2 -13 -17 59.7591 45.4934   4
   2 -13 -16 571.478 104.000   4
   2 -13 -16 679.160 108.825   1
   2 -13 -15 221.940 67.4537   1
   2 -13 -15 285.824 75.3651   4
   2 -13 -14 499.250 91.9974   1
   2 -13 -14 734.486 107.765   4
   2 -13 -13 333.689 70.9867   1
   2 -13 -13 455.059 87.8728   4
   2 -13 -12 469.159 86.5697   4
   2 -13 -12 326.331 66.4887   1
   2 -13 -11 535.451 82.4646   1
   2 -13 -11 575.082 92.8603   4
   2 -13 -10 736.063 99.1005   4
   2 -13  -9 840.557 103.129   4
   2 -13  -8 44.4388 44.3713   4
   2 -13  -7 70.5326 44.2893   4
   2 -13  -6 115.140 50.5205   4
   2 -13  -5-3.85366 37.7319   4
   2 -13  -4 745.168 94.6186   4
   2 -13  -3 209.702 61.8968   3
   2 -13  -3 135.838 40.4071   4
  -2  13   3 212.134 57.5810   2
   2 -13  -2 1547.06 131.816   3
   2 -13  -2 1490.22 137.547   4
  -2  13   2 1659.64 134.801   2
  -2  13   1 1551.44 134.596   2
   2 -13  -1 1444.02 135.465   4
   2 -13  -1 1604.00 137.423   3
   2 -13   0 2186.49 163.993   4
  -2  13   0 2013.71 157.266   2
   2 -13   0 2038.16 150.384   3
   2 -13   1 1716.08 138.648   3
   2 -13   1 1790.00 161.265   4
  -2  13  -1 1659.72 149.048   2
   2 -13   2 1348.65 141.001   4
  -2  13  -2 1600.80 151.179   2
   2 -13   3 922.038 122.032   4
  -2  13  -3 606.053 102.349   2
  -2  13  -4 392.786 86.3066   2
   2 -13   4 648.911 109.153   4
  -2  13  -5 19.9015 48.9137   2
   2 -13   5 41.0599 56.6655   4
   2 -13   6 307.154 86.8925   4
  -2  13  -6 447.958 106.622   2
   2 -12 -18 82.0659 57.3155   1
   2 -12 -17 100.865 52.7204   4
   2 -12 -17 170.549 68.1241   1
   2 -12 -16 638.280 109.386   1
   2 -12 -16 526.251 99.3606   4
   2 -12 -15 1263.37 138.864   1
   2 -12 -15 1450.70 153.526   4
   2 -12 -14 113.751 50.9482   1
   2 -12 -14 184.530 61.6353   4
   2 -12 -13 978.265 111.151   1
   2 -12 -13 996.985 119.125   4
   2 -12 -12 797.038 98.7392   1
   2 -12 -12 666.976 93.1585   4
   2 -12 -11 259.602 57.6461   1
   2 -12 -11 291.076 69.4374   4
   2 -12 -10-39.0655 47.0027   4
   2 -12 -10-8.16504 29.5957   1
   2 -12  -9 138.110 43.9035   1
   2 -12  -9 137.140 56.5019   4
   2 -12  -8 248.327 64.2745   4
   2 -12  -7 45.6719 38.4919   4
   2 -12  -6 514.214 80.7723   4
   2 -12  -5 1369.82 119.435   4
   2 -12  -4-44.6574 46.4767   3
   2 -12  -4-16.8307 32.8148   4
  -2  12   4-16.8288 32.4305   2
   2 -12  -3 54.5055 41.3846   4
   2 -12  -3 61.8792 36.3475   3
  -2  12   3 74.9913 43.1957   2
   2 -12  -2 510.780 72.7815   3
  -2  12   2 645.944 84.0732   2
   2 -12  -2 427.977 70.9541   4
   2 -12  -1 433.431 75.5179   3
  -2  12   1 521.868 78.9286   2
   2 -12  -1 411.139 72.9510   4
   2 -12   0 707.294 93.7523   4
   2 -12   0 719.241 94.4882   3
  -2  12   0 776.195 100.145   2
   2 -12   1 1077.58 111.634   3
   2 -12   1 1188.80 124.503   4
  -2  12  -1 1114.91 118.925   2
   2 -12   2 738.113 101.627   4
   2 -12   2 864.044 101.861   3
  -2  12  -2 772.850 104.645   2
   2 -12   3 617.197 97.1848   4
  -2  12  -3 686.932 103.463   2
  -2  12  -4 143.202 60.9086   2
   2 -12   4 82.5611 51.8499   4
   2 -12   5 367.697 89.9644   4
  -2  12  -5 109.248 57.2104   2
  -2  12  -6 9.84723 43.8125   2
   2 -12   6 98.4782 59.6940   4
   2 -12   7-28.4368 55.6540   4
  -2  12  -7 10.4295 52.1694   2
   2 -11 -18 116.113 58.9953   1
   2 -11 -17 605.116 104.201   1
   2 -11 -16 847.323 124.282   4
   2 -11 -16 764.862 114.573   1
   2 -11 -15 1014.26 123.071   4
   2 -11 -15 1010.55 124.800   1
   2 -11 -14 382.234 76.3136   1
   2 -11 -14 547.478 95.7669   4
   2 -11 -13 541.278 88.1693   1
   2 -11 -13 425.373 81.2069   4
   2 -11 -12 1288.05 124.636   1
   2 -11 -12 1318.43 128.477   4
   2 -11 -11 244.265 52.8231   4
   2 -11 -11 185.275 49.9214   1
   2 -11 -10 39.9319 39.3257   1
   2 -11 -10 23.9440 48.5954   4
   2 -11  -9 67.9246 35.4019   1
   2 -11  -9 77.6296 45.2731   4
   2 -11  -8 100.080 44.5369   4
   2 -11  -8 93.4847 35.2114   1
   2 -11  -7 1341.97 98.5601   1
   2 -11  -7 1519.63 120.378   4
   2 -11  -6 1110.34 103.919   4
   2 -11  -5 1738.80 127.294   4
  -2  11   4 1379.73 98.9483   2
   2 -11  -4 1490.14 118.791   3
   2 -11  -4 1437.24 114.109   4
   2 -11  -3-16.0729 37.8522   3
  -2  11   3-51.8894 35.2024   2
  -2  11   2 161.396 45.8534   2
   2 -11  -2 167.685 47.0452   4
   2 -11  -2 104.401 45.1950   3
   2 -11  -1 545.484 75.2360   3
  -2  11   1 572.271 80.8890   2
   2 -11  -1 560.479 81.5809   4
   2 -11   0 1276.42 118.306   4
   2 -11   0 1353.02 111.100   3
  -2  11   0 1236.88 112.924   2
   2 -11   1 1143.70 107.476   3
   2 -11   1 1174.41 118.466   4
  -2  11  -1 1102.79 114.180   2
   2 -11   2 433.829 69.7156   3
   2 -11   2 480.777 82.8793   4
  -2  11  -2 392.550 78.5277   2
   2 -11   3 91.6946 50.6405   4
   2 -11   3 26.4248 38.8054   3
  -2  11  -3 32.5086 46.0219   2
  -2  11  -4-8.87502 48.2101   2
   2 -11   4-28.2201 46.9152   4
  -2  11  -5 62.2746 52.7970   2
   2 -11   5 128.385 54.8369   4
   2 -11   6 165.168 62.0480   4
  -2  11  -6 272.062 74.3754   2
  -2  11  -7-37.0647 48.0414   2
   2 -11   7-1.79838 46.3759   4
   2 -11   8 94.9800 63.5245   4
  -2  11  -8 140.717 73.0385   2
   2 -11   9 439.945 97.2062   4
   2 -10 -18 152.222 64.0016   1
   2 -10 -17 645.014 110.120   1
   2 -10 -16 449.694 87.4987   1
   2 -10 -16 491.501 95.3269   4
   2 -10 -15 729.871 104.908   1
   2 -10 -15 700.999 102.494   4
   2 -10 -14 70.5712 40.2667   1
   2 -10 -14 136.262 54.2193   4
   2 -10 -13 38.5698 41.2161   1
   2 -10 -13 27.2893 49.4645   4
   2 -10 -12 228.727 63.5719   4
   2 -10 -12 197.706 61.8448   1
   2 -10 -11 30.5574 32.9753   1
   2 -10 -11 66.5995 51.7452   4
   2 -10 -10 403.800 71.0453   4
   2 -10 -10 347.302 62.0618   1
   2 -10  -9 53.7408 34.6343   1
   2 -10  -9 89.5369 39.6776   4
   2 -10  -8-9.38388 25.8132   1
   2 -10  -8 25.0159 37.3638   4
   2 -10  -7 2161.17 136.928   4
   2 -10  -7 2301.45 124.642   1
   2 -10  -6 2245.57 114.406   1
   2 -10  -6 2986.23 158.792   4
   2 -10  -5 6679.32 237.069   4
   2 -10  -5 6527.82 234.883   3
   2 -10  -5 6440.34 176.963   1
   2 -10  -4 4193.38 186.378   4
   2 -10  -4 4361.52 189.581   3
   2 -10  -3 2876.57 157.043   3
   2 -10  -3 2981.99 155.935   4
   2 -10  -2 96.5460 39.2768   3
   2 -10  -2 39.2299 35.3845   4
  -2  10   2 99.9697 27.1873   2
   2 -10  -1 185.412 52.4014   3
   2 -10  -1 166.366 48.4152   4
  -2  10   1 126.712 40.6020   2
   2 -10   0 134.458 46.7177   4
  -2  10   0 167.501 49.4409   2
   2 -10   0 106.494 43.4385   3
   2 -10   1 93.3118 46.8622   4
   2 -10   1 225.664 53.4452   3
  -2  10  -1 163.200 55.8013   2
   2 -10   2 1127.62 102.470   3
  -2  10  -2 1144.89 114.396   2
   2 -10   2 997.112 104.627   4
   2 -10   3 237.590 59.8492   3
   2 -10   3 203.003 56.4369   4
  -2  10  -3 290.017 63.2789   2
   2 -10   4 312.812 61.6068   3
  -2  10  -4 314.142 70.2074   2
   2 -10   4 226.557 61.6004   4
   2 -10   5 586.895 91.2228   4
  -2  10  -5 734.120 100.659   2
  -2  10  -6 181.866 61.8992   2
   2 -10   6 228.231 63.0683   4
   2 -10   7 586.923 99.2683   4
  -2  10  -7 533.539 103.206   2
   2 -10   8 296.865 78.9208   4
  -2  10  -8 145.193 67.0355   2
  -2  10  -9 542.887 107.617   2
   2 -10   9 302.553 80.4531   4
   2 -10  10 427.452 100.346   4
  -2  10 -10 545.571 111.213   2
   2  -9 -18 281.722 85.5012   1
   2  -9 -17 547.950 101.243   1
   2  -9 -16 864.118 122.837   1
   2  -9 -15 50.7578 46.3074   1
   2  -9 -15 52.9838 40.6674   4
   2  -9 -14-26.1690 46.6265   1
   2  -9 -14-4.64606 43.6279   4
   2  -9 -13 134.862 50.0536   1
   2  -9 -13 239.105 68.8439   4
   2  -9 -12 333.343 70.4561   4
   2  -9 -12 275.853 67.0062   1
   2  -9 -11 105.676 47.5789   4
   2  -9 -11 142.638 50.3880   1
   2  -9 -10 199.363 48.9719   1
   2  -9 -10 173.204 47.1458   4
   2  -9  -9 67.8860 44.0197   4
   2  -9  -9-25.0074 32.9095   1
   2  -9  -8 1255.58 98.0519   1
   2  -9  -8 1260.27 106.859   4
   2  -9  -7 3130.29 147.422   1
   2  -9  -7 3229.86 161.020   4
   2  -9  -6 2922.19 130.267   1
   2  -9  -6 2727.88 144.038   4
   2  -9  -5 734.813 78.8504   3
   2  -9  -5 617.207 67.5143   4
   2  -9  -5 433.736 49.4701   1
   2  -9  -4 5812.93 210.560   3
   2  -9  -4 6062.93 209.253   4
   2  -9  -4 5764.49 149.628   1
   2  -9  -3 1897.22 117.470   4
   2  -9  -3 1951.17 119.618   3
   2  -9  -2 165.038 46.6656   3
   2  -9  -2 177.366 45.9290   4
   2  -9  -1 554.442 70.8940   4
   2  -9  -1 592.645 69.3480   3
  -2   9   0 705.100 73.9004   2
   2  -9   0 699.888 77.5875   4
   2  -9   0 694.299 75.3126   3
   2  -9   1 757.156 83.8117   4
   2  -9   1 667.551 77.8685   3
  -2   9  -1 715.103 85.6946   2
   2  -9   2 193.479 47.7678   3
  -2   9  -2 247.787 58.2203   2
   2  -9   2 284.761 62.2132   4
  -2   9  -3 31.9052 37.4597   2
   2  -9   3 62.6846 35.4212   3
   2  -9   3 53.6278 38.2171   4
   2  -9   4 3624.39 175.940   3
   2  -9   4 3394.64 189.919   4
  -2   9  -4 3239.26 195.491   2
  -2   9  -5 1443.74 136.459   2
   2  -9   5 1254.19 124.548   4
   2  -9   6 416.550 78.5593   4
  -2   9  -6 571.496 95.2710   2
   2  -9   7 408.713 82.9663   4
  -2   9  -7 486.475 95.6996   2
   2  -9   8 278.503 70.3275   4
  -2   9  -8 282.553 77.1775   2
   2  -9   9 56.4420 52.9151   4
  -2   9  -9-10.9262 60.8197   2
  -2   9 -10 388.755 91.5663   2
   2  -9  10 219.810 73.9313   4
   2  -9  11 420.656 91.5373   4
  -2   9 -11 425.952 97.2831   2
   2  -8 -18 146.906 63.4806   1
   2  -8 -17 412.136 95.5242   1
   2  -8 -16 368.958 83.5845   1
   2  -8 -15 869.956 115.233   1
   2  -8 -14 46.0730 38.1675   4
   2  -8 -14 45.1929 40.2774   1
   2  -8 -13 355.653 71.6110   1
   2  -8 -13 364.066 67.6806   4
   2  -8 -12-19.2328 33.2050   1
   2  -8 -12 67.0558 40.5851   4
   2  -8 -11 94.1723 37.8783   1
   2  -8 -11 103.159 40.0685   4
   2  -8 -10 333.888 66.0836   1
   2  -8 -10 378.927 66.9186   4
   2  -8  -9 29.2717 34.8268   4
   2  -8  -9-8.41244 26.2164   1
   2  -8  -8 1482.83 106.851   1
   2  -8  -8 1578.27 112.709   4
   2  -8  -7 1669.78 106.821   1
   2  -8  -7 1631.29 108.864   4
   2  -8  -6 1695.98 107.181   4
   2  -8  -6 1762.46 100.321   1
   2  -8  -5 698.344 72.5695   3
   2  -8  -5 702.688 61.5536   1
   2  -8  -5 685.792 71.8472   4
   2  -8  -4 257.146 49.2740   3
   2  -8  -4 169.915 27.8991   1
   2  -8  -4 262.539 46.6439   4
   2  -8  -3 852.336 77.4715   3
   2  -8  -3 741.048 72.7256   4
   2  -8  -3 672.921 46.8555   1
   2  -8  -2 545.140 35.3327   1
   2  -8  -2 607.323 68.3801   3
   2  -8  -2 486.604 61.6802   4
   2  -8  -1 1357.52 97.0344   3
   2  -8  -1 1333.99 94.8449   4
   2  -8   0 223.661 42.0138   3
   2  -8   0 223.281 48.4140   4
   2  -8   1 189.780 46.1871   4
   2  -8   1 195.687 45.1626   3
  -2   8  -1 201.531 47.0488   2
   2  -8   2 3.48214 32.6012   3
   2  -8   2 44.0418 31.3011   4
  -2   8  -2 31.3271 34.8742   2
  -2   8  -3 320.848 65.0008   2
   2  -8   3 278.247 54.3441   4
   2  -8   3 294.260 51.7110   3
  -2   8  -4 3005.04 179.711   2
   2  -8   4 3306.61 158.038   3
   2  -8   4 2991.55 167.087   4
   2  -8   5 4297.72 205.358   4
  -2   8  -5 3886.60 209.599   2
   2  -8   5 4624.54 188.157   3
   2  -8   6 1536.27 131.552   4
  -2   8  -6 1708.82 145.566   2
  -2   8  -6 1741.73 114.940   5
   2  -8   7 420.653 77.6331   4
  -2   8  -7 574.740 93.7929   2
   2  -8   8 52.3235 45.2732   4
  -2   8  -8 102.160 57.4531   2
  -2   8  -9 23.6309 49.5955   2
   2  -8   9 86.6376 50.1978   4
   2  -8  10 171.751 65.7877   4
  -2   8 -10 99.8357 65.1966   2
   2  -8  11 193.631 65.8619   4
  -2   8 -11 145.377 69.7727   2
  -2   8 -12 375.150 95.5048   2
   2  -8  12 308.733 77.0719   4
   2  -7 -18 21.8594 45.2749   1
   2  -7 -17 358.794 83.4320   1
   2  -7 -16 421.321 85.6846   1
   2  -7 -15 66.5350 51.8052   1
   2  -7 -14 122.750 54.1805   1
   2  -7 -13 327.149 70.7262   1
   2  -7 -12 307.854 62.9545   1
   2  -7 -12 278.604 67.3266   4
   2  -7 -11 73.9098 44.9865   1
   2  -7 -11 73.5338 43.0397   4
   2  -7 -10 63.7191 36.5518   1
   2  -7 -10-29.7113 38.5940   4
   2  -7  -9 2675.46 147.943   1
   2  -7  -9 2955.85 154.658   4
   2  -7  -8 2289.09 130.228   4
   2  -7  -8 2282.67 129.816   1
   2  -7  -7 2453.56 79.4965   2
   2  -7  -7 2834.71 141.726   4
   2  -7  -7 2735.22 132.023   1
   2  -7  -6 3514.75 99.6613   2
   2  -7  -6 3596.19 143.902   1
   2  -7  -6 3743.13 152.940   4
   2  -7  -5 3078.75 135.476   4
   2  -7  -5 3037.40 119.345   1
   2  -7  -5 3109.24 141.569   3
   2  -7  -4 2685.78 101.730   1
   2  -7  -4 2799.86 126.177   4
   2  -7  -4 2833.94 131.492   3
   2  -7  -3 2049.89 113.652   3
   2  -7  -3 1750.16 73.9442   1
   2  -7  -3 2058.96 108.792   4
   2  -7  -2 204.561 38.9863   4
   2  -7  -2 157.708 21.5865   1
   2  -7  -2 188.047 44.0237   3
   2  -7  -1 69.6400 28.8074   3
   2  -7  -1 3.21018 26.9678   4
   2  -7   0-16.0670 29.1573   3
   2  -7   0 8.61997 27.1572   4
   2  -7   1 235.549 45.0012   3
   2  -7   1 231.961 42.0625   4
   2  -7   2 32.2388 34.5423   3
   2  -7   2 9.39631 27.2892   4
  -2   7  -2 8.41238 31.7416   2
   2  -7   3 2472.28 137.112   4
  -2   7  -3 2365.04 141.109   2
   2  -7   3 2603.14 131.349   3
   2  -7   4 3397.75 167.842   4
   2  -7   4 3516.79 152.047   3
  -2   7  -4 3442.70 181.685   2
  -2   7  -5 2369.31 160.985   2
   2  -7   5 2381.06 146.502   4
   2  -7   5 2518.95 130.614   3
  -2   7  -5 2477.50 123.622   5
   2  -7   6 1403.97 104.793   3
   2  -7   6 1501.28 122.236   4
  -2   7  -6 1406.57 130.686   2
  -2   7  -6 1343.23 99.1566   5
  -2   7  -7 2211.14 163.473   2
  -2   7  -7 1597.03 114.798   5
   2  -7   7 2031.95 145.350   4
  -2   7  -8 1355.60 137.774   2
   2  -7   8 1252.90 122.053   4
  -2   7  -8 1595.27 121.749   5
  -2   7  -9-44.4488 48.4883   2
   2  -7   9 43.8595 42.1715   4
   2  -7  10 159.288 60.9331   4
  -2   7 -10 82.1998 57.2389   2
   2  -7  11 355.777 76.4348   4
  -2   7 -11 283.768 78.9582   2
   2  -7  12 460.608 93.2309   4
  -2   7 -12 476.849 96.8194   2
   2  -7  13 100.650 62.5340   4
  -2   7 -13-0.45097 48.4249   2
   2  -6 -18 118.265 55.3903   1
   2  -6 -17 15.7902 45.4265   1
   2  -6 -16 52.9330 47.7854   1
   2  -6 -15 16.0693 39.9155   1
   2  -6 -14 49.3593 45.2957   1
   2  -6 -13-19.3027 41.6523   1
   2  -6 -12 1086.61 114.193   1
   2  -6 -11 3109.54 172.911   4
   2  -6 -11 3257.48 179.424   1
   2  -6 -10 876.881 89.0201   4
   2  -6 -10 912.433 92.8345   1
   2  -6  -9 805.564 86.5535   1
   2  -6  -9 839.856 83.7881   4
   2  -6  -8 5305.86 193.096   4
   2  -6  -8 5087.62 190.037   1
   2  -6  -8 5043.73 117.534   2
   2  -6  -7 5563.09 187.644   1
   2  -6  -7 5545.21 117.929   2
   2  -6  -7 5670.21 191.412   4
   2  -6  -6 7956.10 206.783   1
   2  -6  -6 7877.01 140.560   2
   2  -6  -6 8259.67 220.484   4
   2  -6  -5 10190.0 233.798   4
   2  -6  -5 9786.51 210.551   1
   2  -6  -5 10134.6 230.331   3
   2  -6  -5 9515.96 158.462   2
   2  -6  -4 54.7438 28.2076   3
   2  -6  -4 72.7035 24.9852   4
   2  -6  -4 38.1019 18.8504   1
   2  -6  -3 1186.82 78.0492   4
   2  -6  -3 1284.07 85.4167   3
   2  -6  -3 1057.37 58.2058   1
   2  -6  -2 725.764 41.1619   1
   2  -6  -2 892.342 70.2767   3
   2  -6  -2 764.301 64.7635   4
   2  -6  -1 168.584 32.8783   3
   2  -6  -1 158.142 38.2384   4
   2  -6   0 219.440 40.3584   3
   2  -6   0 211.189 41.6579   4
   2  -6   1 204.504 37.5970   3
   2  -6   1 152.638 34.7989   4
   2  -6   2 1623.38 99.2492   4
   2  -6   2 1578.85 94.6042   3
   2  -6   3 3589.92 156.007   4
   2  -6   3 3557.39 142.601   3
  -2   6  -3 3532.96 164.512   2
   2  -6   4 5644.67 201.435   4
  -2   6  -4 5682.20 217.149   2
   2  -6   4 6068.80 189.742   3
  -2   6  -5 5113.27 170.409   5
  -2   6  -5 4654.87 207.362   2
   2  -6   5 5055.17 177.531   3
   2  -6   5 4633.75 187.797   4
   2  -6   6 1802.13 109.297   3
   2  -6   6 1603.03 118.285   4
  -2   6  -6 1839.31 140.833   2
  -2   6  -7 964.521 108.400   2
   2  -6   7 815.079 90.2512   4
  -2   6  -7 808.009 82.5005   5
   2  -6   8 959.717 107.082   4
  -2   6  -8 1252.48 125.081   2
  -2   6  -8 1216.59 105.092   5
  -2   6  -9 1138.67 127.697   2
  -2   6  -9 1168.31 104.939   5
   2  -6   9 1038.01 113.096   4
  -2   6 -10 36.6015 48.2259   2
   2  -6  10 35.4730 42.4996   4
   2  -6  11 164.939 65.2298   4
  -2   6 -11 122.988 53.0798   2
  -2   6 -12 133.191 60.7481   2
   2  -6  12 227.510 74.9227   4
  -2   6 -13 115.524 62.2649   2
   2  -6  13 65.5539 51.1072   4
  -2   6 -14 51.0731 56.2607   2
   2  -6  14 196.613 76.0685   4
   2  -5 -18 142.928 67.4303   1
   2  -5 -17 51.7743 49.7720   1
   2  -5 -16 175.151 63.3976   1
   2  -5 -15 7.23788 39.2939   1
   2  -5 -14 240.615 66.9057   1
   2  -5 -13 275.403 59.0316   1
   2  -5 -12 1114.78 113.504   1
   2  -5 -11 752.821 87.7058   1
   2  -5 -10 2007.81 133.295   4
   2  -5 -10 1901.07 131.701   1
   2  -5  -9 866.575 82.3834   4
   2  -5  -9 880.509 85.7388   1
   2  -5  -9 843.092 55.5824   2
   2  -5  -8 19.5319 28.9311   1
   2  -5  -8 7.28774 14.1758   2
   2  -5  -8 12.0352 29.0943   4
   2  -5  -7 2594.36 128.817   4
   2  -5  -7 2471.52 82.6418   2
   2  -5  -7 2468.46 125.543   1
   2  -5  -6 10052.6 231.997   4
   2  -5  -6 9587.64 155.562   2
   2  -5  -6 9146.28 221.166   1
   2  -5  -5 4026.96 97.9156   2
   2  -5  -5 4254.84 138.781   3
   2  -5  -5 4476.33 148.096   4
   2  -5  -5 4157.01 137.382   1
   2  -5  -4 811.721 57.5205   1
   2  -5  -4 860.206 64.7926   3
   2  -5  -4 923.652 66.8468   4
   2  -5  -4 807.848 45.8102   2
   2  -5  -3 75.3923 21.4554   1
   2  -5  -3 83.0683 28.7906   3
   2  -5  -3 36.8381 22.4099   4
   2  -5  -3 67.0450 18.9754   2
   2  -5  -2 636.598 54.0596   4
   2  -5  -2 676.391 59.2414   3
   2  -5  -2 623.662 39.3682   1
   2  -5  -1 1578.47 49.7013   1
   2  -5  -1 1809.62 88.4779   4
   2  -5  -1 1791.10 93.2923   3
   2  -5   0 733.604 60.7684   3
   2  -5   0 637.648 57.2838   4
   2  -5   1 1133.80 73.5777   3
   2  -5   1 1071.13 71.7061   4
   2  -5   2 1001.96 70.7570   3
   2  -5   2 955.449 72.7208   4
   2  -5   3 357.712 49.7057   4
   2  -5   3 355.477 47.8636   3
   2  -5   4 7168.72 193.733   3
  -2   5  -4 7361.56 234.237   2
   2  -5   4 7104.84 205.026   4
   2  -5   5 1891.31 115.838   4
  -2   5  -5 1964.34 131.040   2
   2  -5   5 2126.39 108.075   3
   2  -5   6 3323.47 159.030   4
   2  -5   6 3435.72 138.466   3
  -2   5  -6 3655.56 149.107   5
  -2   5  -6 3412.54 179.094   2
  -2   5  -7 1556.23 106.611   5
  -2   5  -7 1809.28 138.039   2
   2  -5   7 1740.83 102.861   3
   2  -5   7 1999.46 131.478   4
   2  -5   8 486.111 81.1637   4
  -2   5  -8 495.413 88.0219   2
  -2   5  -8 462.445 68.5401   5
   2  -5   9 48.8208 41.7848   4
  -2   5  -9 24.3743 31.8942   5
  -2   5  -9-25.7648 46.9401   2
  -2   5 -10 29.8315 43.4503   2
  -2   5 -10-35.8798 38.2611   5
  -2   5 -11-45.9942 52.2318   2
   2  -5  11-34.2577 39.9461   4
  -2   5 -12 44.2473 47.1676   2
   2  -5  12 2.34351 40.3092   4
   2  -5  13 14.3259 46.9030   4
  -2   5 -13 28.5158 42.9687   2
   2  -5  14 185.533 68.8271   4
  -2   5 -14 276.672 83.6170   2
  -2   5 -15 186.307 64.8341   2
   2  -4 -18 321.223 88.6556   1
   2  -4 -17-30.5065 42.6282   1
   2  -4 -16-79.3815 56.4700   1
   2  -4 -15 132.916 58.7363   1
   2  -4 -14 534.888 87.0612   1
   2  -4 -13 636.112 94.1205   1
   2  -4 -12 2688.06 169.402   1
   2  -4 -11 1485.27 123.220   1
   2  -4 -10-3.30518 19.2850   2
   2  -4 -10 4.93844 28.4471   1
   2  -4  -9 573.083 49.7443   2
   2  -4  -9 743.679 80.0804   1
   2  -4  -8 2003.66 116.603   4
   2  -4  -8 2071.13 121.605   1
   2  -4  -7 126.448 35.8402   4
   2  -4  -7 104.415 21.7717   2
   2  -4  -7 80.4708 26.5275   1
   2  -4  -6 2050.52 105.307   4
   2  -4  -6 2199.80 77.0823   2
   2  -4  -6 2200.23 110.333   1
   2  -4  -5 5577.15 117.532   2
   2  -4  -5 5670.90 160.540   4
   2  -4  -5 5465.84 156.819   1
   2  -4  -4 335.360 38.6592   1
   2  -4  -4 346.622 43.1955   3
   2  -4  -4 326.958 43.0671   4
   2  -4  -4 364.070 30.9111   2
   2  -4  -3 35.1842 28.2013   3
   2  -4  -3 25.4253 15.2418   2
   2  -4  -3 43.8651 19.1416   1
   2  -4  -3 50.9617 22.0010   4
   2  -4  -2 5155.75 133.439   4
   2  -4  -2 5647.88 146.587   3
   2  -4  -2 5026.87 108.768   1
   2  -4  -2 5193.35 116.666   2
   2  -4  -1 164.226 30.0785   4
   2  -4  -1 138.440 35.0584   3
   2  -4  -1 135.025 17.3740   1
   2  -4   0 450.227 45.0627   4
   2  -4   0 450.366 47.0030   3
   2  -4   1 5471.45 143.077   4
   2  -4   1 5508.46 145.951   3
   2  -4   2 3777.03 129.055   4
   2  -4   2 3883.74 124.955   3
   2  -4   3 499.010 54.5875   4
   2  -4   3 514.450 50.9278   3
   2  -4   4 2884.85 120.613   4
   2  -4   4 3103.92 117.363   3
  -2   4  -4 3055.87 74.0894   1
   2  -4   5 5283.46 156.598   3
  -2   4  -5 5261.00 113.801   1
  -2   4  -5 5241.28 196.598   2
   2  -4   5 5554.65 182.126   4
  -2   4  -6 308.747 57.3375   2
   2  -4   6 214.293 36.9973   3
  -2   4  -6 333.788 50.1625   5
   2  -4   6 328.969 56.5397   4
  -2   4  -6 268.128 31.4282   1
  -2   4  -7 555.907 78.7684   2
   2  -4   7 594.178 58.0807   3
  -2   4  -7 325.685 49.4291   5
   2  -4   7 557.153 69.3415   4
   2  -4   8 23.9836 29.2539   4
  -2   4  -8 20.8731 36.1415   2
   2  -4   8 50.1595 33.8735   3
  -2   4  -8 24.7698 29.5915   5
   2  -4   9 220.630 51.0478   4
  -2   4  -9 293.280 64.4205   2
  -2   4 -10 179.337 49.5130   5
  -2   4 -10 327.516 68.7418   2
   2  -4  10 163.657 52.5657   4
   2  -4  11 265.645 68.1579   4
  -2   4 -11 323.722 66.9870   5
  -2   4 -11 301.978 69.1451   2
   2  -4  12 190.620 62.7826   4
  -2   4 -12 172.535 64.4921   2
   2  -4  13 325.421 77.6631   4
  -2   4 -13 589.772 98.4921   2
   2  -4  14 70.6057 54.5937   4
  -2   4 -14 135.011 54.8959   2
  -2   4 -15 484.542 102.339   2
   2  -4  15 287.194 80.8356   4
   2  -3 -18 46.3959 50.3264   1
   2  -3 -17 46.5750 44.2415   1
   2  -3 -16 97.4515 55.6204   1
   2  -3 -15 822.971 111.951   1
   2  -3 -14 886.481 111.234   1
   2  -3 -13 1906.94 149.890   1
   2  -3 -12 1824.12 141.434   1
   2  -3 -11 2026.03 110.568   2
   2  -3 -11 1993.90 139.457   1
   2  -3 -10 23.6120 30.5404   1
   2  -3 -10 24.1622 19.3927   2
   2  -3  -9 228.778 51.0753   1
   2  -3  -9 137.552 28.5705   2
  -2   3   9 198.991 28.6124   3
   2  -3  -8 1.22368 27.0281   1
   2  -3  -8 6.12566 17.7193   2
   2  -3  -7 2888.56 132.413   4
   2  -3  -7 2941.04 135.907   1
   2  -3  -7 2959.64 104.153   2
   2  -3  -6 829.690 52.8573   2
   2  -3  -6 850.100 70.8802   1
   2  -3  -6 784.152 64.8965   4
   2  -3  -5 335.691 45.5687   1
   2  -3  -5 382.464 45.8672   4
   2  -3  -5 361.431 34.3091   2
   2  -3  -4 1553.90 68.5916   3
   2  -3  -4 1701.88 81.7718   1
   2  -3  -4 1651.43 81.3105   4
   2  -3  -4 1610.89 62.5770   2
   2  -3  -3 9469.41 146.265   2
   2  -3  -3 9571.18 170.450   1
   2  -3  -3 9483.01 177.630   4
   2  -3  -3 9270.51 165.687   3
   2  -3  -2 5488.91 126.666   4
   2  -3  -2 5279.98 129.808   3
   2  -3  -2 5292.74 112.449   1
   2  -3  -2 5509.32 110.080   2
   2  -3  -1 2226.78 73.9013   2
   2  -3  -1 2203.98 84.1566   3
   2  -3  -1 2130.95 62.0732   1
   2  -3  -1 2167.32 76.8518   4
   2  -3   0 588.161 47.2381   3
   2  -3   0 560.620 41.9586   4
   2  -3   1 18479.5 230.367   4
   2  -3   1 18205.6 239.491   3
   2  -3   2 2013.76 82.5493   4
   2  -3   2 1966.83 82.5276   3
   2  -3   3 2625.57 98.8488   3
   2  -3   3 2589.42 98.2871   4
  -2   3  -3 2822.23 64.1019   1
   2  -3   4 619.947 53.9490   3
  -2   3  -4 625.858 36.9073   1
   2  -3   4 688.431 59.3517   4
   2  -3   5 2898.37 110.812   3
   2  -3   5 2840.19 123.040   4
   2  -3   6 5322.88 178.941   4
  -2   3  -6 5173.11 195.186   2
   2  -3   6 5273.72 153.991   3
  -2   3  -6 5827.83 175.155   5
  -2   3  -7 554.468 71.6374   2
  -2   3  -7 375.084 50.9374   5
   2  -3   7 670.731 71.6921   4
  -2   3  -7 518.109 47.7525   1
   2  -3   7 524.526 53.0925   3
  -2   3  -8 2.33384 14.4237   1
  -2   3  -8 15.1803 27.0344   5
  -2   3  -8-36.6052 41.3638   2
   2  -3   8 50.1838 31.4520   3
   2  -3   8 47.9975 35.9065   4
  -2   3  -9 846.254 86.6276   5
  -2   3  -9 744.026 87.8716   2
   2  -3   9 771.956 86.4511   4
  -2   3 -10 48.1925 32.1865   5
   2  -3  10-6.48434 33.9432   4
  -2   3 -10 19.2126 35.9540   2
  -2   3 -11 100.562 54.5784   2
   2  -3  11 81.7698 44.4893   4
  -2   3 -11 131.214 47.7330   5
  -2   3 -12 119.935 55.9949   2
   2  -3  12 73.5912 49.1997   4
  -2   3 -13 233.205 69.3176   2
   2  -3  13 235.982 66.5732   4
  -2   3 -14 554.732 95.0581   2
   2  -3  14 931.686 122.635   4
   2  -3  15 402.098 83.7827   4
  -2   3 -15 927.458 123.617   2
   2  -3  16 581.831 109.832   4
   2  -2 -18 110.369 53.7696   1
   2  -2 -17-10.1372 41.0665   1
   2  -2 -16-68.1798 47.6776   1
   2  -2 -15 339.172 72.5762   1
   2  -2 -14 1625.06 144.236   1
   2  -2 -13 808.673 100.038   1
   2  -2 -12 1375.90 123.514   1
   2  -2 -12 1298.79 100.276   2
   2  -2 -11 794.119 72.8321   2
   2  -2 -11 896.324 95.3332   1
   2  -2 -10 98.2338 32.2210   2
   2  -2 -10 45.8318 35.8957   1
   2  -2  -9 109.864 40.7584   1
   2  -2  -9 82.8383 31.0079   2
   2  -2  -8 160.272 35.1610   2
   2  -2  -8 201.604 43.3868   1
  -2   2   8 209.949 26.7020   3
   2  -2  -7 1375.16 93.1684   1
   2  -2  -7 1230.59 71.7573   2
  -2   2   7 1059.69 49.9614   3
   2  -2  -6 2108.22 88.4195   2
   2  -2  -6 2072.38 106.328   1
   2  -2  -5 662.719 59.6275   1
   2  -2  -5 638.126 48.0654   2
   2  -2  -5 693.980 56.7950   4
   2  -2  -4 5709.96 149.561   1
   2  -2  -4 5493.84 112.179   3
   2  -2  -4 5875.46 125.407   2
   2  -2  -4 5564.97 142.515   4
   2  -2  -3 385.082 38.9874   4
   2  -2  -3 404.706 35.3055   2
   2  -2  -3 423.452 36.1141   3
   2  -2  -3 379.088 37.4960   1
   2  -2  -2 99.3265 19.8407   2
   2  -2  -2 86.9787 22.9140   3
   2  -2  -2 65.3923 22.1308   4
   2  -2  -2 87.4272 21.4697   1
   2  -2  -1 109.125 20.4989   1
   2  -2  -1 97.4143 19.6681   4
   2  -2  -1 130.329 23.4537   2
   2  -2  -1 84.6316 22.1056   3
   2  -2   0 1694.14 63.4359   2
   2  -2   0 1684.72 65.4622   3
   2  -2   0 1704.84 58.0336   4
   2  -2   0 1791.83 49.4619   1
   2  -2   1 10437.9 166.155   3
   2  -2   1 10298.8 143.852   4
  -2   2  -2 51.3318 14.2745   1
   2  -2   2 0.89423 18.1772   3
   2  -2   2 21.4624 17.7590   4
   2  -2   3 4158.43 115.187   3
  -2   2  -3 4300.37 85.9032   1
   2  -2   3 3965.22 111.425   4
   2  -2   4 4466.56 124.828   3
   2  -2   4 4352.68 128.976   4
  -2   2  -5 5044.56 122.195   1
   2  -2   5 5978.76 165.969   4
   2  -2   5 5965.04 150.527   3
   2  -2   6 1619.69 95.2570   4
  -2   2  -6 1813.66 82.1171   1
   2  -2   6 1698.63 85.6743   3
  -2   2  -6 1793.14 108.270   2
   2  -2   7 1380.15 96.7592   4
  -2   2  -7 1439.02 92.7818   5
   2  -2   7 1310.86 78.3307   3
  -2   2  -7 1366.10 100.514   2
  -2   2  -7 1473.13 80.6917   1
   2  -2   8 534.533 54.7725   3
  -2   2  -8 516.355 65.6217   2
  -2   2  -8 376.630 52.7887   5
  -2   2  -8 501.001 52.8766   1
   2  -2   8 559.932 73.0386   4
   2  -2   9 1148.88 100.573   4
   2  -2   9 1373.13 88.7036   3
  -2   2  -9 1346.22 90.2472   1
  -2   2  -9 1358.93 110.248   2
  -2   2  -9 1291.73 100.838   5
  -2   2 -10 457.033 57.9789   1
  -2   2 -10 461.188 69.0799   5
   2  -2  10 388.387 64.7824   4
  -2   2 -10 439.439 71.9818   2
  -2   2 -11 481.199 77.0005   2
  -2   2 -11 540.029 75.4289   5
   2  -2  11 584.636 83.9178   4
  -2   2 -12 127.991 47.9477   5
   2  -2  12 97.9655 52.3362   4
  -2   2 -12 102.197 45.4141   2
   2  -2  13 844.654 107.444   4
  -2   2 -13 682.607 91.8378   2
  -2   2 -14 229.831 64.9781   2
   2  -2  14 215.316 67.6626   4
   2  -2  15 1199.43 137.697   4
   2  -2  16 502.538 100.118   4
  -2   1  17-74.5644 62.6281   4
   2  -1 -17 18.4031 55.1408   1
   2  -1 -16 141.718 53.9637   1
   2  -1 -15 196.453 59.8980   1
   2  -1 -14 158.412 58.2858   1
   2  -1 -13 1052.64 113.389   1
   2  -1 -12 1667.45 135.021   1
   2  -1 -12 1673.43 121.220   2
   2  -1 -11 1442.59 107.774   2
   2  -1 -11 1441.72 119.649   1
   2  -1 -10 831.647 88.6950   1
   2  -1 -10 912.671 83.9988   2
   2  -1  -9 15.7914 22.8594   2
   2  -1  -9 20.8634 29.7674   1
   2  -1  -8-1.21440 21.1314   2
   2  -1  -8 13.5098 25.4714   1
  -2   1   7 44.6235 14.5241   3
   2  -1  -7 28.3389 24.3969   2
   2  -1  -7-19.6870 30.5296   1
  -2   1   6 107.379 12.8496   3
   2  -1  -6 156.365 29.5816   2
   2  -1  -6 140.412 34.1364   1
   2  -1  -5 141.996 34.4356   1
   2  -1  -5 93.0105 24.3456   2
   2  -1  -4 373.040 42.2837   1
   2  -1  -4 361.816 37.7688   2
   2  -1  -3 14857.1 206.612   4
   2  -1  -3 15005.1 220.936   1
   2  -1  -3 15186.3 197.862   2
   2  -1  -3 14677.7 150.009   3
   2  -1  -2 2916.83 69.0995   3
   2  -1  -2 3063.66 83.5214   4
   2  -1  -2 3014.87 89.6918   1
   2  -1  -2 3213.91 84.6787   2
   2  -1  -1 413.194 36.9660   1
   2  -1  -1 393.562 31.3567   3
   2  -1  -1 395.750 28.1130   4
   2  -1  -1 442.065 33.1403   2
   2  -1   0 20207.1 198.045   2
   2  -1   0 20175.8 180.692   1
   2  -1   0 19674.8 194.489   3
   2  -1   1 213.386 28.2341   3
   2  -1   1 193.321 25.3525   2
  -2   1  -2 271.544 23.4682   1
   2  -1   2 229.676 22.8505   4
   2  -1   2 224.999 32.1724   3
  -2   1  -3 570.215 34.8971   1
   2  -1   3 797.069 44.4969   4
   2  -1   3 591.385 43.6914   3
   2  -1   4 8946.83 169.762   3
   2  -1   4 8700.33 163.091   4
   2  -1   5 137.136 29.7763   3
  -2   1  -5 81.3973 22.5818   1
   2  -1   5 101.559 29.1012   4
  -2   1  -6 1134.79 68.0946   1
   2  -1   6 1142.84 76.7249   4
   2  -1   6 969.875 65.6284   3
   2  -1   7 139.593 36.4783   4
  -2   1  -7 182.859 33.8799   1
  -2   1  -7 209.419 45.1280   2
  -2   1  -7 172.075 36.6609   5
   2  -1   7 136.036 29.2014   3
  -2   1  -8 50.6219 25.9639   1
   2  -1   8 75.4463 29.2091   3
  -2   1  -8 43.3978 26.7963   5
  -2   1  -8 101.496 37.4132   2
   2  -1   8 39.9135 33.0279   4
   2  -1   9 1266.99 83.0913   3
  -2   1  -9 1524.52 97.1587   1
   2  -1   9 1388.56 104.537   4
  -2   1  -9 1050.43 89.6035   5
  -2   1  -9 1402.07 109.814   2
  -2   1 -10 2860.01 153.710   5
   2  -1  10 2853.70 157.311   4
  -2   1 -10 2956.96 158.403   2
   2  -1  10 2459.40 118.177   3
  -2   1 -10 2876.26 141.435   1
  -2   1 -11 1254.49 99.8724   1
   2  -1  11 1374.73 119.028   4
  -2   1 -11 1366.97 115.030   5
  -2   1 -11 1322.35 114.646   2
   2  -1  12 766.695 97.5781   4
  -2   1 -12 812.520 94.1995   2
  -2   1 -12 877.322 100.666   5
  -2   1 -12 839.128 87.1813   1
   2  -1  13 564.685 89.5325   4
  -2   1 -13 453.979 77.5020   2
  -2   1 -13 555.702 82.5407   5
   2  -1  14 1332.64 136.204   4
  -2   1 -14 1468.37 133.221   2
   2  -1  15 941.424 122.962   4
   2  -1  16 385.858 83.7078   4
   2  -1  17 36.2948 52.4161   4
  -2   0  16 127.418 64.8148   4
  -2   0  15 524.405 100.491   4
   2   0 -15 774.016 108.178   1
   2   0 -14 505.501 84.1045   1
   2   0 -13 604.919 88.5479   1
   2   0 -13 602.820 86.6664   2
   2   0 -12 2407.40 155.691   2
   2   0 -12 2349.50 158.494   1
   2   0 -11 352.307 60.1268   2
   2   0 -11 326.476 63.6750   1
   2   0 -10 23.5097 33.3605   2
   2   0 -10 50.5610 29.4857   1
   2   0  -9 426.103 64.4222   1
   2   0  -9 335.356 54.4924   2
   2   0  -8 371.004 53.6778   2
   2   0  -8 401.414 57.3030   1
   2   0  -7 196.293 43.2080   1
   2   0  -7 161.249 36.4166   2
   2   0  -6 1564.15 92.4737   2
   2   0  -6 1608.15 97.2394   1
   2   0  -5 13.7419 26.1455   1
   2   0  -5 38.9843 23.6971   2
   2   0  -4 2457.41 93.2748   2
   2   0  -4 2595.54 104.151   1
   2   0  -3 1486.73 72.9354   1
   2   0  -3 1397.57 66.5510   2
   2   0  -2 80177.1 468.666   1
   2   0  -2 79414.5 453.022   2
   2   0  -1 28511.6 255.695   1
   2   0  -1 28377.8 245.328   2
   2   0   0 4544.94 86.6846   3
   2   0   0 4575.57 95.3619   1
   2   0   0 4746.20 96.4200   2
   2   0   1 5.64485 17.1601   3
   2   0   1 3.84609 16.9573   2
   2   0   2 3461.03 85.3192   2
  -2   0  -2 3592.35 83.1231   1
   2   0   2 3405.56 90.0870   3
  -2   0  -3 7996.72 131.033   1
   2   0   3 8654.44 153.730   3
  -2   0  -4 46.0512 16.3998   1
   2   0   4 57.2000 22.6203   3
   2   0   5 1404.75 71.4951   3
  -2   0  -5 1419.01 69.5206   1
  -2   0  -6 59.5593 25.0140   1
   2   0   6 92.8801 27.9536   3
   2   0   7 56.1150 23.4996   3
  -2   0  -7 6.34382 19.9734   1
  -2   0  -7-33.4949 30.4825   2
  -2   0  -8 1046.83 81.2936   5
   2   0   8 1163.27 76.9457   3
  -2   0  -8 1199.46 83.3839   1
  -2   0  -8 1063.08 81.7345   2
   2   0   9 1028.80 74.9978   3
  -2   0  -9 1088.19 88.7908   5
  -2   0  -9 1023.36 85.4246   2
  -2   0  -9 1031.96 81.6400   1
   2   0  10 1523.21 94.2843   3
  -2   0 -10 1588.02 106.919   1
  -2   0 -10 1548.05 109.640   2
  -2   0 -10 1519.86 110.847   5
   2   0  11 1247.65 108.494   4
  -2   0 -11 1276.22 101.629   1
  -2   0 -11 1310.35 106.798   2
  -2   0 -11 1230.83 106.699   5
  -2   0 -12 1501.37 122.994   5
  -2   0 -12 1532.09 115.769   1
  -2   0 -12 1556.72 119.755   2
   2   0  12 1454.34 123.830   4
  -2   0 -13 763.197 90.9856   2
   2   0  13 633.983 90.2454   4
  -2   0 -13 628.918 84.4404   5
  -2   0 -13 790.763 91.0806   1
   2   0  14 396.621 83.3477   4
   2   0  15 848.065 117.139   4
   2   0  16 449.702 87.5359   4
   2   0  17 103.478 56.4363   4
   2   0  18 140.761 65.3180   4
  -2  -1  16 188.381 75.8911   4
  -2  -1  15 1253.05 151.354   4
   2   1 -14 469.720 80.3569   1
   2   1 -14 523.703 89.1017   2
  -2  -1  14 367.528 86.1422   4
  -2  -1  13 1023.60 127.026   4
   2   1 -13 785.103 100.119   2
   2   1 -13 1129.29 117.255   1
  -2  -1  12 1184.84 128.272   4
   2   1 -12 1432.00 125.619   1
   2   1 -12 1432.87 125.175   2
   2   1 -11 154.287 48.6399   1
   2   1 -11 79.8126 37.3772   2
   2   1 -10 111.861 46.5743   1
   2   1 -10 108.005 42.9388   2
   2   1  -9 120.023 41.2540   2
   2   1  -9 149.286 41.4788   1
   2   1  -8 63.1740 27.4635   2
   2   1  -8 49.3030 31.2855   1
   2   1  -7 198.802 41.9900   1
   2   1  -7 213.383 44.0447   2
   2   1  -6 36.2856 24.9753   1
   2   1  -6 123.537 40.9595   2
   2   1  -5 1630.37 94.5407   2
   2   1  -5 1687.26 92.6755   1
   2   1  -4 3476.53 124.719   2
   2   1  -4 3594.95 124.365   1
   2   1  -3 20395.8 273.990   2
   2   1  -3 21167.9 271.254   1
   2   1  -2 52727.9 376.920   2
   2   1  -2 43579.9 379.894   1
   2   1  -1 176864. 663.235   2
   2   1  -1 175032. 652.584   1
   2   1   0 35597.7 219.664   3
   2   1   0 34298.8 268.715   2
   2   1   0 34745.0 277.734   1
   2   1   1 2916.47 75.2477   3
   2   1   1 2855.81 73.5883   2
   2   1   2 548.248 34.4415   2
   2   1   2 570.295 39.5053   3
  -2  -1  -3 538.099 39.3858   1
   2   1   3 732.810 49.6098   3
   2   1   3 641.950 37.5731   2
   2   1   4 450.165 41.7180   3
  -2  -1  -4 468.090 40.1163   1
  -2  -1  -5 745.544 55.0732   1
   2   1   5 802.849 55.8022   3
   2   1   6 1144.66 70.1979   3
  -2  -1  -6 1262.91 74.5746   1
   2   1   7 3173.30 117.735   3
  -2  -1  -7 3195.13 126.439   1
  -2  -1  -8 1419.42 89.5863   5
   2   1   8 1337.12 83.8470   3
  -2  -1  -8 1303.51 87.6355   1
  -2  -1  -8 1341.37 83.1518   2
  -2  -1  -9 3020.45 139.500   5
  -2  -1  -9 2949.77 138.390   1
   2   1   9 2928.06 127.003   3
  -2  -1  -9 2916.53 131.437   2
  -2  -1 -10 5190.27 195.187   5
  -2  -1 -10 5259.14 192.648   1
  -2  -1 -10 5078.03 182.423   2
   2   1  10 5047.57 170.310   3
  -2  -1 -11 1007.81 90.6316   1
  -2  -1 -11 933.833 84.6570   2
   2   1  11 1045.52 84.1652   3
  -2  -1 -11 1007.71 92.6480   5
  -2  -1 -12 4387.74 196.860   1
  -2  -1 -12 4169.63 181.815   2
  -2  -1 -12 4153.77 198.893   5
  -2  -1 -13 512.685 79.7624   5
  -2  -1 -13 342.034 68.0272   1
  -2  -1 -14 164.223 50.6844   5
   2   1  14 280.166 66.9411   4
  -2  -1 -14 355.139 66.4369   1
   2   1  15 244.180 65.9694   4
  -2  -1 -15 201.439 54.1594   1
   2   1  16 102.608 56.5070   4
   2   1  17 172.522 59.8339   4
   2   1  18-12.4344 46.1063   4
  -2  -2  15 543.109 109.914   4
  -2  -2  14 1763.72 174.368   4
   2   2 -14 1928.05 162.218   2
   2   2 -13 714.518 100.158   2
  -2  -2  13 766.996 120.348   4
   2   2 -12 488.345 84.4050   2
   2   2 -12 426.627 70.2234   1
  -2  -2  12 306.688 78.2900   4
  -2  -2  11 3.18449 42.4458   4
   2   2 -11 79.6435 48.5217   1
   2   2 -11 31.8593 34.7256   2
   2   2 -10 584.471 80.9167   2
   2   2 -10 768.536 84.1254   1
  -2  -2  10 592.774 87.5423   4
   2   2  -9-3.72165 36.7977   2
   2   2  -9 45.4112 28.0990   1
  -2  -2   9 21.5618 36.7936   4
  -2  -2   8 21.3275 34.3093   4
   2   2  -8 35.7801 28.8241   1
   2   2  -8 62.8741 36.1681   2
   2   2  -7 361.500 48.5652   1
  -2  -2   7 352.518 58.8163   4
   2   2  -7 422.270 64.2926   2
   2   2  -6 1161.19 81.4547   1
   2   2  -6 942.424 82.3687   2
   2   2  -5 653.599 59.0067   1
   2   2  -5 681.558 68.8126   2
   2   2  -4 3324.10 131.849   2
   2   2  -4 3455.51 123.409   1
  -2  -2   3 6321.40 164.905   4
   2   2  -3 6149.69 167.615   2
   2   2  -3 6739.39 164.587   1
  -2  -2   2 3732.67 114.335   4
   2   2  -2 3783.77 121.409   2
   2   2  -2 3786.02 111.200   1
  -2  -2   1 37306.0 310.672   4
   2   2  -1 36909.8 316.612   1
   2   2   0 16.5922 17.5065   2
  -2  -2   0 50.9089 18.5437   4
   2   2   0 60.6420 13.9052   3
   2   2   1 190.959 25.1835   3
   2   2   1 157.854 23.5891   2
   2   2   2 309.686 25.7793   2
   2   2   2 266.769 31.4386   3
   2   2   3 7017.62 105.775   2
   2   2   3 6502.27 133.634   3
  -2  -2  -3 6902.87 136.948   1
   2   2   4 2949.44 95.9772   3
  -2  -2  -4 3214.59 74.0891   4
  -2  -2  -4 2924.20 95.1979   1
   2   2   4 2344.99 66.5216   2
  -2  -2  -5 855.587 58.1742   1
   2   2   5 850.277 59.4521   3
   2   2   6 3664.86 120.644   3
  -2  -2  -6 3672.09 125.440   1
   2   2   7 10038.2 209.152   3
  -2  -2  -7 10123.9 224.104   1
  -2  -2  -8 3500.30 121.879   2
   2   2   8 3494.76 129.562   3
  -2  -2  -8 3513.06 143.143   1
  -2  -2  -9 6074.30 190.549   5
  -2  -2  -9 6118.07 173.090   2
  -2  -2  -9 6017.92 197.371   1
   2   2   9 6104.52 179.239   3
  -2  -2 -10 2288.00 128.459   5
   2   2  10 2127.82 112.099   3
  -2  -2 -10 2139.36 126.873   1
  -2  -2 -11 1692.85 105.369   2
  -2  -2 -11 1712.39 119.761   1
  -2  -2 -11 1652.99 113.723   5
   2   2  11 1535.89 101.829   3
  -2  -2 -12 194.222 51.3546   5
   2   2  12 168.272 44.3338   3
  -2  -2 -12 189.960 50.7767   1
  -2  -2 -13 603.936 80.6927   1
  -2  -2 -13 457.522 75.8107   5
  -2  -2 -14 32.1741 43.6384   5
  -2  -2 -14 9.49981 31.7279   1
  -2  -2 -15 671.060 92.0080   1
  -2  -2 -16 93.6434 43.4395   1
   2   2  17-6.50986 44.8551   4
   2   2  18-45.9325 50.8780   4
  -2  -3  14 702.513 121.690   4
   2   3 -14 582.750 99.3701   2
   2   3 -13 1164.68 132.256   2
  -2  -3  13 1294.97 147.864   4
   2   3 -12 414.414 84.6240   2
  -2  -3  12 423.411 95.2539   4
   2   3 -11 97.8695 44.4320   1
  -2  -3  11-1.84011 42.8815   4
   2   3 -11 43.8913 49.5737   2
   2   3 -10 620.285 78.2501   1
   2   3 -10 487.085 80.6615   2
  -2  -3  10 511.406 87.3657   4
   2   3  -9 1410.96 125.372   2
  -2  -3   9 1605.62 133.071   4
   2   3  -9 1659.79 116.633   1
  -2  -3   8 145.860 45.0769   4
   2   3  -8 218.430 45.2031   1
   2   3  -8 223.346 51.9847   2
   2   3  -7 867.946 77.3656   1
  -2  -3   7 766.276 84.3261   4
   2   3  -7 840.955 91.0957   2
   2   3  -6 1145.14 97.8941   2
  -2  -3   6 1266.86 101.349   4
   2   3  -6 1304.01 88.4615   1
  -2  -3   5 2057.01 118.052   4
   2   3  -5 1963.88 119.539   2
   2   3  -5 2321.46 111.106   1
   2   3  -4 5059.13 155.849   1
  -2  -3   4 4974.78 168.881   4
   2   3  -4 4625.88 171.132   2
  -2  -3   3 5280.59 161.197   4
   2   3  -3 5022.59 165.642   2
   2   3  -3 5203.44 143.341   1
  -2  -3   2 490.974 48.9138   4
   2   3  -2 466.446 49.1683   2
   2   3  -2 514.804 44.3430   1
  -2  -3   1 12.3282 19.4712   4
   2   3  -1-10.2436 18.2398   1
   2   3  -1-14.5867 23.7189   2
   2   3   0 7182.82 150.956   2
  -2  -3   0 7051.68 135.248   4
   2   3   1 380.043 34.7013   3
   2   3   1 239.709 28.4928   2
  -2  -3  -1 233.234 26.5436   4
   2   3   2-0.67393 13.4549   2
   2   3   2 13.1878 20.5614   3
  -2  -3  -2 15.4648 12.5988   4
  -2  -3  -3 1061.70 60.3924   1
  -2  -3  -3 1074.17 42.6542   4
   2   3   3 1029.14 56.8119   3
   2   3   3 1113.33 44.0242   2
   2   3   4 1640.62 74.7933   3
   2   3   4 1695.05 50.7906   2
  -2  -3  -4 1621.60 75.0849   1
  -2  -3  -4 1227.02 50.1374   4
   2   3   5 116.287 25.9056   3
  -2  -3  -5 114.627 32.1177   1
  -2  -3  -5 84.2782 19.1006   4
   2   3   6 402.281 45.7417   3
  -2  -3  -6 435.560 46.2625   1
  -2  -3  -6 390.337 37.9553   4
   2   3   7 4086.09 136.083   3
  -2  -3  -7 4068.44 144.263   1
  -2  -3  -8 6150.41 190.377   1
   2   3   8 5793.51 169.919   3
  -2  -3  -8 5723.44 138.861   2
   2   3   9 3836.93 145.607   3
  -2  -3  -9 3814.07 159.826   1
  -2  -3  -9 3899.17 147.788   5
  -2  -3 -10 877.834 85.5462   1
   2   3  10 871.093 76.5289   3
  -2  -3 -10 924.510 80.1067   5
  -2  -3 -10 945.367 67.2359   2
  -2  -3 -11 588.420 73.3680   1
   2   3  11 512.205 63.3173   3
  -2  -3 -11 651.629 72.1814   5
  -2  -3 -12 229.279 52.5072   1
   2   3  12 145.520 43.0203   3
  -2  -3 -12 183.116 44.2431   5
  -2  -3 -13-27.7719 35.5639   5
  -2  -3 -13 50.0881 41.1236   1
  -2  -3 -14 299.422 68.6078   5
  -2  -3 -14 334.803 70.3395   1
  -2  -3 -15 8.78761 42.5737   1
  -2  -3 -16-1.97145 36.5356   1
  -2  -3 -17-67.4341 44.3482   1
  -2  -3 -18 428.789 87.4499   1
   2   3  18 250.010 74.0714   4
   2   3  19 129.498 64.5186   4
  -2  -4  14 200.765 78.0720   4
   2   4 -14 133.784 64.0709   2
  -2  -4  13-24.3704 51.9327   4
   2   4 -13 66.1145 59.4967   2
  -2  -4  12 70.8865 57.3974   4
   2   4 -12 109.030 61.6680   2
   2   4 -11 22.4382 42.5281   2
  -2  -4  11-80.2322 56.5266   4
   2   4 -10 1288.91 128.913   2
  -2  -4  10 1279.59 131.462   4
   2   4  -9 2319.66 163.248   2
  -2  -4   9 2068.60 155.237   4
   2   4  -9 2370.24 140.488   1
  -2  -4   8 1510.38 127.903   4
   2   4  -8 1812.26 119.057   1
   2   4  -8 1591.08 134.038   2
  -2  -4   7 555.904 77.9528   4
   2   4  -7 532.386 76.2709   2
   2   4  -7 617.951 67.7383   1
  -2  -4   6 2860.04 155.228   4
   2   4  -6 3207.81 142.744   1
   2   4  -6 2759.04 158.244   2
  -2  -4   5 657.389 74.8899   4
   2   4  -5 697.179 79.3460   2
   2   4  -5 676.770 61.8074   1
   2   4  -4 1513.30 104.725   2
   2   4  -4 1702.79 89.8802   1
  -2  -4   4 1573.69 101.518   4
   2   4  -3 3191.46 144.604   2
   2   4  -3 3345.53 116.805   1
  -2  -4   3 3466.12 139.407   4
   2   4  -2 6668.11 190.162   2
   2   4  -2 6674.20 154.125   1
  -2  -4   2 6581.16 176.487   4
  -2  -4   1 318.283 40.0914   4
   2   4  -1 251.393 44.1603   2
   2   4   0 431.614 44.9702   2
  -2  -4   0 467.035 42.1494   4
   2   4   1 2481.37 89.1405   2
  -2  -4  -1 2061.23 80.3918   4
   2   4   2 1202.46 55.9666   2
  -2  -4  -2 1377.73 60.7935   4
   2   4   3 349.654 28.4917   2
  -2  -4  -3 585.998 48.1200   1
   2   4   3 600.570 48.6586   3
  -2  -4  -3 383.367 31.2484   4
   2   4   4 3357.49 110.513   3
  -2  -4  -4 3555.67 112.753   1
   2   4   4 3525.99 73.3739   2
  -2  -4  -5 3574.04 121.227   1
   2   4   5 3608.56 120.944   3
   2   4   5 3688.09 70.5200   2
   2   4   6 32.1319 23.6217   3
  -2  -4  -6 18.3696 20.5899   1
  -2  -4  -6 43.0081 21.4880   4
  -2  -4  -7 60.9860 26.2525   1
  -2  -4  -7 54.7313 22.3153   4
   2   4   7-9.83848 25.6590   3
   2   4   8 5707.86 171.309   3
  -2  -4  -8 5690.50 119.446   2
  -2  -4  -8 5747.03 187.386   1
  -2  -4  -8 5617.60 160.662   4
  -2  -4  -9 5298.56 128.954   2
   2   4   9 5199.73 171.818   3
  -2  -4  -9 5367.88 192.607   1
   2   4  10 1659.74 104.000   3
  -2  -4 -10 1828.66 119.813   1
  -2  -4 -10 1759.48 105.476   5
   2   4  11 416.589 58.8820   3
  -2  -4 -11 466.336 66.6386   1
  -2  -4 -11 380.753 55.9778   5
  -2  -4 -12 118.326 44.8903   1
  -2  -4 -12 42.7594 33.1903   5
   2   4  12 108.292 41.9980   3
  -2  -4 -13 71.5190 41.5151   5
   2   4  13 50.8820 38.0436   3
  -2  -4 -13 41.0502 37.5847   1
  -2  -4 -14 100.113 47.9612   1
  -2  -4 -14 7.54770 33.2507   5
  -2  -4 -15 95.6972 50.3460   1
  -2  -4 -16 75.6716 48.5821   1
  -2  -4 -17 188.154 68.0939   1
  -2  -4 -18 305.437 80.5706   1
  -2  -4 -19 823.258 121.183   1
   2   5 -14-15.1802 44.0776   2
   2   5 -13 45.1885 49.4491   2
  -2  -5  13-33.3911 48.1405   4
  -2  -5  12 265.714 75.3023   4
   2   5 -12 126.152 61.2491   2
  -2  -5  11 304.736 80.4648   4
   2   5 -11 229.868 64.9263   2
   2   5 -10 127.442 58.3495   2
  -2  -5  10 229.908 65.3381   4
  -2  -5   9 2382.44 172.557   4
   2   5  -9 2580.38 182.385   2
   2   5  -8 1296.63 123.647   2
  -2  -5   8 1293.56 123.951   4
   2   5  -7 76.8705 38.7640   2
   2   5  -7 41.5139 26.7174   1
  -2  -5   7 69.7938 44.5412   4
   2   5  -6 365.056 50.9868   1
  -2  -5   6 294.752 60.9421   4
   2   5  -6 301.224 63.4870   2
   2   5  -5 1026.05 100.987   2
  -2  -5   5 1200.61 99.9439   4
   2   5  -5 1173.02 80.2172   1
   2   5  -4 1680.19 89.9337   1
   2   5  -4 1438.20 111.841   2
  -2  -5   4 1662.62 111.245   4
   2   5  -3 3684.43 124.740   1
  -2  -5   3 3644.15 150.603   4
   2   5  -3 3635.10 163.770   2
   2   5  -2 705.001 54.1222   1
   2   5  -2 662.742 68.5005   2
  -2  -5   2 684.699 64.2715   4
  -2  -5   1 332.581 45.2194   4
   2   5  -1 270.209 45.5971   2
  -2  -5   0 712.204 56.1296   4
   2   5   0 770.499 62.8389   2
  -2  -5  -1 4030.54 123.727   4
   2   5   1 3762.30 121.305   2
  -2  -5  -2 353.066 38.9017   4
   2   5   2 345.567 36.7410   2
  -2  -5  -3 5.30585 20.8688   1
   2   5   3 21.5959 13.4243   2
  -2  -5  -3 9.63251 18.5253   4
  -2  -5  -4 1237.53 69.5941   1
   2   5   4 1247.62 49.7052   2
   2   5   4 1291.75 73.1444   3
  -2  -5  -4 1282.69 64.8076   4
  -2  -5  -5 1562.39 83.0729   1
   2   5   5 1627.87 47.7782   2
   2   5   5 1618.20 84.6243   3
  -2  -5  -5 1606.88 73.8901   4
   2   5   6 631.511 58.8093   3
  -2  -5  -6 652.614 59.1494   1
  -2  -5  -6 602.169 48.7631   4
  -2  -5  -7 38.7637 24.2819   4
   2   5   7 83.9832 33.5477   3
  -2  -5  -7 87.3207 30.1754   1
  -2  -5  -8 10503.2 221.325   4
  -2  -5  -8 9630.59 127.284   2
   2   5   8 9930.27 230.826   3
  -2  -5  -8 9966.65 245.745   1
  -2  -5  -9 769.814 66.7353   4
  -2  -5  -9 716.046 75.0799   1
   2   5   9 685.584 66.7240   3
  -2  -5 -10 246.567 52.2850   1
  -2  -5 -10 195.540 38.7561   5
   2   5  10 246.031 44.9485   3
   2   5  11 531.764 65.8015   3
  -2  -5 -11 575.951 73.6898   1
  -2  -5 -11 549.466 62.8669   5
  -2  -5 -12 396.888 59.2865   5
  -2  -5 -12 473.533 73.1245   1
   2   5  12 394.909 58.7013   3
  -2  -5 -13 23.7705 37.2602   1
   2   5  13 17.6418 27.6631   3
  -2  -5 -13 23.6473 35.5719   5
  -2  -5 -14 4.01293 35.0048   1
  -2  -5 -14-37.6454 39.5063   5
   2   5  14 30.8226 30.5044   3
  -2  -5 -15 312.755 66.9141   5
  -2  -5 -15 338.800 68.1161   1
  -2  -5 -16 85.2233 53.4842   1
  -2  -5 -17 569.283 98.2952   1
  -2  -5 -18 853.599 120.356   1
  -2  -5 -19 214.180 62.3963   1
   2   6 -13 28.4735 56.1886   2
   2   6 -12 52.7310 51.3407   2
  -2  -6  12 189.807 71.4722   4
   2   6 -11 176.606 65.5706   2
  -2  -6  11 223.556 70.5306   4
   2   6 -10 761.197 105.740   2
  -2  -6  10 635.749 104.155   4
  -2  -6   9 341.827 78.0753   4
   2   6  -9 365.517 77.7493   2
   2   6  -8 1158.51 125.714   2
  -2  -6   8 1155.48 121.336   4
  -2  -6   7 1229.26 120.953   4
   2   6  -7 1464.49 135.635   2
  -2  -6   6 51.2604 35.6107   4
   2   6  -6 60.6310 48.1708   2
   2   6  -5 12.8790 37.5267   2
  -2  -6   5-29.3646 36.8923   4
   2   6  -5-0.42471 20.5902   1
  -2  -6   4 312.838 53.7057   4
   2   6  -4 299.879 63.9323   2
   2   6  -4 281.516 38.9046   1
   2   6  -3 2932.87 115.831   1
   2   6  -3 2774.91 154.949   2
  -2  -6   3 3036.72 146.571   4
  -2  -6   2 268.221 45.4399   4
   2   6  -2 350.699 54.5054   2
   2   6  -1 1254.44 146.637   2
  -2  -6   1 1843.76 115.254   4
  -2  -6   0 1913.06 99.1119   4
   2   6   0 1753.12 98.7195   2
  -2  -6  -1 3952.15 135.272   4
   2   6   1 3889.97 135.752   2
   2   6   2 4794.86 137.746   2
  -2  -6  -2 4500.55 129.114   1
  -2  -6  -2 5043.21 144.836   4
   2   6   3 607.431 45.8100   2
  -2  -6  -3 550.962 48.5724   1
  -2  -6  -3 629.295 53.4962   4
  -2  -6  -4 417.288 45.0372   1
   2   6   4 294.668 28.6180   2
  -2  -6  -4 481.766 45.7563   4
  -2  -6  -5 219.577 35.3835   1
  -2  -6  -5 241.148 36.5899   4
   2   6   5 239.473 23.1928   2
  -2  -6  -6-0.73614 17.9206   4
   2   6   6 2.60628 25.6283   3
  -2  -6  -6 24.6636 22.0652   1
  -2  -6  -7 1623.67 85.8353   4
   2   6   7 1601.22 96.2498   3
  -2  -6  -7 1591.95 96.7639   1
  -2  -6  -8 6053.98 197.184   1
  -2  -6  -8 6481.13 179.190   4
   2   6   8 6429.09 194.263   3
  -2  -6  -9 9804.43 264.694   1
   2   6   9 10046.3 251.913   3
  -2  -6  -9 10158.8 237.798   4
  -2  -6 -10 170.246 52.1819   1
   2   6  10 269.981 47.5232   3
  -2  -6 -10 245.419 48.1271   4
   2   6  11 17.9486 27.9787   3
  -2  -6 -11 29.6633 27.7015   4
  -2  -6 -11 21.2349 36.0889   1
  -2  -6 -11-9.49388 24.3308   5
  -2  -6 -12 12.5000 33.1166   1
  -2  -6 -12 91.8438 32.1242   5
   2   6  12 81.5978 46.5886   3
   2   6  13 222.897 58.4908   3
  -2  -6 -13 120.412 46.0228   1
  -2  -6 -13 175.755 47.3956   5
  -2  -6 -14 341.160 70.0754   1
  -2  -6 -14 297.175 56.1965   5
   2   6  14 439.645 70.8640   3
  -2  -6 -15 240.014 62.9777   1
  -2  -6 -16 208.872 69.6168   1
  -2  -6 -17 173.885 60.5826   1
  -2  -6 -18 407.803 89.0483   1
  -2  -6 -19 688.965 115.289   1
   2   7 -12 186.385 61.9213   2
  -2  -7  11 710.671 114.952   4
   2   7 -11 803.928 121.399   2
  -2  -7  10 1151.88 137.562   4
   2   7 -10 1308.66 145.110   2
  -2  -7   9 1341.15 140.838   4
   2   7  -9 1390.79 145.139   2
   2   7  -8 144.555 59.3195   2
  -2  -7   8 183.403 61.4401   4
  -2  -7   7 326.543 71.7702   4
   2   7  -7 364.705 77.0845   2
  -2  -7   6 357.246 69.5680   4
   2   7  -6 431.161 81.7014   2
  -2  -7   5 44.2697 35.7935   4
   2   7  -5 52.9852 46.3107   2
   2   7  -4 333.659 75.4367   2
  -2  -7   4 287.970 54.6743   4
  -2  -7   3 1051.47 94.0382   4
   2   7  -3 1046.50 102.349   2
  -2  -7   2-1.27714 31.5508   4
   2   7  -2 3.10460 29.2610   2
   2   7  -1 35.6573 32.5788   2
  -2  -7   1 37.6219 35.0854   4
   2   7   0 1509.27 100.191   2
  -2  -7   0 1566.32 97.4298   4
   2   7   1 3740.20 145.694   2
  -2  -7  -1 3823.34 143.087   4
  -2  -7  -2 2067.56 102.912   4
  -2  -7  -2 1977.82 89.9123   1
   2   7   2 2063.18 99.4080   2
   2   7   3 4596.25 133.795   2
  -2  -7  -3 4210.86 132.360   1
  -2  -7  -3 4774.90 149.110   4
  -2  -7  -4 7248.43 178.241   1
   2   7   4 6567.14 139.412   2
   2   7   5 1438.75 58.5463   2
  -2  -7  -5 1518.52 87.0780   4
  -2  -7  -5 1527.44 87.1458   1
  -2  -7  -6 948.371 73.7738   1
  -2  -7  -6 1011.01 73.4935   4
   2   7   6 934.326 39.4896   2
  -2  -7  -7 6499.26 181.436   4
   2   7   7 6139.45 190.629   3
  -2  -7  -7 6281.64 193.947   1
  -2  -7  -8 1427.33 90.5928   4
   2   7   8 1347.85 95.6289   3
  -2  -7  -8 1423.94 98.1782   1
   2   7   9 43.8890 27.3274   3
  -2  -7  -9 75.6749 30.2292   4
  -2  -7  -9 20.1167 25.7764   1
   2   7  10 47.8022 34.4605   3
  -2  -7 -10 21.6997 33.7365   1
  -2  -7 -10 64.2576 29.0683   4
   2   7  11 83.5686 42.7747   3
  -2  -7 -11 10.8670 27.4588   4
  -2  -7 -11 95.5314 37.8143   1
  -2  -7 -11 34.8593 24.3169   5
  -2  -7 -12 27.3164 29.1791   4
   2   7  12 62.4279 38.6565   3
  -2  -7 -12 27.0510 33.9100   1
  -2  -7 -12 48.7536 27.9038   5
   2   7  13 165.691 49.2108   3
  -2  -7 -13 134.092 37.4006   5
  -2  -7 -13 111.909 51.1976   1
  -2  -7 -14-6.83349 39.5044   1
  -2  -7 -14-43.7040 35.8571   5
   2   7  14 40.3098 36.1128   3
  -2  -7 -15 301.875 70.1473   1
   2   7  15 294.010 66.0801   3
  -2  -7 -16 541.564 92.1708   1
  -2  -7 -17 327.020 80.2795   1
  -2  -7 -18 916.280 126.311   1
  -2  -7 -19 261.933 77.3052   1
   2   8 -11 972.808 139.813   2
  -2  -8  11 936.429 137.011   4
  -2  -8  10 1098.44 136.507   4
   2   8 -10 1199.56 147.501   2
   2   8  -9 1208.77 142.858   2
  -2  -8   9 911.038 118.611   4
  -2  -8   8 771.250 108.487   4
   2   8  -8 962.880 130.059   2
   2   8  -7 181.956 63.6205   2
  -2  -8   7 170.082 59.5192   4
  -2  -8   6 14.2375 40.8955   4
   2   8  -6 9.14293 40.3569   2
   2   8  -5 915.829 113.442   2
  -2  -8   5 873.898 96.4901   4
  -2  -8   4 1245.09 112.861   4
   2   8  -4 1572.51 138.626   2
  -2  -8   3 316.489 57.8270   4
   2   8  -3 358.074 69.1761   2
   2   8  -2 59.5603 34.7011   2
  -2  -8   2 67.5275 35.1469   4
  -2  -8   1 607.175 68.7346   4
   2   8  -1 463.323 69.7409   2
   2   8   0 4676.63 187.579   2
  -2  -8   0 4690.01 182.339   4
   2   8   1 3742.60 155.703   2
  -2  -8  -1 3679.35 155.372   4
   2   8   2 5845.77 181.630   2
  -2  -8  -2 6134.61 189.666   4
  -2  -8  -2 5267.16 153.788   1
  -2  -8  -3 4540.86 159.450   4
  -2  -8  -3 3985.57 132.073   1
   2   8   3 4560.01 146.513   2
  -2  -8  -4 4799.47 160.991   4
  -2  -8  -4 4072.45 137.945   1
   2   8   4 4425.87 132.580   2
  -2  -8  -5 5387.83 166.802   1
  -2  -8  -5 6021.87 177.821   4
  -2  -8  -6 2033.32 107.636   1
  -2  -8  -6 2160.00 107.957   4
   2   8   6 1990.80 66.7559   2
  -2  -8  -7 1167.74 86.2094   1
  -2  -8  -7 1128.22 80.9001   4
   2   8   8 2782.88 138.844   3
  -2  -8  -8 2932.34 141.694   1
  -2  -8  -8 2840.32 132.809   4
  -2  -8  -9 1515.93 100.211   4
   2   8   9 1473.98 104.614   3
  -2  -8  -9 1575.88 110.788   1
   2   8  10 120.061 40.6026   3
  -2  -8 -10 60.5376 35.5474   4
  -2  -8 -10 10.9045 29.6950   1
  -2  -8 -11 1383.87 104.218   4
  -2  -8 -11 1180.85 107.638   1
   2   8  11 1340.94 106.250   3
  -2  -8 -12 1794.46 107.965   5
   2   8  12 1865.78 131.356   3
  -2  -8 -12 1796.57 134.223   1
  -2  -8 -12 1800.08 122.278   4
  -2  -8 -13 1249.55 97.4363   5
  -2  -8 -13 1129.20 105.149   4
  -2  -8 -13 1017.10 110.722   1
   2   8  13 1048.35 100.184   3
  -2  -8 -14 2.87117 39.5486   1
  -2  -8 -14-48.7543 30.7802   5
   2   8  14-21.7482 33.5933   3
   2   8  15 95.3633 44.1954   3
  -2  -8 -15 77.6009 51.6019   1
  -2  -8 -16 1163.87 133.020   1
   2   8  16 872.505 99.8012   3
  -2  -8 -17 1175.22 144.090   1
  -2  -8 -18 617.273 109.592   1
  -2  -8 -19 409.601 90.8539   1
  -2  -9  10 620.533 109.891   4
   2   9 -10 899.417 139.477   2
  -2  -9   9 399.007 95.9290   4
   2   9  -9 568.238 108.585   2
  -2  -9   8 69.5801 50.6358   4
   2   9  -8 183.256 71.6515   2
   2   9  -7 423.190 93.9239   2
  -2  -9   7 337.179 79.4191   4
   2   9  -6 282.646 80.0517   2
  -2  -9   6 273.927 69.5531   4
  -2  -9   5 61.0844 48.4601   4
   2   9  -5 8.10912 48.9954   2
  -2  -9   4 187.134 55.7753   4
   2   9  -4 267.043 63.4401   2
  -2  -9   3 89.9138 41.8963   4
   2   9  -3 4.80235 42.6497   2
   2   9  -2 348.948 72.6086   2
  -2  -9   2 429.134 70.5485   4
   2   9  -1 2374.35 151.053   2
  -2  -9   1 2173.27 137.005   4
   2   9   0 2574.38 148.891   2
  -2  -9   0 2836.04 151.465   4
   2   9   1 3068.23 152.034   2
  -2  -9  -1 2798.78 113.477   1
  -2  -9  -1 3084.72 151.767   4
   2   9   2 924.854 83.4969   2
  -2  -9  -2 950.102 83.0068   4
   2   9   3 1474.75 92.9944   2
  -2  -9  -3 1547.23 103.108   4
  -2  -9  -3 1128.88 74.6400   1
  -2  -9  -4 235.400 44.9174   4
  -2  -9  -4 237.101 39.4448   1
   2   9   4 266.294 39.8296   2
   2   9   5 401.814 41.3879   2
  -2  -9  -5 594.172 60.6892   1
  -2  -9  -5 655.161 68.8929   4
  -2  -9  -6 2053.19 110.552   1
  -2  -9  -6 2268.60 119.056   4
  -2  -9  -7 517.736 61.8581   1
  -2  -9  -7 488.381 60.6909   4
  -2  -9  -8 823.072 78.6603   4
  -2  -9  -8 725.221 76.4290   1
  -2  -9  -9 12.9540 28.8829   4
  -2  -9  -9-12.0439 31.0892   1
   2   9   9-32.7138 34.3239   3
  -2  -9 -10-20.9203 36.7117   1
   2   9  10 17.4808 34.0587   3
  -2  -9 -10 30.6937 30.9436   4
  -2  -9 -11 968.265 98.5370   1
  -2  -9 -11 1122.71 96.0030   4
   2   9  11 1111.31 102.482   3
  -2  -9 -12 2042.81 133.055   4
   2   9  12 1945.92 133.781   3
  -2  -9 -12 2002.23 144.536   1
  -2  -9 -13 1951.19 137.422   4
  -2  -9 -13 1851.77 145.488   1
   2   9  13 2038.58 140.625   3
  -2  -9 -14 187.160 61.2609   1
   2   9  14 319.493 64.1554   3
  -2  -9 -14 365.595 70.4988   4
  -2  -9 -15 476.453 87.4401   1
   2   9  15 413.797 70.7542   3
  -2  -9 -16 220.691 69.2608   1
   2   9  16 173.336 59.1687   3
  -2  -9 -17 97.6358 55.8775   1
  -2  -9 -18 631.572 104.961   1
  -2  -9 -19 393.575 91.5711   1
   2  10  -9 359.835 91.6390   2
  -2 -10   9 506.520 102.133   4
   2  10  -8 566.554 109.941   2
  -2 -10   8 171.030 56.1341   4
  -2 -10   7-0.19261 47.1252   4
   2  10  -7 184.154 65.8300   2
  -2 -10   6 27.3246 42.9500   4
   2  10  -6 81.0943 56.0154   2
   2  10  -5 142.055 65.8189   2
  -2 -10   5 119.780 51.6681   4
   2  10  -4 391.253 77.8157   2
  -2 -10   4 235.625 63.2415   4
  -2 -10   3 250.716 64.6412   4
   2  10  -3 234.474 67.1570   2
   2  10  -2-10.1401 38.2478   2
  -2 -10   2-23.9421 35.1332   4
   2  10  -1 1942.03 145.220   2
  -2 -10   1 1877.08 135.953   4
   2  10   0 2611.94 158.362   2
  -2 -10   0 2510.93 152.371   4
  -2 -10  -1 1026.52 95.6105   4
   2  10   1 876.437 89.0983   2
   2  10   2 1482.88 107.226   2
  -2 -10  -2 1543.78 114.256   4
  -2 -10  -3 434.305 60.2846   4
   2  10   3 370.533 52.1593   2
  -2 -10  -3 384.815 46.9496   1
  -2 -10  -4 208.800 36.6097   1
   2  10   4 287.551 45.4746   2
  -2 -10  -4 355.892 52.3540   4
  -2 -10  -5 1732.14 100.268   1
  -2 -10  -5 1876.28 114.804   4
  -2 -10  -6 125.268 38.3415   4
  -2 -10  -6 116.617 37.9637   1
  -2 -10  -7 166.482 43.5495   1
  -2 -10  -7 121.568 39.5890   4
  -2 -10  -8 646.161 71.0795   4
  -2 -10  -8 639.878 70.3320   1
  -2 -10  -9 24.6769 30.4161   1
  -2 -10  -9-13.8602 25.5838   4
  -2 -10 -10 126.622 42.4815   4
  -2 -10 -10 127.319 43.2901   1
   2  10  10 68.7148 36.8408   3
  -2 -10 -11 39.5136 44.6221   1
  -2 -10 -11 46.2952 41.4173   4
   2  10  11 4.15938 38.9819   3
  -2 -10 -12 1578.11 121.661   4
   2  10  12 1285.60 114.985   3
  -2 -10 -12 1354.62 120.364   1
  -2 -10 -13 83.7305 39.0987   4
   2  10  13 13.6234 36.1168   3
  -2 -10 -13 62.5329 42.4048   1
  -2 -10 -14 22.7351 35.9065   1
   2  10  14 108.406 54.5118   3
  -2 -10 -14-8.83067 37.3369   4
  -2 -10 -15 212.045 64.7977   1
   2  10  15 236.057 63.7778   3
  -2 -10 -15 120.726 50.3545   4
  -2 -10 -16 163.182 55.0694   1
   2  10  16 284.121 68.7480   3
   2  10  17 279.482 73.6522   3
  -2 -10 -17 233.033 70.6033   1
  -2 -10 -18 196.676 68.1248   1
  -2 -10 -19 462.843 101.090   1
  -2 -11   8-83.7183 57.4062   4
   2  11  -8-60.4708 58.6569   2
  -2 -11   7 25.2793 44.9739   4
   2  11  -7 64.9251 53.7933   2
  -2 -11   6 27.3495 47.7102   4
   2  11  -6 21.7737 49.4433   2
   2  11  -5 121.961 64.6846   2
  -2 -11   5 161.803 61.8344   4
  -2 -11   4 560.380 97.4783   4
   2  11  -4 592.223 105.241   2
  -2 -11   3 67.9552 48.4837   4
   2  11  -3 70.2580 51.2252   2
   2  11  -2 344.152 73.1769   2
  -2 -11   2 362.594 73.4978   4
  -2 -11   1 788.933 98.8722   4
   2  11  -1 767.349 102.066   2
  -2 -11   0 2409.98 155.386   4
   2  11   0 2762.45 170.462   2
  -2 -11  -1 3297.76 179.684   4
   2  11   1 3059.00 167.233   2
   2  11   2 1997.61 129.994   2
  -2 -11  -2 1919.62 130.378   4
  -2 -11  -3 842.805 89.6557   4
   2  11   3 619.873 70.8963   2
  -2 -11  -4 8.91118 30.2849   4
   2  11   4 1.21307 24.9397   2
  -2 -11  -4-0.22051 19.7716   1
  -2 -11  -5 98.5648 28.6552   1
  -2 -11  -5 151.531 44.3067   4
  -2 -11  -6 12.7188 21.8035   1
  -2 -11  -6-12.7053 29.7949   4
  -2 -11  -7 38.9097 26.7066   1
  -2 -11  -7 112.159 43.2826   4
  -2 -11  -8 451.955 67.3310   4
  -2 -11  -8 385.063 57.4150   1
  -2 -11  -9 517.627 69.2680   4
  -2 -11  -9 543.936 70.9261   1
  -2 -11 -10 843.153 87.1084   4
  -2 -11 -10 764.208 84.8619   1
  -2 -11 -11 595.211 82.4666   1
  -2 -11 -11 810.782 90.9004   4
   2  11  11 598.337 78.3663   3
   2  11  12 278.486 59.8967   3
  -2 -11 -12 290.201 59.6657   4
  -2 -11 -12 317.815 62.8877   1
  -2 -11 -13 553.512 79.4724   4
   2  11  13 386.524 69.2387   3
  -2 -11 -13 530.370 86.9871   1
  -2 -11 -14 230.271 60.3285   4
  -2 -11 -14 100.017 48.5647   1
   2  11  14 88.1569 53.8721   3
  -2 -11 -15 228.543 64.0130   1
  -2 -11 -15 109.092 48.0760   4
   2  11  15 166.535 54.9813   3
  -2 -11 -16 185.479 67.9852   1
   2  11  16 285.406 72.7599   3
  -2 -11 -16 101.030 38.7198   4
  -2 -11 -17 118.665 61.2058   1
   2  11  17 72.4139 47.6048   3
  -2 -11 -18 465.379 101.642   1
  -2 -11 -19 132.166 62.7327   1
   2  12  -6 75.1430 66.1095   2
  -2 -12   6 145.420 65.5274   4
  -2 -12   5 40.5114 40.1575   4
   2  12  -5 224.118 78.4880   2
  -2 -12   4 159.206 68.3279   4
   2  12  -4 141.385 70.2559   2
  -2 -12   3 27.1279 55.2273   4
   2  12  -3 6.04220 48.7546   2
  -2 -12   2 108.769 59.6451   4
   2  12  -2-24.8031 42.5661   2
   2  12  -1 722.358 101.656   2
  -2 -12   1 728.394 97.2461   4
  -2 -12   0 1123.49 113.634   4
   2  12   0 1101.62 117.914   2
  -2 -12  -1 832.919 98.0207   4
   2  12   1 1090.51 110.752   2
   2  12   2 3065.39 169.305   2
  -2 -12  -2 3134.16 179.089   4
  -2 -12  -3 242.126 54.2047   4
   2  12   3 279.174 55.3243   2
   2  12   4-0.18453 24.2676   2
  -2 -12  -4 86.4712 45.6353   4
  -2 -12  -5 50.0243 43.6742   4
  -2 -12  -6 38.2158 28.9601   1
  -2 -12  -6 21.4686 29.4561   4
  -2 -12  -7 539.466 76.7816   4
  -2 -12  -7 472.498 62.9772   1
  -2 -12  -8 42.3867 32.2579   1
  -2 -12  -8-4.11414 31.4055   4
  -2 -12  -9 1042.35 96.5903   1
  -2 -12  -9 1090.52 100.726   4
  -2 -12 -10 1478.94 120.723   1
  -2 -12 -10 1330.50 111.256   4
  -2 -12 -11 962.958 102.009   1
   2  12  11 803.541 97.0894   3
  -2 -12 -11 876.851 97.6171   4
  -2 -12 -12 824.358 100.273   4
   2  12  12 803.564 98.4207   3
  -2 -12 -12 861.762 100.849   1
   2  12  13 637.676 90.5381   3
  -2 -12 -13 700.946 96.5281   1
  -2 -12 -13 629.218 89.8171   4
  -2 -12 -14 775.992 100.917   4
  -2 -12 -14 639.402 94.7601   1
   2  12  14 727.682 95.4747   3
   2  12  15 105.507 62.2628   3
  -2 -12 -15 82.3731 49.7638   1
  -2 -12 -15 73.6433 41.1734   4
   2  12  16 150.889 60.5935   3
  -2 -12 -16 69.2186 55.4276   1
  -2 -12 -16 149.596 53.7598   4
   2  12  17 146.685 58.3766   3
  -2 -12 -17 151.356 63.6634   1
  -2 -12 -17 307.970 82.0003   4
   2  12  18 106.960 64.8401   3
  -2 -12 -18 89.1394 61.2070   1
  -2 -12 -19-48.1020 54.1408   1
  -2 -13   5 230.475 70.5709   4
   2  13  -5 144.539 56.9533   2
  -2 -13   4 145.317 56.5464   4
   2  13  -4 39.8099 50.6797   2
   2  13  -3 308.110 78.4948   2
  -2 -13   3 309.102 78.2630   4
  -2 -13   2 39.1138 58.7431   4
   2  13  -2 99.3376 55.4849   2
  -2 -13   1 585.630 95.4758   4
   2  13  -1 780.902 111.637   2
   2  13   0 390.677 79.8623   2
  -2 -13   0 606.966 95.9202   4
  -2 -13  -1 325.847 71.7036   4
   2  13   1 266.408 66.1590   2
  -2 -13  -2-37.9480 37.2339   4
   2  13   2 47.9201 38.4969   2
  -2 -13  -3 337.755 67.5735   4
   2  13   3 457.527 68.3548   2
  -2 -13  -4 350.113 62.3173   4
  -2 -13  -5 53.4383 47.8712   4
  -2 -13  -6 91.4210 49.8249   4
  -2 -13  -7 25.0862 43.4900   4
  -2 -13  -8 1.63719 32.3636   4
  -2 -13  -8 12.6644 27.4479   1
  -2 -13  -9 826.179 91.8984   4
  -2 -13  -9 881.092 89.9074   1
  -2 -13 -10 2395.00 153.503   1
  -2 -13 -10 2345.80 154.513   4
  -2 -13 -11 2845.03 175.909   1
  -2 -13 -11 2987.53 177.257   4
  -2 -13 -12 1141.91 117.076   1
   2  13  12 1062.82 114.846   3
  -2 -13 -12 1074.02 112.136   4
  -2 -13 -13 876.137 106.377   1
   2  13  13 969.223 114.647   3
  -2 -13 -13 927.432 107.514   4
   2  13  14 422.390 79.8604   3
  -2 -13 -14 661.730 98.8583   1
  -2 -13 -14 644.205 90.2855   4
  -2 -13 -15 71.2908 51.8496   1
   2  13  15 0.33684 47.3620   3
  -2 -13 -15 5.49062 38.7202   4
  -2 -13 -16 41.6418 36.4242   4
  -2 -13 -16 101.926 67.6613   1
   2  13  16 117.903 74.3891   3
   2  13  17 11.8942 45.3089   3
  -2 -13 -17 11.0027 40.7380   4
  -2 -13 -17 38.2733 45.2266   1
   2  13  18 162.038 65.4690   3
  -2 -13 -18 45.3835 45.0493   1
  -2 -14   4 226.490 71.2436   4
   2  14  -4 140.947 68.3869   2
   2  14  -3 522.508 98.9647   2
  -2 -14   3 498.650 92.0161   4
  -2 -14   2 502.059 94.9381   4
   2  14  -2 602.848 102.231   2
   2  14  -1 719.265 108.343   2
  -2 -14   1 737.899 115.348   4
   2  14   0 1096.05 126.618   2
  -2 -14   0 1065.96 125.822   4
  -2 -14  -1 161.941 61.9869   4
   2  14   1 113.264 50.9748   2
  -2 -14  -2-5.18980 44.2386   4
   2  14   2-17.1184 40.7162   2
  -2 -14  -3 90.3827 51.5590   4
  -2 -14  -4 84.9793 43.1114   4
  -2 -14  -5 228.769 61.3353   4
  -2 -14  -6 3.69577 40.5387   4
  -2 -14  -7 58.6788 38.5992   4
  -2 -14  -8 898.607 99.2716   4
  -2 -14  -9 574.160 86.2748   4
  -2 -14 -10 1962.87 148.851   4
  -2 -14 -10 1915.65 139.863   1
  -2 -14 -11 1852.87 144.683   4
  -2 -14 -11 1104.44 112.175   1
  -2 -14 -12 877.287 104.139   1
   2  14  12 912.974 108.928   3
  -2 -14 -12 950.039 109.523   4
   2  14  13 571.649 91.5145   3
  -2 -14 -13 438.776 84.6430   1
  -2 -14 -13 379.497 75.9698   4
  -2 -14 -14 52.0519 50.9508   1
   2  14  14-64.5676 54.6441   3
  -2 -14 -14 68.8162 44.6868   4
  -2 -14 -15 83.2267 53.5865   1
  -2 -14 -15 2.17689 35.7435   4
   2  14  15 40.2909 49.6395   3
  -2 -14 -16 7.41132 41.1012   4
  -2 -14 -16 21.8365 53.7599   1
   2  14  16 122.518 64.0660   3
   2  14  17 36.0824 48.2828   3
  -2 -14 -17-10.4382 48.9868   4
  -2 -14 -17 37.5914 53.9980   1
  -2 -14 -18 71.1828 57.6370   1
   2  14  18 227.054 80.5657   3
   2  14  19 231.522 72.1452   3
   2  15  -3 404.967 90.2488   2
  -2 -15   2 289.149 83.9973   4
   2  15  -2 340.098 86.2578   2
  -2 -15   1 434.419 93.9527   4
   2  15  -1 633.305 110.168   2
  -2 -15   0 971.511 128.850   4
   2  15   0 856.209 116.959   2
  -2 -15  -1 326.260 86.5099   4
   2  15   1 236.221 70.3948   2
  -2 -15  -2 129.677 54.6047   4
  -2 -15  -3 145.487 61.7544   4
  -2 -15  -4 137.426 56.1259   4
  -2 -15  -5 759.175 105.045   4
  -2 -15  -6 596.268 89.2385   4
  -2 -15  -7 729.673 100.252   4
  -2 -15  -8 667.466 91.4593   4
  -2 -15  -9 1128.92 116.369   4
  -2 -15 -10 914.672 110.242   4
  -2 -15 -11 983.735 113.511   4
  -2 -15 -12 671.848 96.4779   4
  -2 -15 -12 467.936 83.4209   1
   2  15  13 330.092 68.6952   3
  -2 -15 -13 163.809 53.3394   4
  -2 -15 -13 241.680 63.0865   1
  -2 -15 -14-13.0062 30.9515   1
  -2 -15 -14-8.27132 46.9013   4
  -2 -15 -15-6.32994 39.7561   4
  -2 -15 -15 45.0264 60.7214   1
   2  15  15 4.53980 51.7510   3
  -2 -15 -16 76.3541 60.6420   1
  -2 -15 -16 39.0156 52.6569   4
   2  15  16 54.1884 45.6656   3
   2  15  17 10.7211 48.2508   3
  -2 -15 -17 97.6960 57.8670   1
  -2 -15 -18-20.3741 47.3151   1
   2  15  18 127.055 70.7603   3
   2  16  -1 298.655 81.6991   2
  -2 -16   1 234.175 77.9394   4
  -2 -16   0 139.497 59.5058   4
   2  16   0 168.590 68.4957   2
  -2 -16  -1-7.38927 37.7714   4
  -2 -16  -2 30.1450 55.5525   4
  -2 -16  -3 270.599 70.2041   4
  -2 -16  -4 1434.87 144.524   4
  -2 -16  -5 740.546 105.530   4
  -2 -16  -6 483.108 86.4870   4
  -2 -16  -7 233.477 64.3580   4
  -2 -16  -8 704.483 98.7947   4
  -2 -16  -9 748.379 101.439   4
  -2 -16 -10 660.122 97.5090   4
  -2 -16 -11 547.615 91.3995   4
  -2 -16 -12 118.997 51.3430   4
   2  16  13 103.352 53.4325   3
  -2 -16 -13 41.2381 45.5202   4
  -2 -16 -14 74.2935 54.8490   1
   2  16  14-16.5038 46.2204   3
  -2 -16 -14 23.7882 40.0009   4
  -2 -16 -15 214.375 73.2167   4
   2  16  15 25.0881 45.1472   3
  -2 -16 -15 122.773 48.7584   1
  -2 -16 -16 103.354 61.5766   1
   2  16  16 107.213 61.5763   3
  -2 -16 -16 131.102 55.2010   4
  -2 -16 -17 19.3833 39.9822   1
   2  16  17 61.0024 59.2651   3
  -2 -17  -1 137.400 65.1497   4
  -2 -17  -2 10.5722 42.6714   4
  -2 -17  -3 207.970 69.4504   4
  -2 -17  -4 330.400 78.9448   4
  -2 -17  -5 830.991 116.449   4
  -2 -17  -6 284.155 69.3247   4
  -2 -17  -7 49.6948 54.2133   4
  -2 -17  -8 158.840 60.1754   4
  -2 -17  -9 250.739 66.7225   4
  -2 -17 -10 62.8843 47.2690   4
  -2 -17 -11 320.001 71.9056   4
  -2 -17 -12 220.993 63.4328   4
   2  17  13 39.5650 53.9831   3
  -2 -17 -13 135.360 67.7517   4
   2  17  14 75.9865 65.4705   3
  -2 -17 -14 33.9430 43.7526   4
   2  17  15 138.451 54.2475   3
  -2 -17 -15 174.572 70.6956   4
  -2 -17 -16-22.1100 40.7837   1
   2  17  16 34.5438 51.2667   3
  -2 -17 -17 279.755 84.7020   1
  -2 -18  -4 474.122 95.5482   4
  -2 -18  -5 294.257 74.4405   4
  -2 -18  -6 244.425 67.6026   4
  -2 -18  -7 130.413 62.3553   4
  -2 -18  -8 76.5229 41.6639   4
  -2 -18  -9 297.868 83.4718   4
  -2 -18 -10 45.9673 44.2505   4
  -2 -18 -11 42.2366 57.4936   4
  -2 -18 -12-26.1933 44.5946   4
  -2 -18 -13-84.9146 43.8953   4
   2  18  13-37.2712 57.0042   3
   2  18  14 510.783 101.197   3
  -2 -18 -14 353.313 91.5479   4
  -2 -19  -7 113.055 62.3901   4
  -2 -19  -8 107.458 58.7870   4
  -2 -19  -9-31.1817 44.8979   4
  -2 -19 -10 195.626 80.9804   4
  -2 -19 -11 27.0951 50.0721   4
  -2 -19 -12-49.5504 46.3110   4
  -2 -19 -13 107.567 54.0137   4
   3 -18 -12 16.9100 63.1757   4
   3 -18 -11 53.3794 56.1873   4
   3 -18 -10 97.6887 58.0060   4
   3 -18  -9 44.0697 49.0889   4
   3 -18  -8 74.1869 61.2692   4
   3 -18  -7 246.845 84.8799   4
   3 -18  -6 4.02639 51.6288   4
   3 -18  -5 70.4776 54.5573   4
   3 -18  -4 259.550 81.1830   4
   3 -17 -14-52.3206 50.6946   4
   3 -17 -13 183.192 74.2556   4
   3 -17 -12 434.061 97.7895   4
   3 -17 -11 42.0956 50.0578   4
   3 -17 -10 41.2810 60.0780   4
   3 -17  -9-57.7436 60.7160   4
   3 -17  -8-0.41381 45.3350   4
   3 -17  -7 422.946 98.7922   4
   3 -17  -6 46.3116 46.3743   4
   3 -17  -5 277.462 76.0372   4
   3 -17  -4 40.1769 49.9667   4
   3 -17  -3 158.586 74.3397   4
   3 -17  -2 1019.80 138.480   4
   3 -17  -1 399.262 93.1546   4
   3 -16 -15 155.525 75.8233   4
   3 -16 -14 26.3439 51.8187   4
   3 -16 -13 359.060 90.0680   4
   3 -16 -12 58.2672 49.7064   4
   3 -16 -11 119.179 64.9125   4
   3 -16 -10 45.4433 55.1075   4
   3 -16  -9 652.831 106.110   4
   3 -16  -8 591.477 97.6921   4
   3 -16  -7 76.4428 61.3304   4
   3 -16  -6 216.540 71.0485   4
   3 -16  -5 514.056 95.8097   4
   3 -16  -4 44.6608 51.0430   4
   3 -16  -3 187.702 66.3457   4
   3 -16  -2 352.457 86.9055   4
   3 -16  -1 636.717 111.070   4
   3 -16  -1 488.202 92.7227   3
   3 -16   0 115.859 64.6592   4
   3 -16   0 131.785 64.1531   3
  -3  16   0 72.8353 58.0366   2
  -3  16  -1 48.4703 45.0916   2
   3 -16   1 49.5747 55.5195   4
  -3  16  -2-30.4090 45.5208   2
   3 -15 -17 204.334 68.5910   1
   3 -15 -16 142.846 56.7290   1
   3 -15 -16 48.4572 66.5544   4
   3 -15 -15 16.6703 53.0655   4
   3 -15 -14-25.3104 44.7098   4
   3 -15 -13 185.064 68.1585   4
   3 -15 -12 164.231 63.1851   4
   3 -15 -11 147.135 66.7510   4
   3 -15 -10 32.7727 56.6110   4
   3 -15  -9 153.388 62.8786   4
   3 -15  -8 1507.92 148.391   4
   3 -15  -7 196.753 61.4328   4
   3 -15  -6 1072.05 124.252   4
   3 -15  -5 324.134 77.2209   4
   3 -15  -4 104.956 60.9279   4
   3 -15  -3 74.4796 57.7471   3
   3 -15  -3 29.7525 43.1915   4
   3 -15  -2 323.306 82.6909   3
   3 -15  -2 408.224 83.3956   4
   3 -15  -1 527.285 100.159   3
   3 -15  -1 427.087 89.8929   4
  -3  15   1 341.925 76.8032   2
   3 -15   0 283.213 81.0464   4
   3 -15   0 154.491 59.8652   3
  -3  15   0 140.461 57.0443   2
  -3  15  -1-60.7648 39.5249   2
   3 -15   1 13.2097 49.9505   4
  -3  15  -2 543.567 103.617   2
   3 -15   2 512.729 101.525   4
  -3  15  -3 213.627 82.5730   2
   3 -15   3 163.132 69.2670   4
   3 -14 -17 352.885 86.9472   1
   3 -14 -17 249.294 86.5512   4
   3 -14 -16 44.6415 41.6511   1
   3 -14 -16 79.8630 62.8384   4
   3 -14 -15 42.2738 39.3775   1
   3 -14 -15 80.1061 47.7800   4
   3 -14 -14 44.0716 46.9929   1
   3 -14 -14 23.2236 45.5143   4
   3 -14 -13 71.9805 56.9766   4
   3 -14 -13 45.9050 44.8713   1
   3 -14 -12 13.7336 43.5874   4
   3 -14 -11-33.4309 48.1443   4
   3 -14 -10 337.182 81.5082   4
   3 -14  -9 1680.62 149.563   4
   3 -14  -8 682.542 97.4631   4
   3 -14  -7 1392.62 136.963   4
   3 -14  -6 2791.85 185.021   4
   3 -14  -5 229.515 63.1416   4
   3 -14  -4 466.519 84.5980   3
   3 -14  -4 495.987 88.9426   4
   3 -14  -3 676.642 93.8792   3
   3 -14  -3 780.940 103.023   4
   3 -14  -2 287.843 67.5957   3
  -3  14   2 291.053 74.6121   2
   3 -14  -2 330.626 72.8087   4
  -3  14   1 349.341 74.0819   2
   3 -14  -1 315.598 75.9591   4
   3 -14   0-0.33322 42.7122   3
  -3  14   0-17.7043 43.7791   2
   3 -14   0 97.2111 60.2475   4
   3 -14   1 4.31527 47.2950   4
   3 -14   1 14.6487 35.8998   3
  -3  14  -1-23.3520 45.3306   2
  -3  14  -2 412.875 89.2604   2
   3 -14   2 517.018 96.6431   4
   3 -14   3 627.927 106.370   4
  -3  14  -3 739.868 118.636   2
   3 -14   4 510.892 96.9141   4
  -3  14  -4 368.743 87.7325   2
   3 -14   5 14.8330 50.3148   4
  -3  14  -5 9.04829 54.2242   2
   3 -13 -17 297.136 85.8366   4
   3 -13 -17 329.071 86.9505   1
   3 -13 -16 49.1002 40.9829   4
   3 -13 -16 15.8527 39.1499   1
   3 -13 -15 85.5397 58.4326   1
   3 -13 -15 40.0376 47.8579   4
   3 -13 -14-51.1837 58.9779   4
   3 -13 -14 12.5356 37.5804   1
   3 -13 -13-9.97285 29.8331   1
   3 -13 -13-2.32528 41.7871   4
   3 -13 -12 83.2977 43.3596   1
   3 -13 -12 30.1596 48.5852   4
   3 -13 -11 179.928 52.5886   1
   3 -13 -11 154.000 62.7616   4
   3 -13 -10 1006.33 117.747   4
   3 -13  -9 2700.65 185.301   4
   3 -13  -8 875.204 105.739   4
   3 -13  -7 2104.42 158.022   4
   3 -13  -6 1489.72 131.651   4
   3 -13  -5 321.940 75.1921   3
   3 -13  -5 522.588 82.4577   4
   3 -13  -4 37.6447 48.6695   3
   3 -13  -4 107.320 48.0892   4
   3 -13  -3 194.685 59.0441   3
  -3  13   3 163.554 49.0743   2
   3 -13  -3 258.429 61.5242   4
   3 -13  -2 131.539 56.4363   3
  -3  13   2 143.785 54.0627   2
   3 -13  -2 77.0039 51.8969   4
  -3  13   1 37.6579 43.5105   2
   3 -13  -1 0.15058 48.3425   3
   3 -13  -1 51.9827 52.5167   4
   3 -13   0 118.568 53.6560   4
   3 -13   0 62.6236 51.0834   3
  -3  13   0 81.3546 48.3345   2
  -3  13  -1 615.089 100.140   2
   3 -13   1 446.881 84.5206   4
   3 -13   1 550.691 86.5195   3
   3 -13   2 613.587 96.1162   4
   3 -13   2 575.317 92.2835   3
  -3  13  -2 536.116 100.010   2
   3 -13   3 860.636 117.859   4
  -3  13  -3 638.602 109.403   2
   3 -13   4 351.317 82.9694   4
  -3  13  -4 450.954 94.6584   2
   3 -13   5 609.583 104.214   4
  -3  13  -5 215.682 74.5099   2
   3 -13   6 346.139 90.3657   4
  -3  13  -6 453.934 99.3852   2
   3 -12 -18 567.820 110.353   1
   3 -12 -17 102.457 61.2197   1
   3 -12 -17 149.447 62.1983   4
   3 -12 -16 0.81595 44.1454   1
   3 -12 -16 29.5115 52.2609   4
   3 -12 -15 95.7103 53.5269   1
   3 -12 -15 91.2981 63.3360   4
   3 -12 -14-19.5025 41.9161   4
   3 -12 -14-7.28161 44.2382   1
   3 -12 -13 8.24253 45.1118   1
   3 -12 -13-34.4906 46.8935   4
   3 -12 -12 271.484 62.1100   1
   3 -12 -12 226.391 69.9255   4
   3 -12 -11-12.4018 34.6264   1
   3 -12 -11-22.0622 39.5025   4
   3 -12 -10 1011.85 103.061   1
   3 -12 -10 963.730 112.773   4
   3 -12  -9 1619.89 122.088   1
   3 -12  -9 1865.70 146.776   4
   3 -12  -8 1313.46 122.047   4
   3 -12  -7 2075.92 151.266   4
   3 -12  -6 128.262 47.3143   3
   3 -12  -6 120.017 43.7609   4
   3 -12  -5 34.4146 46.1639   3
   3 -12  -5-9.61152 38.2215   4
   3 -12  -4 142.944 52.9864   3
   3 -12  -4 38.9409 39.1491   4
   3 -12  -3 19.0989 38.9745   3
   3 -12  -3 102.667 48.7452   4
  -3  12   3 6.28582 37.6794   2
   3 -12  -2-8.05549 38.1303   3
  -3  12   2 31.1232 36.4463   2
   3 -12  -2 112.820 50.2103   4
   3 -12  -1 103.259 50.7348   4
   3 -12  -1 24.2491 39.3097   3
  -3  12   1 59.0033 41.9347   2
   3 -12   0 71.7445 52.6980   3
   3 -12   0 58.4059 44.1923   4
  -3  12   0-53.0558 43.1239   2
   3 -12   1 350.970 72.2909   4
   3 -12   1 505.241 78.5516   3
  -3  12  -1 435.796 82.7931   2
   3 -12   2 903.702 105.479   3
  -3  12  -2 892.216 114.147   2
   3 -12   2 939.772 113.234   4
  -3  12  -3 1347.13 138.518   2
   3 -12   3 1258.18 133.872   4
   3 -12   3 1265.29 127.886   3
  -3  12  -4 420.943 97.1746   2
   3 -12   4 349.498 85.4909   4
  -3  12  -5 398.225 91.1550   2
   3 -12   5 427.619 91.3036   4
  -3  12  -6 163.456 65.3913   2
   3 -12   6 326.161 81.7696   4
  -3  12  -7 66.4621 60.8217   2
   3 -12   7 63.2765 56.0953   4
   3 -11 -18 143.755 63.4437   1
   3 -11 -17-22.5160 52.2847   1
   3 -11 -16-6.26454 40.1533   4
   3 -11 -16 68.0690 51.2303   1
   3 -11 -15 144.921 63.1839   1
   3 -11 -15 147.048 65.1340   4
   3 -11 -14 587.071 100.387   1
   3 -11 -14 579.793 99.6052   4
   3 -11 -13 87.5637 47.9013   1
   3 -11 -13 72.6489 52.8192   4
   3 -11 -12 261.624 63.9527   4
   3 -11 -12 258.863 63.6481   1
   3 -11 -11 144.159 52.3368   1
   3 -11 -11 116.351 51.9220   4
   3 -11 -10 267.301 58.5802   1
   3 -11 -10 292.407 64.0173   4
   3 -11  -9 164.944 47.0207   1
   3 -11  -9 150.846 55.6228   4
   3 -11  -8 1302.03 103.560   1
   3 -11  -8 1368.41 121.465   4
   3 -11  -7 1585.95 125.660   4
   3 -11  -6 94.4479 44.1013   3
   3 -11  -6 124.313 53.8435   4
   3 -11  -5 83.6640 47.8757   4
   3 -11  -5 85.4492 51.3042   3
   3 -11  -4-36.8641 40.0309   3
   3 -11  -4 27.8967 37.7430   4
   3 -11  -3 264.343 60.1367   3
   3 -11  -3 235.416 50.4144   4
   3 -11  -2-3.62578 35.5026   3
   3 -11  -2 64.3339 45.3929   4
   3 -11  -1 704.868 91.8839   4
  -3  11   1 793.641 85.6199   2
   3 -11  -1 713.540 84.7320   3
   3 -11   0 860.827 101.286   3
  -3  11   0 905.255 100.787   2
   3 -11   0 782.994 93.0397   4
   3 -11   1-47.4847 39.7837   3
   3 -11   1 52.5098 49.6791   4
  -3  11  -1 60.5457 54.1509   2
   3 -11   2 271.209 62.4422   4
   3 -11   2 355.098 71.7214   3
  -3  11  -2 208.781 63.9462   2
   3 -11   3 772.021 92.2327   3
  -3  11  -3 811.725 110.068   2
   3 -11   3 833.312 107.075   4
   3 -11   4 334.934 70.5736   3
   3 -11   4 397.220 78.4289   4
  -3  11  -4 348.878 81.7911   2
   3 -11   5 346.674 80.0528   4
  -3  11  -5 366.081 88.4992   2
   3 -11   6 466.918 90.7001   4
  -3  11  -6 174.938 74.9952   2
   3 -11   7 67.5468 56.7936   4
  -3  11  -7 4.22724 54.3549   2
   3 -11   8 120.519 57.8100   4
  -3  11  -8 390.303 94.9936   2
   3 -11   9 39.9491 48.7656   4
   3 -10 -18-17.3088 59.7474   1
   3 -10 -17 211.041 71.1473   1
   3 -10 -16-33.0367 45.5873   1
   3 -10 -15 714.705 107.010   4
   3 -10 -15 762.946 112.555   1
   3 -10 -14 452.156 86.7549   4
   3 -10 -14 441.151 87.4083   1
   3 -10 -13 82.5488 48.3700   1
   3 -10 -13 47.3904 58.2211   4
   3 -10 -12 74.1459 58.7477   4
   3 -10 -12 91.3511 51.7885   1
   3 -10 -11 377.739 76.7849   4
   3 -10 -11 217.786 59.7961   1
   3 -10 -10 335.847 66.0201   1
   3 -10 -10 271.152 61.2938   4
   3 -10  -9 188.681 54.5513   4
   3 -10  -9 278.959 57.5614   1
   3 -10  -8 3223.99 160.612   1
   3 -10  -8 3693.00 187.393   4
   3 -10  -7 1083.77 91.0188   1
   3 -10  -7 1039.76 101.989   4
   3 -10  -6 1160.17 87.2961   1
   3 -10  -6 1257.01 107.768   4
   3 -10  -6 1393.70 115.091   3
   3 -10  -5-4.08985 32.9435   3
   3 -10  -5 31.7703 36.8690   4
   3 -10  -4 390.320 65.9271   3
   3 -10  -4 434.538 67.8583   4
   3 -10  -3 25.2687 38.5343   3
   3 -10  -3 64.8084 34.2229   4
   3 -10  -2 88.6806 39.2991   4
   3 -10  -2 102.278 44.5068   3
   3 -10  -1 10.7447 30.1385   4
   3 -10  -1 34.5156 45.2336   3
   3 -10   0 1199.58 111.555   3
   3 -10   0 1017.23 99.1631   4
   3 -10   1 106.284 42.8999   4
  -3  10  -1 150.747 41.2021   2
   3 -10   1 184.848 58.3939   3
   3 -10   2 1719.77 130.105   3
  -3  10  -2 1460.39 129.744   2
   3 -10   2 1767.37 133.648   4
   3 -10   3 1537.66 126.618   3
  -3  10  -3 1457.54 136.693   2
   3 -10   3 1484.61 129.617   4
   3 -10   4 1064.08 108.515   3
  -3  10  -4 1189.20 131.011   2
   3 -10   4 1132.73 117.082   4
  -3  10  -5 863.434 113.503   2
   3 -10   5 653.792 97.5531   4
   3 -10   6 247.540 74.4280   4
  -3  10  -6 8.93748 57.8497   2
   3 -10   7 47.4269 49.2371   4
  -3  10  -7-24.0585 48.3761   2
  -3  10  -8 347.669 94.0577   2
   3 -10   8 262.081 76.6522   4
   3 -10   9 136.422 64.0464   4
  -3  10  -9 48.3864 58.1438   2
   3 -10  10 67.0929 68.6297   4
   3  -9 -18-19.7490 47.9157   1
   3  -9 -17 284.049 80.9069   1
   3  -9 -16 371.883 91.2919   1
   3  -9 -15-17.9106 50.2589   1
   3  -9 -14 575.759 94.4067   1
   3  -9 -14 650.671 99.6688   4
   3  -9 -13 259.464 62.0563   4
   3  -9 -13 472.931 81.4993   1
   3  -9 -12 56.0046 43.0799   1
   3  -9 -12 61.4438 49.5064   4
   3  -9 -11 747.861 92.2380   4
   3  -9 -11 758.204 95.4679   1
   3  -9 -10 39.6192 37.0440   1
   3  -9 -10 82.9838 40.5184   4
   3  -9  -9 2390.11 145.337   1
   3  -9  -9 2136.97 142.155   4
   3  -9  -8 1907.63 132.563   4
   3  -9  -8 2003.22 125.983   1
   3  -9  -7 640.870 79.9801   4
   3  -9  -7 598.812 66.8524   1
   3  -9  -6 118.708 46.6713   3
   3  -9  -6 148.776 43.5041   4
   3  -9  -6 102.963 33.3743   1
   3  -9  -5 184.859 51.7946   3
   3  -9  -5 177.659 44.1480   4
   3  -9  -5 118.719 26.8393   1
   3  -9  -4 673.316 53.6327   1
   3  -9  -4 642.083 75.6756   3
   3  -9  -4 771.807 81.7845   4
   3  -9  -3 108.631 34.3780   3
   3  -9  -3 259.434 51.0850   4
   3  -9  -2 194.907 46.8059   4
   3  -9  -2 121.205 36.5755   3
   3  -9  -1 1429.66 109.506   4
   3  -9  -1 1641.27 117.305   3
   3  -9   0 2003.45 130.701   3
   3  -9   0 1810.15 124.992   4
   3  -9   1 1223.94 104.836   3
   3  -9   1 1166.66 104.119   4
   3  -9   2 2175.36 137.449   3
   3  -9   2 2108.00 137.755   4
  -3   9  -2 1949.75 141.850   2
   3  -9   3 4931.82 218.548   4
   3  -9   3 5108.68 214.205   3
  -3   9  -3 4871.33 229.934   2
  -3   9  -4 1757.87 144.081   2
   3  -9   4 1713.84 134.344   4
   3  -9   4 1994.52 135.382   3
   3  -9   5 441.414 77.6635   4
   3  -9   5 452.412 72.2367   3
  -3   9  -5 436.013 84.1728   2
   3  -9   6 128.894 55.1346   4
  -3   9  -6 121.833 66.4274   2
  -3   9  -7 15.6256 45.4783   2
   3  -9   7 75.2329 51.3601   4
  -3   9  -8-125.118 70.9943   2
   3  -9   8 78.0378 54.6102   4
  -3   9  -9 44.7380 49.8436   2
   3  -9   9-55.5868 46.9685   4
   3  -9  10-96.2037 52.5216   4
  -3   9 -10-32.7139 51.1751   2
  -3   9 -11 107.004 70.5379   2
   3  -9  11 58.2737 52.5289   4
   3  -8 -18 103.256 63.8898   1
   3  -8 -17 111.511 60.3141   1
   3  -8 -16 278.695 79.9318   1
   3  -8 -15 568.878 99.9803   1
   3  -8 -14 68.6118 48.4392   1
   3  -8 -13 134.427 52.2795   1
   3  -8 -13 93.1026 48.9492   4
   3  -8 -12 393.672 70.8251   4
   3  -8 -12 456.752 78.7025   1
   3  -8 -11 71.7038 43.5634   1
   3  -8 -11 59.3188 45.9288   4
   3  -8 -10 155.006 50.5275   4
   3  -8 -10 79.6520 40.9100   1
   3  -8  -9 1318.00 109.657   1
   3  -8  -9 1508.07 120.665   4
   3  -8  -8 1035.05 90.8501   1
   3  -8  -8 1010.54 94.8276   4
   3  -8  -7 1050.34 86.2654   1
   3  -8  -7 1098.96 95.1436   4
   3  -8  -6 13.2096 27.3502   4
   3  -8  -6 14.0907 25.2731   1
   3  -8  -6 46.2464 37.2653   3
   3  -8  -5 1296.02 101.407   3
   3  -8  -5 1327.28 85.0241   1
   3  -8  -5 1405.96 102.033   4
   3  -8  -4 148.444 29.3417   1
   3  -8  -4 207.882 45.3005   3
   3  -8  -4 204.008 51.4506   4
   3  -8  -3 1867.10 113.736   4
   3  -8  -3 1666.76 75.7209   1
   3  -8  -3 1892.70 117.059   3
   3  -8  -2 2222.88 123.813   4
   3  -8  -2 2204.75 127.820   3
   3  -8  -1 228.031 50.0201   3
   3  -8  -1 241.271 46.9346   4
   3  -8   0 553.343 69.2785   3
   3  -8   0 577.126 66.9745   4
   3  -8   1 3041.10 152.185   3
   3  -8   1 2860.71 146.241   4
   3  -8   2 5216.75 202.091   3
   3  -8   2 4950.91 198.714   4
   3  -8   3 2884.54 150.590   3
   3  -8   3 2801.99 152.750   4
  -3   8  -3 2841.15 169.694   2
  -3   8  -4 1934.26 143.834   2
   3  -8   4 2094.74 135.315   3
   3  -8   4 2034.50 139.977   4
   3  -8   5 527.043 76.5704   4
   3  -8   5 613.310 75.4840   3
  -3   8  -5 410.638 78.6063   2
  -3   8  -5 551.632 65.0533   5
   3  -8   6 32.1779 39.3451   4
   3  -8   6 66.2823 36.7554   3
  -3   8  -6 49.0464 32.8943   5
  -3   8  -6 4.77365 39.7296   2
   3  -8   7 83.0728 49.6808   4
  -3   8  -7 47.6995 58.8310   2
  -3   8  -7 19.2062 33.0326   5
  -3   8  -8 249.754 55.3734   5
  -3   8  -8 457.645 91.8876   2
   3  -8   8 511.325 90.6098   4
  -3   8  -9-22.3141 60.6660   2
  -3   8  -9 13.0920 36.0837   5
   3  -8   9 57.2773 46.5137   4
  -3   8 -10 60.6173 55.7489   2
   3  -8  10 1.50818 46.8756   4
   3  -8  11 121.185 55.3121   4
  -3   8 -11 269.434 86.5234   2
   3  -8  12 393.940 92.1666   4
  -3   8 -12 496.516 106.510   2
   3  -7 -18 109.465 57.7079   1
   3  -7 -17 445.314 97.1687   1
   3  -7 -16 1110.76 136.254   1
   3  -7 -15 690.670 108.423   1
   3  -7 -14 1279.93 133.543   1
   3  -7 -13 1046.24 118.159   1
   3  -7 -12 72.9580 44.4675   1
   3  -7 -12 1.35825 35.3530   4
   3  -7 -11 400.557 74.4702   1
   3  -7 -11 327.620 68.7742   4
   3  -7 -10 1539.14 121.817   4
   3  -7 -10 1671.75 128.766   1
   3  -7  -9 1897.85 129.689   4
   3  -7  -9 1820.88 125.604   1
   3  -7  -8 241.394 51.2637   4
   3  -7  -8 235.740 46.2457   1
   3  -7  -7 265.236 34.6106   2
   3  -7  -7 284.975 48.4024   1
   3  -7  -7 227.410 42.9523   4
   3  -7  -6 804.697 71.1943   1
   3  -7  -6 824.466 76.2819   3
   3  -7  -6 799.048 77.2223   4
   3  -7  -6 530.698 45.0697   2
   3  -7  -5 1858.38 87.4636   2
   3  -7  -5 1799.56 97.1604   1
   3  -7  -5 1897.86 113.968   3
   3  -7  -5 1867.50 109.694   4
   3  -7  -4 940.369 65.2264   1
   3  -7  -4 952.541 80.0775   4
   3  -7  -4 959.454 83.0045   3
   3  -7  -3 763.771 54.1032   1
   3  -7  -3 871.595 75.5756   4
   3  -7  -3 987.745 83.4420   3
   3  -7  -2 1757.12 107.772   3
   3  -7  -2 1629.86 99.4790   4
   3  -7  -2 1584.99 64.3925   1
   3  -7  -1 8697.64 239.095   3
   3  -7  -1 7483.71 114.197   1
   3  -7  -1 7989.27 218.480   4
   3  -7   0 2621.19 126.704   4
   3  -7   0 2917.69 141.121   3
   3  -7   1 8102.41 236.037   3
   3  -7   1 7635.81 223.781   4
   3  -7   2 5466.80 194.949   3
   3  -7   2 5008.39 189.707   4
   3  -7   3 2602.67 138.121   3
   3  -7   3 2642.76 142.095   4
  -3   7  -4 4.86365 43.5073   2
   3  -7   4-6.07954 27.8898   3
  -3   7  -4 2.22404 20.7727   5
   3  -7   4 89.8365 40.1137   4
  -3   7  -5 74.9283 31.2805   5
   3  -7   5 81.6172 43.2915   3
   3  -7   5 41.1485 40.0041   4
  -3   7  -5-50.7120 52.5746   2
   3  -7   6 222.363 47.4449   3
  -3   7  -6 212.816 44.4077   5
  -3   7  -6 206.701 61.3415   2
   3  -7   6 259.450 58.8942   4
   3  -7   7-0.94068 49.5025   4
  -3   7  -7 127.563 54.9712   2
  -3   7  -7 90.0835 39.8790   5
  -3   7  -8 46.7879 30.5870   5
  -3   7  -8 101.730 52.7683   2
   3  -7   8 73.3428 46.0781   4
   3  -7   9 344.891 77.6092   4
  -3   7  -9 504.814 97.5148   2
  -3   7  -9 459.647 77.3180   5
   3  -7  10 481.055 87.9681   4
  -3   7 -10 476.444 83.0078   5
  -3   7 -10 447.072 93.7386   2
   3  -7  11 724.246 105.645   4
  -3   7 -11 940.347 128.189   2
  -3   7 -12 652.288 111.418   2
   3  -7  12 364.864 80.3855   4
  -3   7 -13 745.922 119.880   2
   3  -7  13 596.437 106.921   4
   3  -6 -18 57.7118 46.1335   1
   3  -6 -17 410.421 88.7840   1
   3  -6 -16 1586.24 160.991   1
   3  -6 -15 1685.57 156.954   1
   3  -6 -14 1322.47 134.255   1
   3  -6 -13 2185.49 167.214   1
   3  -6 -12 482.388 76.5050   1
   3  -6 -11 791.361 95.0235   1
   3  -6 -11 777.233 92.6888   4
   3  -6 -10 3094.70 171.000   1
   3  -6 -10 2948.90 164.540   4
   3  -6  -9 27.5339 38.4527   4
   3  -6  -9-23.3695 36.7406   1
   3  -6  -8 10.1147 25.6935   1
   3  -6  -8 12.5625 29.5000   4
   3  -6  -8 26.7372 21.3130   2
   3  -6  -7 127.380 35.8422   1
   3  -6  -7 106.961 23.0222   2
   3  -6  -7 145.020 39.3855   4
   3  -6  -6 1136.10 82.8412   1
   3  -6  -6 1151.45 86.7277   4
   3  -6  -6 879.611 57.4251   2
   3  -6  -6 1259.61 90.8800   3
   3  -6  -5 3637.61 145.762   3
   3  -6  -5 3290.44 131.382   1
   3  -6  -5 3586.18 146.398   4
   3  -6  -5 3451.37 112.740   2
   3  -6  -4 6367.20 163.130   1
   3  -6  -4 6361.27 189.321   3
   3  -6  -4 6545.97 188.089   4
   3  -6  -4 6251.32 152.391   2
   3  -6  -3 7852.76 215.011   3
   3  -6  -3 7146.83 157.336   1
   3  -6  -3 7477.63 174.371   2
   3  -6  -3 7457.78 199.111   4
   3  -6  -2 8921.32 224.801   3
   3  -6  -2 8567.51 208.347   4
   3  -6  -2 7997.26 148.883   1
   3  -6  -1 38.7598 11.6111   1
   3  -6  -1-0.51613 29.9865   3
   3  -6  -1 25.8206 24.0508   4
   3  -6   0 5401.33 176.595   3
   3  -6   0 4972.41 162.848   4
   3  -6   1 2190.08 115.092   3
   3  -6   1 1930.61 104.546   4
   3  -6   2 1589.21 102.090   3
   3  -6   2 1525.38 97.0311   4
   3  -6   3 894.322 77.9976   3
   3  -6   3 851.697 75.9949   4
   3  -6   4 131.159 37.2870   4
   3  -6   4 31.9560 26.9051   3
   3  -6   5 16.8320 34.5965   4
   3  -6   5 49.8184 29.4577   3
  -3   6  -5 26.7370 22.6670   5
  -3   6  -5 59.1918 33.9521   2
  -3   6  -6 97.1877 35.3092   5
   3  -6   6 94.5273 36.5467   4
   3  -6   6 76.6678 40.5649   3
  -3   6  -6 15.5948 34.8214   2
   3  -6   7 837.407 85.2493   3
  -3   6  -7 830.723 103.948   2
   3  -6   7 880.921 92.6536   4
  -3   6  -7 815.292 81.8106   5
   3  -6   8 1278.79 116.396   4
  -3   6  -8 1390.89 135.605   2
  -3   6  -8 1478.43 112.645   5
  -3   6  -9 1244.19 126.564   2
   3  -6   9 1237.24 118.340   4
  -3   6  -9 1500.34 122.604   5
  -3   6 -10 1110.52 114.463   5
   3  -6  10 986.009 110.894   4
  -3   6 -10 1165.76 130.141   2
   3  -6  11 762.370 106.706   4
  -3   6 -11 820.423 118.367   2
  -3   6 -11 952.293 112.066   5
   3  -6  12 835.356 112.734   4
  -3   6 -12 965.889 126.648   2
   3  -6  13 588.355 103.263   4
  -3   6 -13 941.998 132.649   2
  -3   6 -14 664.999 117.741   2
   3  -6  14 530.064 99.1444   4
   3  -5 -18 58.5297 55.9922   1
   3  -5 -17 314.698 82.3758   1
   3  -5 -16 1051.92 135.196   1
   3  -5 -15 726.313 109.812   1
   3  -5 -14 1000.78 117.478   1
   3  -5 -13 830.315 100.644   1
   3  -5 -12 76.6518 43.6104   1
   3  -5 -11 970.573 101.679   1
   3  -5 -10 142.313 48.7420   4
   3  -5 -10 173.290 50.5387   1
   3  -5  -9 5.97121 21.0344   2
   3  -5  -9 11.7605 27.1719   1
   3  -5  -9 14.2227 36.1191   4
   3  -5  -8 42.8583 18.0999   2
   3  -5  -8 13.5635 25.6653   1
   3  -5  -8 5.78306 30.4288   4
   3  -5  -7 3840.08 160.372   1
   3  -5  -7 4371.27 173.837   4
   3  -5  -6 7116.70 203.472   1
   3  -5  -6 7596.74 194.499   3
   3  -5  -6 7075.56 208.129   4
   3  -5  -6 7153.44 160.069   2
   3  -5  -5 3925.02 141.420   1
   3  -5  -5 3856.40 141.658   3
   3  -5  -5 4070.19 150.144   4
   3  -5  -5 3972.69 116.905   2
   3  -5  -4 5311.90 137.323   2
   3  -5  -4 5450.34 168.210   3
   3  -5  -4 5187.81 160.552   4
   3  -5  -4 4897.61 147.387   1
   3  -5  -3 9255.25 205.809   4
   3  -5  -3 9903.94 224.482   3
   3  -5  -3 9357.34 181.344   2
   3  -5  -3 9124.30 179.884   1
   3  -5  -2 4290.14 144.656   3
   3  -5  -2 3999.48 108.132   1
   3  -5  -2 3931.46 134.258   4
   3  -5  -2 4015.33 125.728   2
   3  -5  -1 2057.92 104.603   3
   3  -5  -1 2114.53 95.9870   4
   3  -5  -1 2171.78 71.2417   1
   3  -5   0 105.256 32.4382   4
   3  -5   0 141.376 40.6126   3
   3  -5   1 531.356 57.5840   3
   3  -5   1 371.495 47.1364   4
   3  -5   2 2962.51 126.636   3
   3  -5   2 2834.12 121.908   4
   3  -5   3 259.171 43.0065   4
   3  -5   3 279.172 41.9033   3
   3  -5   4 72.8888 24.9984   4
   3  -5   4 75.9684 34.8600   3
   3  -5   5 210.397 40.2112   3
   3  -5   5 155.007 38.8547   4
  -3   5  -5 294.438 43.5601   5
   3  -5   6 723.085 76.6751   4
  -3   5  -6 535.041 61.1658   5
  -3   5  -6 801.767 93.1546   2
   3  -5   6 977.816 82.9355   3
   3  -5   7 949.279 91.8711   4
  -3   5  -7 1031.60 86.6428   5
   3  -5   7 896.152 79.6068   3
  -3   5  -7 1039.61 105.352   2
  -3   5  -8 16.3970 27.2807   5
   3  -5   8-4.95430 31.4958   4
   3  -5   8 67.6071 35.3133   3
  -3   5  -8 26.5507 38.4359   2
   3  -5   9 681.050 86.4776   4
  -3   5  -9 781.437 105.553   2
  -3   5  -9 773.698 88.2850   5
   3  -5  10 1699.09 138.934   4
  -3   5 -10 1718.71 151.348   2
  -3   5 -10 1989.18 145.169   5
  -3   5 -11 543.677 85.6695   5
  -3   5 -11 562.780 97.3305   2
   3  -5  11 330.884 73.6417   4
  -3   5 -12 414.781 80.8668   5
  -3   5 -12 360.859 80.2874   2
   3  -5  12 246.256 69.6895   4
  -3   5 -13 962.653 128.692   2
   3  -5  13 577.975 96.2081   4
   3  -5  14 435.898 91.3037   4
  -3   5 -14 584.126 105.871   2
   3  -5  15 179.374 71.2491   4
  -3   5 -15 115.689 60.9548   2
   3  -4 -17 200.926 64.1078   1
   3  -4 -16 946.318 128.672   1
   3  -4 -15 299.873 74.5479   1
   3  -4 -14 223.190 66.2960   1
   3  -4 -13 101.729 46.7903   1
   3  -4 -12-23.3186 33.3270   1
   3  -4 -11 317.914 64.7612   1
   3  -4 -10-14.2049 26.7893   2
   3  -4 -10 5.40521 31.3248   1
   3  -4  -9 624.057 77.4226   1
   3  -4  -9 312.187 42.9515   2
   3  -4  -8 145.537 40.9159   4
   3  -4  -8 103.212 27.6425   2
   3  -4  -8 104.818 38.2322   1
   3  -4  -7 38.2310 20.8823   2
   3  -4  -7 33.5419 26.3929   1
   3  -4  -7 27.8056 27.3609   4
   3  -4  -6 6170.82 189.652   1
   3  -4  -6 6188.23 165.642   3
   3  -4  -6 6532.92 193.863   4
   3  -4  -6 6621.92 156.717   2
   3  -4  -5 5273.46 163.574   1
   3  -4  -5 5166.55 145.648   3
   3  -4  -5 5373.27 165.197   4
   3  -4  -5 5486.08 138.891   2
   3  -4  -4 5726.18 162.382   1
   3  -4  -4 5770.22 165.877   3
   3  -4  -4 5955.46 140.727   2
   3  -4  -4 5976.55 166.456   4
   3  -4  -3 3253.68 118.495   3
   3  -4  -3 3160.73 114.376   4
   3  -4  -3 3044.07 106.191   1
   3  -4  -3 3004.56 102.301   2
   3  -4  -2 3086.40 96.3907   1
   3  -4  -2 3110.24 117.037   3
   3  -4  -2 3170.27 111.016   4
   3  -4  -2 3265.43 106.531   2
   3  -4  -1 1343.27 60.0775   1
   3  -4  -1 1255.74 70.0760   4
   3  -4  -1 1404.64 74.2706   2
   3  -4  -1 1440.30 83.4206   3
   3  -4   0 870.249 64.5332   3
   3  -4   0 895.814 41.5627   1
   3  -4   0 873.324 58.8901   4
   3  -4   1 481.874 50.4662   3
   3  -4   1 310.182 39.6568   4
   3  -4   2 2265.64 103.876   3
  -3   4  -2 2325.24 54.5343   1
   3  -4   2 2181.60 99.1736   4
  -3   4  -3 99.5460 14.6678   1
   3  -4   3 101.438 29.7312   4
   3  -4   3 128.968 32.7684   3
   3  -4   4 2455.93 115.251   4
   3  -4   4 2745.10 121.501   3
  -3   4  -4 2601.47 71.5413   1
  -3   4  -5 229.538 25.4709   1
   3  -4   5 258.109 41.3003   3
   3  -4   5 217.972 41.2743   4
   3  -4   6 1947.06 113.015   4
   3  -4   6 2132.94 112.781   3
  -3   4  -6 1540.58 97.5408   5
  -3   4  -7 180.780 39.8027   5
   3  -4   7 258.822 44.7015   3
   3  -4   7 229.043 50.4412   4
  -3   4  -7 227.009 58.3394   2
   3  -4   8 164.966 51.3814   4
  -3   4  -8 91.0642 46.4964   2
   3  -4   8 85.8565 36.6520   3
  -3   4  -8 147.874 41.0439   5
  -3   4  -9-11.8688 40.8289   2
   3  -4   9 102.875 37.5593   3
  -3   4  -9-7.03171 32.4813   5
   3  -4   9 17.8675 31.5053   4
  -3   4 -10 25.0468 39.7446   5
   3  -4  10 98.2770 40.8447   4
  -3   4 -10 114.108 63.3507   2
  -3   4 -11 512.649 89.8454   2
   3  -4  11 534.978 83.8896   4
  -3   4 -11 653.479 91.0748   5
   3  -4  12 359.414 76.7532   4
  -3   4 -12 375.495 81.5627   5
  -3   4 -12 495.045 93.4045   2
  -3   4 -13 657.194 105.643   2
  -3   4 -13 655.572 96.2719   5
   3  -4  13 568.138 93.6107   4
  -3   4 -14-5.26503 33.9462   2
   3  -4  14 96.6944 52.8871   4
   3  -4  15 147.213 64.5292   4
  -3   4 -15 91.1066 59.4755   2
   3  -3 -17 1103.21 140.803   1
   3  -3 -16 669.882 109.119   1
   3  -3 -15 406.918 87.8453   1
   3  -3 -14 40.2677 37.4687   1
   3  -3 -13-24.2292 47.1097   1
   3  -3 -12 105.968 51.4465   1
   3  -3 -11 239.166 49.1661   2
   3  -3 -11 265.903 62.0065   1
   3  -3 -10 1154.37 87.1988   2
   3  -3 -10 1210.39 109.783   1
   3  -3  -9 104.250 29.9307   2
   3  -3  -9 109.809 39.8104   1
   3  -3  -8 81.5258 26.7775   2
   3  -3  -8 71.1210 30.6849   1
   3  -3  -7 3649.04 158.274   1
   3  -3  -7 3873.88 132.415   2
   3  -3  -7 3686.41 154.590   4
   3  -3  -6 1768.91 103.668   1
   3  -3  -6 1611.44 95.9510   4
   3  -3  -6 1624.05 82.6777   2
   3  -3  -5 2691.80 121.773   1
   3  -3  -5 2659.69 116.324   4
   3  -3  -5 2471.74 93.1449   3
   3  -3  -5 2656.63 98.9002   2
   3  -3  -4 4350.64 122.451   3
   3  -3  -4 4570.54 124.314   2
   3  -3  -4 4459.62 136.924   4
   3  -3  -4 4736.54 146.118   1
   3  -3  -3 4451.81 123.284   2
   3  -3  -3 4485.08 129.231   4
   3  -3  -3 4439.84 133.268   1
   3  -3  -3 4538.79 128.752   3
   3  -3  -2 543.194 49.5367   3
   3  -3  -2 504.823 44.9917   1
   3  -3  -2 516.704 43.9993   4
   3  -3  -2 543.658 43.5334   2
   3  -3  -1 2116.96 79.9603   4
   3  -3  -1 2196.90 78.2902   1
   3  -3  -1 2029.83 87.9018   3
   3  -3  -1 2194.67 84.9108   2
   3  -3   0 3125.92 82.9518   1
   3  -3   0 3385.38 110.316   2
   3  -3   0 3412.70 99.0410   4
   3  -3   0 3396.03 112.395   3
   3  -3   1 1300.37 73.0111   3
   3  -3   1 1276.39 65.9747   4
   3  -3   2 4583.97 137.992   3
  -3   3  -2 4580.81 88.5049   1
   3  -3   2 4161.06 116.931   4
   3  -3   3 227.309 35.4130   4
  -3   3  -3 219.080 22.6262   1
   3  -3   3 219.945 40.8984   3
  -3   3  -4 34.1274 15.6687   1
   3  -3   4 29.9035 21.0052   4
   3  -3   4 7.98545 25.3386   3
   3  -3   5 3795.74 139.014   4
   3  -3   5 3995.25 142.263   3
  -3   3  -5 4136.51 108.563   1
   3  -3   6 6316.44 185.168   3
  -3   3  -6 6230.52 145.844   1
   3  -3   6 6069.78 187.266   4
   3  -3   7 2058.41 119.186   4
   3  -3   7 2170.69 113.148   3
  -3   3  -7 2138.74 94.0434   1
   3  -3   8 1012.66 82.0404   3
  -3   3  -8 1004.47 99.7153   2
   3  -3   8 1098.06 96.7710   4
  -3   3  -8 847.668 81.0576   5
   3  -3   9 215.062 51.7940   4
  -3   3  -9 68.5543 43.2670   2
   3  -3   9 115.653 33.2034   3
  -3   3  -9 174.314 46.7662   5
  -3   3 -10 222.887 65.9301   2
   3  -3  10 155.993 46.3470   4
  -3   3 -10 210.172 52.6069   5
  -3   3 -11 103.210 40.9635   5
   3  -3  11 71.5073 47.6499   4
  -3   3 -11 161.866 59.4076   2
  -3   3 -12 332.769 74.3488   5
   3  -3  12 197.950 64.4996   4
  -3   3 -12 288.709 74.1486   2
   3  -3  13 334.048 73.9458   4
  -3   3 -13 148.654 51.7636   2
  -3   3 -13 219.310 56.1626   5
   3  -3  14 99.8103 46.5155   4
  -3   3 -14 136.409 56.7618   2
   3  -3  15 19.7064 42.4890   4
   3  -3  16 6.44343 40.6612   4
   3  -2 -17 691.821 112.565   1
   3  -2 -16 639.825 106.413   1
   3  -2 -15 22.6321 41.8859   1
   3  -2 -14-30.6091 45.0115   1
   3  -2 -13 288.682 69.0958   1
   3  -2 -12 65.9859 32.6219   2
   3  -2 -12 82.3555 42.8286   1
   3  -2 -11 132.389 47.7176   2
   3  -2 -11 97.5484 41.5122   1
   3  -2 -10 213.938 46.0654   2
   3  -2 -10 198.832 54.6774   1
   3  -2  -9 872.935 77.3724   2
   3  -2  -9 832.283 88.8840   1
   3  -2  -8 409.965 62.6674   1
   3  -2  -8 347.732 48.3681   2
   3  -2  -7 2448.13 112.037   2
   3  -2  -7 2425.16 130.333   1
   3  -2  -6 9241.38 203.196   2
   3  -2  -6 9192.44 234.416   1
   3  -2  -5 5397.74 148.790   2
   3  -2  -5 5258.51 116.201   3
   3  -2  -5 5214.28 159.724   4
   3  -2  -5 5333.16 167.307   1
   3  -2  -4 2415.44 85.0528   3
   3  -2  -4 2606.77 111.154   1
   3  -2  -4 2598.48 103.207   4
   3  -2  -4 2609.56 98.3767   2
   3  -2  -3 1024.10 58.2595   3
   3  -2  -3 1014.72 59.9279   2
   3  -2  -3 1070.35 67.7709   1
   3  -2  -3 1068.85 64.8364   4
   3  -2  -2 69.2845 24.3325   2
   3  -2  -2 57.9697 24.7883   1
   3  -2  -2 43.6066 22.9123   3
   3  -2  -2 84.9479 26.9158   4
   3  -2  -1 411.265 38.7531   3
   3  -2  -1 446.554 37.0075   4
   3  -2  -1 460.318 40.7165   2
   3  -2  -1 452.945 40.4645   1
   3  -2   0 59.6094 23.5015   2
   3  -2   0 31.1145 24.1532   3
   3  -2   0 19.1529 15.0090   4
   3  -2   0 18.8520 15.6478   1
   3  -2   1 4492.81 124.601   3
   3  -2   1 4738.05 127.183   2
   3  -2   1 4194.97 97.5780   4
   3  -2   2 6.24170 22.7657   3
   3  -2   2-0.09577 16.9181   4
   3  -2   3 3122.19 99.9027   4
   3  -2   3 3355.15 118.218   3
   3  -2   4 8606.83 170.645   4
   3  -2   4 9605.14 203.116   3
   3  -2   5 8422.56 191.278   4
   3  -2   5 8854.99 202.877   3
  -3   2  -5 8667.88 163.775   1
   3  -2   6 3459.37 131.451   4
   3  -2   6 3673.78 137.762   3
  -3   2  -6 3715.93 117.475   1
  -3   2  -7 3039.22 115.605   1
  -3   2  -7 3241.84 139.451   5
   3  -2   7 3054.49 135.316   4
   3  -2   7 3099.84 130.014   3
   3  -2   8 4945.72 182.949   4
   3  -2   8 4951.38 169.146   3
  -3   2  -8 4870.46 156.736   1
  -3   2  -8 4879.52 199.056   2
   3  -2   9 1288.07 101.978   4
   3  -2   9 1205.87 91.6611   3
  -3   2  -9 1218.72 85.6338   1
  -3   2  -9 1173.59 106.822   2
  -3   2  -9 1270.00 101.133   5
  -3   2 -10 1579.61 118.028   5
   3  -2  10 1518.83 102.693   3
  -3   2 -10 1674.49 133.392   2
   3  -2  10 1459.79 115.814   4
  -3   2 -11 2127.90 152.922   2
  -3   2 -11 2119.60 143.680   5
   3  -2  11 1854.18 136.640   4
   3  -2  12 449.097 74.9038   4
  -3   2 -12 554.393 87.6735   2
  -3   2 -12 671.061 91.0406   5
   3  -2  13 47.9848 44.6952   4
  -3   2 -13 3.09239 36.2076   2
  -3   2 -13-0.15190 42.2055   5
   3  -2  14-2.74203 33.7140   4
  -3   2 -14 80.2539 57.2793   2
  -3   2 -14 28.6790 50.3034   5
   3  -2  15 53.5702 38.7809   4
   3  -2  16 222.350 67.2438   4
   3  -1 -17 252.343 75.5274   1
   3  -1 -16 265.616 69.8042   1
   3  -1 -15 39.2550 35.9476   1
   3  -1 -14 23.1224 44.0553   1
   3  -1 -13 94.9844 50.4252   1
   3  -1 -12 149.034 53.8283   1
   3  -1 -12 193.209 46.5331   2
   3  -1 -11 606.262 75.3921   2
   3  -1 -11 553.568 81.5174   1
   3  -1 -10 124.875 45.4970   1
   3  -1 -10 143.652 40.6346   2
   3  -1  -9 963.571 82.5941   2
   3  -1  -9 940.405 92.9088   1
   3  -1  -8 586.442 61.8084   2
   3  -1  -8 639.615 75.6693   1
   3  -1  -7 1951.60 106.391   2
   3  -1  -7 2070.25 122.743   1
   3  -1  -6 2160.04 105.762   2
   3  -1  -6 2078.68 112.843   1
   3  -1  -5 6758.48 190.579   1
   3  -1  -5 6385.32 169.822   2
   3  -1  -4 146.383 30.7950   2
   3  -1  -4 195.145 37.5195   1
   3  -1  -4 167.619 22.0254   3
   3  -1  -3 225.260 26.6159   3
   3  -1  -3 206.645 34.1588   1
   3  -1  -3 262.192 35.5929   2
   3  -1  -3 234.114 34.3661   4
   3  -1  -2 2195.85 86.7187   2
   3  -1  -2 2302.85 78.9488   4
   3  -1  -2 2587.93 102.075   1
   3  -1  -2 2070.18 70.8090   3
   3  -1  -1 4468.67 105.429   3
   3  -1  -1 4854.87 99.5712   4
   3  -1  -1 4780.79 122.273   2
   3  -1  -1 4778.20 123.663   1
   3  -1   0 943.141 52.6182   1
   3  -1   0 931.588 53.5089   3
   3  -1   0 906.068 54.6158   2
   3  -1   0 929.376 40.1175   4
   3  -1   1 1728.06 73.6042   3
   3  -1   1 1849.58 78.0821   2
   3  -1   1 1689.89 49.4023   4
   3  -1   2 3928.87 114.182   3
   3  -1   2 3954.71 114.162   2
   3  -1   2 3678.90 78.5884   4
   3  -1   3 3206.04 82.4298   4
   3  -1   3 3701.71 116.766   3
   3  -1   4 2575.25 85.9289   4
   3  -1   4 2915.24 110.315   3
  -3   1  -5 20298.7 257.464   1
   3  -1   5 20581.9 302.513   3
   3  -1   5 19281.3 259.605   4
   3  -1   6 3692.36 130.120   4
   3  -1   6 4217.36 144.796   3
  -3   1  -6 4048.86 126.561   1
   3  -1   7 3322.92 133.214   4
   3  -1   7 3259.03 132.390   3
  -3   1  -7 3324.08 123.827   1
  -3   1  -8 1672.85 105.831   5
   3  -1   8 1643.57 100.227   3
  -3   1  -8 1735.91 95.9383   1
   3  -1   8 1655.11 104.752   4
   3  -1   9 196.445 46.7866   4
  -3   1  -9 124.573 34.5598   5
  -3   1  -9 181.352 39.2609   1
  -3   1  -9 159.304 44.6655   2
   3  -1   9 205.405 43.1872   3
  -3   1 -10 168.273 48.6107   5
  -3   1 -10 162.610 41.5063   1
   3  -1  10 113.625 33.8234   3
   3  -1  10 202.929 50.3099   4
  -3   1 -10 162.472 45.7668   2
   3  -1  11 731.909 77.8975   3
  -3   1 -11 717.907 78.3982   1
  -3   1 -11 710.918 88.4759   2
  -3   1 -11 772.222 87.9694   5
   3  -1  11 720.615 85.8725   4
   3  -1  12 123.531 49.9150   4
  -3   1 -12 32.5151 36.5597   5
  -3   1 -12 58.1083 37.0773   2
   3  -1  13 73.0205 49.8606   4
  -3   1 -13-52.8762 44.3055   2
  -3   1 -13-31.1092 43.6042   5
   3  -1  14 26.1579 36.8604   4
  -3   1 -14 27.5377 39.7615   5
   3  -1  15 291.853 68.4931   4
  -3   1 -15 530.054 94.1766   5
   3  -1  16 960.321 128.514   4
  -3   0  16 28.8703 57.8152   4
   3   0 -16 49.9586 52.7379   1
  -3   0  15 95.0328 65.1038   4
   3   0 -15-53.0145 37.5978   1
   3   0 -14 120.483 53.2316   1
   3   0 -13 20.0090 32.7202   2
   3   0 -13 75.7050 47.1877   1
   3   0 -12 1054.23 99.7526   2
   3   0 -12 1812.46 145.600   1
   3   0 -11 1615.73 131.814   1
   3   0 -11 1466.87 113.788   2
   3   0 -10 501.793 74.0963   1
   3   0 -10 444.185 63.0706   2
   3   0  -9 1422.39 103.603   2
   3   0  -9 1531.22 118.508   1
   3   0  -8 2670.68 133.051   2
   3   0  -8 2876.75 151.939   1
   3   0  -7 814.661 82.3804   1
   3   0  -7 785.183 71.2962   2
   3   0  -6 4949.10 163.459   2
   3   0  -6 5396.37 184.014   1
   3   0  -5 4041.12 141.048   2
   3   0  -5 4533.44 160.993   1
   3   0  -4 13.9680 24.0349   1
   3   0  -4 19.5450 24.4966   2
   3   0  -3 54.3674 30.6307   2
   3   0  -3 19.9425 20.6073   1
   3   0  -3 13.2674 11.5320   3
   3   0  -2 11726.1 204.236   2
   3   0  -2 12380.0 220.584   1
   3   0  -2 11170.1 137.537   3
   3   0  -1 2757.63 78.8858   3
   3   0  -1 2900.97 99.4501   1
   3   0  -1 2967.60 98.8700   2
   3   0   0-8.17673 19.9761   2
   3   0   0 0.36754 18.1066   3
   3   0   0 20.3048 19.4724   1
   3   0   0 13.2164 11.9674   4
   3   0   1 919.330 51.8467   3
   3   0   1 831.468 54.2437   2
   3   0   2 4103.01 113.079   3
   3   0   2 3040.23 96.0624   2
   3   0   3 6216.40 147.516   3
   3   0   3 6280.90 139.548   2
   3   0   3 5932.80 87.9403   4
   3   0   4 10809.3 205.121   3
  -3   0  -4 10697.6 179.861   1
   3   0   4 10683.0 150.085   4
   3   0   5 7416.78 147.973   4
   3   0   5 7859.62 184.323   3
  -3   0  -5 7748.37 165.455   1
  -3   0  -6 3409.87 120.444   1
   3   0   6 3152.28 112.679   4
   3   0   6 3540.44 130.738   3
   3   0   7 1183.13 78.7527   4
   3   0   7 1097.81 78.1436   3
  -3   0  -7 1201.69 76.5502   1
  -3   0  -8 1112.90 84.4587   5
   3   0   8 1038.07 79.2924   3
  -3   0  -8 1088.84 78.1404   1
   3   0   8 913.268 74.4233   4
  -3   0  -9 110.770 38.2896   2
   3   0   9 114.543 35.2675   4
  -3   0  -9 123.096 32.9942   1
   3   0   9 100.188 32.6249   3
  -3   0  -9 146.158 40.2716   5
  -3   0 -10 163.491 49.7295   5
   3   0  10 64.3050 33.2635   4
  -3   0 -10 144.197 38.7096   1
   3   0  10 46.3079 32.4125   3
  -3   0 -10 88.1186 35.2035   2
   3   0  11 600.898 77.5893   4
   3   0  11 697.071 75.6813   3
  -3   0 -11 675.272 73.7052   1
  -3   0 -11 633.191 81.3316   2
  -3   0 -11 603.446 79.3284   5
  -3   0 -12 5.15480 32.2566   2
  -3   0 -12 3.98291 32.3968   1
   3   0  12 9.34882 39.8947   4
  -3   0 -12 23.0578 32.1024   5
  -3   0 -13 179.008 54.4411   5
  -3   0 -13 202.023 50.3368   1
  -3   0 -13 184.278 53.4016   2
   3   0  13 109.482 46.1118   4
  -3   0 -14 362.452 74.8987   5
   3   0  14 287.250 63.5210   4
  -3   0 -15 591.407 98.3587   5
   3   0  15 459.067 81.6913   4
   3   0  16 726.169 108.412   4
  -3  -1  15 115.570 74.6893   4
  -3  -1  14 402.344 88.2345   4
   3   1 -14 435.206 86.7711   1
   3   1 -14 429.231 74.7876   2
   3   1 -13 317.940 72.3017   1
   3   1 -13 156.991 48.3518   2
  -3  -1  13 345.157 81.3936   4
   3   1 -12 1854.20 141.101   2
   3   1 -12 2280.02 163.324   1
  -3  -1  12 1961.57 163.987   4
   3   1 -11 1212.75 111.616   2
   3   1 -11 1283.27 119.060   1
   3   1 -10 1385.64 119.004   2
   3   1 -10 1409.78 118.918   1
   3   1  -9 913.875 93.2022   1
   3   1  -9 806.912 86.9529   2
   3   1  -8 2087.36 129.255   2
   3   1  -8 2300.78 136.792   1
   3   1  -7 1478.51 102.583   2
   3   1  -7 1548.50 108.507   1
   3   1  -6 1237.35 89.1774   2
   3   1  -6 1356.02 93.6490   1
   3   1  -5 1570.68 93.2094   2
   3   1  -5 2001.07 108.352   1
   3   1  -4 619.291 58.7087   2
   3   1  -4 664.060 63.1866   1
   3   1  -3 730.102 61.6036   2
   3   1  -3 749.891 62.0919   1
   3   1  -2 46.3635 22.8479   1
   3   1  -2 29.9373 22.5080   2
   3   1  -2 52.1344 12.8922   3
   3   1  -1 6374.65 151.168   2
   3   1  -1 6497.79 151.372   1
   3   1  -1 6174.38 107.636   3
   3   1   0 22947.2 226.985   3
   3   1   0 22695.5 264.903   2
   3   1   1 580.532 44.3667   2
   3   1   1 813.347 49.2642   3
   3   1   2 2971.28 92.6234   2
   3   1   2 4215.82 112.820   3
  -3  -1  -3 5451.95 132.246   1
   3   1   3 5671.33 137.418   3
   3   1   4 15060.7 236.556   3
  -3  -1  -4 15173.3 224.829   1
   3   1   4 15430.6 216.811   2
  -3  -1  -5 6872.80 161.557   1
   3   1   5 6780.04 168.750   3
  -3  -1  -6 3900.53 130.795   1
   3   1   6 3911.44 137.656   3
   3   1   7 2940.52 126.114   3
  -3  -1  -7 2773.55 118.427   1
   3   1   8 460.167 56.9529   3
  -3  -1  -8 379.364 49.8192   1
   3   1   9 204.124 44.9881   3
  -3  -1  -9 235.434 45.1864   1
  -3  -1  -9 174.140 40.1899   5
  -3  -1 -10 243.223 50.2665   1
   3   1  10 239.195 43.5527   3
  -3  -1 -10 201.924 48.6853   5
  -3  -1 -10 210.139 45.9625   2
  -3  -1 -11 557.002 70.8809   1
   3   1  11 587.487 70.4771   3
  -3  -1 -11 594.187 74.3716   5
  -3  -1 -11 462.050 63.8187   2
  -3  -1 -12 247.212 54.0724   5
   3   1  12 304.470 61.6891   4
  -3  -1 -12 286.028 56.7745   1
   3   1  12 305.925 57.1238   3
  -3  -1 -12 342.944 61.4931   2
  -3  -1 -13 2.63801 40.4603   5
   3   1  13 36.7001 36.8438   4
  -3  -1 -13 65.0213 36.0554   1
  -3  -1 -14 1636.11 136.292   1
  -3  -1 -14 1575.66 135.827   5
  -3  -1 -15 1243.94 130.228   5
   3   1  15 810.625 105.219   4
   3   1  16 403.142 81.4404   4
  -3  -1 -16 538.065 92.2961   5
  -3  -2  15 69.6535 59.7974   4
   3   2 -14 140.478 55.0460   2
  -3  -2  14 165.973 75.8071   4
  -3  -2  13 535.705 102.729   4
   3   2 -13 576.781 89.7561   1
   3   2 -13 400.301 78.3924   2
   3   2 -12 594.003 92.9800   2
  -3  -2  12 614.436 101.685   4
   3   2 -12 751.426 97.8163   1
  -3  -2  11 1241.66 132.536   4
   3   2 -11 1258.15 121.933   2
   3   2 -11 1339.96 123.315   1
   3   2 -10 628.554 84.3426   1
   3   2 -10 587.584 88.1823   2
  -3  -2  10 493.350 83.1670   4
   3   2  -9 272.657 62.7787   2
  -3  -2   9 399.573 73.0374   4
   3   2  -9 228.760 54.1054   1
   3   2  -8 1200.92 106.193   2
  -3  -2   8 1183.65 110.671   4
   3   2  -8 1099.67 95.9513   1
   3   2  -7 2299.41 138.784   2
   3   2  -7 2446.89 135.661   1
   3   2  -6 3123.34 150.418   2
   3   2  -6 3306.72 148.976   1
   3   2  -5 206.145 40.6655   1
   3   2  -5 207.470 44.9044   2
   3   2  -4 1530.25 94.5714   2
   3   2  -4 1776.47 101.875   1
   3   2  -3 3347.09 124.655   2
   3   2  -3 3983.95 138.221   1
   3   2  -2 2680.09 107.675   2
  -3  -2   2 2887.52 104.594   4
   3   2  -2 2845.13 110.434   1
   3   2  -1 1777.66 87.2941   2
  -3  -2   1 1474.93 67.2310   4
   3   2  -1 1901.39 85.6450   1
   3   2  -1 1901.92 57.4212   3
   3   2   0 8279.53 168.528   2
   3   2   0 7919.03 132.440   3
  -3  -2  -1 647.320 32.2725   4
   3   2   1 602.409 42.3705   3
   3   2   1 464.818 42.0046   2
   3   2   2 51.0780 20.9122   2
   3   2   2 47.9583 21.6200   3
  -3  -2  -3 7778.41 164.495   1
   3   2   3 7487.08 159.291   3
  -3  -2  -4 5565.89 144.718   1
   3   2   4 5699.71 149.222   3
  -3  -2  -5 4821.88 139.851   1
   3   2   5 5013.98 145.412   3
  -3  -2  -6 14118.3 251.195   1
   3   2   6 13841.7 252.951   3
  -3  -2  -7 1722.38 96.8815   1
   3   2   7 1729.44 96.9973   3
  -3  -2  -8 208.512 41.2234   1
   3   2   8 131.390 34.0127   3
  -3  -2  -9 233.706 44.2558   5
   3   2   9 175.025 35.7826   3
  -3  -2  -9 193.466 40.1617   1
  -3  -2 -10 254.485 48.8655   5
  -3  -2 -10 326.822 51.2617   1
   3   2  10 186.800 44.9161   3
  -3  -2 -10 142.251 35.6772   2
  -3  -2 -11 1030.00 88.4026   2
  -3  -2 -11 1179.63 98.7547   1
   3   2  11 1141.46 95.7707   3
  -3  -2 -11 1174.16 99.9301   5
   3   2  12 1373.01 105.705   3
  -3  -2 -12 1233.25 106.926   5
  -3  -2 -12 1318.97 112.043   1
  -3  -2 -13 415.836 73.3718   5
   3   2  13 411.507 64.4946   3
  -3  -2 -13 394.168 65.8619   1
  -3  -2 -14 789.215 96.1895   1
  -3  -2 -14 822.891 100.468   5
  -3  -2 -15 1078.11 115.612   1
  -3  -2 -15 1098.23 120.600   5
   3   2  16 646.924 97.6137   4
  -3  -2 -16 749.249 99.7625   1
  -3  -2 -16 931.997 123.727   5
  -3  -3  14 127.928 66.8853   4
   3   3 -14-10.3464 43.2119   2
   3   3 -13 822.468 112.412   2
  -3  -3  13 1148.39 140.718   4
   3   3 -12 301.244 75.8372   2
  -3  -3  12 219.914 67.2324   4
  -3  -3  11 552.165 97.1155   4
   3   3 -11 465.510 76.7044   1
   3   3 -11 530.745 89.3672   2
  -3  -3  10 1024.89 117.885   4
   3   3 -10 1197.93 111.715   1
   3   3 -10 933.412 109.474   2
  -3  -3   9 365.306 70.6220   4
   3   3  -9 239.419 52.1983   1
   3   3  -9 360.937 72.3208   2
  -3  -3   8 305.551 67.0885   4
   3   3  -8 371.570 62.9334   1
   3   3  -8 397.376 66.8485   2
   3   3  -7 1745.65 118.683   1
   3   3  -7 1429.20 118.408   2
  -3  -3   7 1455.18 116.937   4
  -3  -3   6 285.739 55.6864   4
   3   3  -6 325.267 58.9471   2
   3   3  -6 380.592 56.0208   1
  -3  -3   5 209.972 45.2223   4
   3   3  -5 254.725 42.7062   1
   3   3  -5 213.560 51.2135   2
  -3  -3   4 308.398 47.4773   4
   3   3  -4 259.395 45.1058   1
   3   3  -4 223.302 45.9160   2
   3   3  -3 1520.90 94.3462   2
  -3  -3   3 1642.92 94.6306   4
   3   3  -3 1564.17 89.4401   1
   3   3  -2 4609.64 149.439   2
  -3  -3   2 5334.70 153.174   4
   3   3  -2 4855.34 84.3568   3
   3   3  -2 5054.85 148.613   1
  -3  -3   1 642.151 52.0856   4
   3   3  -1 636.659 55.0699   2
   3   3  -1 656.670 36.4981   3
   3   3  -1 703.064 56.8893   1
  -3  -3   0 661.185 45.1879   4
   3   3   0 920.777 64.3691   2
   3   3   0 905.435 47.6871   3
   3   3   1 242.771 30.3664   3
  -3  -3  -1 152.956 20.9429   4
   3   3   1 241.584 34.5175   2
   3   3   2 360.557 37.6348   3
   3   3   2 288.753 34.3611   2
  -3  -3  -2 428.759 28.8205   4
  -3  -3  -3 10106.7 114.574   4
   3   3   3 9993.84 186.791   3
  -3  -3  -3 10266.0 197.837   1
  -3  -3  -4 3535.59 122.641   1
   3   3   4 3431.33 116.895   3
  -3  -3  -4 3637.71 73.0038   4
  -3  -3  -5 1540.90 83.3670   1
  -3  -3  -5 1600.32 56.5532   4
   3   3   5 1582.86 85.8674   3
   3   3   5 1150.74 55.7148   2
  -3  -3  -6 3080.35 123.822   1
   3   3   6 3095.07 122.198   3
   3   3   6 2440.87 83.3646   2
  -3  -3  -7 5849.38 178.752   1
   3   3   7 5988.33 177.399   3
   3   3   8 1055.36 81.3482   3
  -3  -3  -8 1057.94 80.9762   1
  -3  -3  -9 572.438 66.2590   1
   3   3   9 568.170 64.7996   3
  -3  -3  -9 579.469 61.4599   5
  -3  -3 -10 89.3423 37.5130   1
  -3  -3 -10 65.0759 32.4341   5
   3   3  10 89.2347 33.6237   3
  -3  -3 -10 78.6975 26.6357   2
  -3  -3 -11 132.517 41.1152   1
   3   3  11 154.841 42.0406   3
  -3  -3 -11 176.979 45.1749   5
  -3  -3 -12 393.023 65.7975   5
  -3  -3 -12 336.676 60.4775   1
   3   3  12 350.559 62.5131   3
  -3  -3 -13-14.4940 33.7335   1
  -3  -3 -13 26.4664 33.6792   5
   3   3  13 38.6997 34.4971   3
  -3  -3 -14 612.541 86.6933   5
  -3  -3 -14 656.800 88.5114   1
  -3  -3 -15 257.753 60.7913   1
  -3  -3 -15 293.696 66.0510   5
  -3  -3 -16 606.859 95.3720   1
  -3  -3 -16 661.632 101.367   5
  -3  -3 -17 1217.53 132.331   1
   3   4 -14 511.010 98.9757   2
  -3  -4  13 630.332 115.629   4
   3   4 -13 456.288 89.0708   2
  -3  -4  12 552.359 101.434   4
   3   4 -12 925.904 122.116   2
  -3  -4  11 1448.18 148.479   4
   3   4 -11 1351.31 143.454   2
  -3  -4  10 181.940 63.7527   4
   3   4 -10 156.870 58.4372   2
   3   4  -9-29.3063 41.1031   2
  -3  -4   9 55.5064 41.2762   4
   3   4  -9 29.4847 30.8087   1
   3   4  -8 303.188 56.5100   1
   3   4  -8 163.079 57.1483   2
  -3  -4   8 208.944 59.0817   4
  -3  -4   7 152.385 47.5956   4
   3   4  -7 165.478 42.1844   1
   3   4  -7 128.274 41.4399   2
   3   4  -6 290.867 60.4023   2
   3   4  -6 357.427 54.0306   1
  -3  -4   6 301.403 57.8534   4
   3   4  -5 81.9089 31.6451   1
  -3  -4   5 66.0154 31.1861   4
   3   4  -5 62.4399 34.2631   2
   3   4  -4 3.30152 23.9884   1
  -3  -4   4 24.6611 28.5246   4
   3   4  -4 5.09738 27.6921   2
  -3  -4   3 1963.04 107.713   4
   3   4  -3 1637.28 106.869   2
   3   4  -3 1815.48 97.4189   1
  -3  -4   2 1841.81 96.0376   4
   3   4  -2 1761.98 103.737   2
   3   4  -2 1681.46 57.1353   3
   3   4  -2 1766.06 92.8816   1
  -3  -4   1 787.899 62.8573   4
   3   4  -1 797.952 66.0389   2
   3   4  -1 713.408 42.0530   3
  -3  -4   0 741.025 51.7604   4
   3   4   0 594.352 53.2196   2
   3   4   0 639.394 44.4117   3
  -3  -4  -1 201.960 29.0079   4
   3   4   1 290.301 39.2487   2
   3   4   1 295.251 33.1272   3
   3   4   2 4600.07 124.838   3
   3   4   2 4724.70 127.025   2
  -3  -4  -3 1561.01 58.6470   4
   3   4   3 2213.82 91.6388   3
  -3  -4  -3 2379.26 99.7389   1
   3   4   3 1729.30 73.3139   2
   3   4   4 3294.02 92.5484   2
  -3  -4  -4 4710.33 144.528   1
   3   4   4 4349.20 133.202   3
   3   4   5 1427.19 59.1944   2
  -3  -4  -5 2048.91 99.0962   1
   3   4   5 2071.37 98.1654   3
  -3  -4  -5 1381.98 57.3848   4
  -3  -4  -6 8.91560 26.1507   1
   3   4   6-3.13954 25.3403   3
  -3  -4  -6 20.5663 15.1856   4
   3   4   6 11.7805 11.9008   2
  -3  -4  -7 584.151 59.9437   1
  -3  -4  -7 536.722 43.1342   4
   3   4   7 517.291 56.1315   3
   3   4   8 21.6825 24.2062   3
  -3  -4  -8 48.2488 26.6978   1
  -3  -4  -9 116.143 35.6233   1
   3   4   9 108.953 37.9497   3
  -3  -4 -10 892.634 86.2307   1
   3   4  10 767.569 78.9847   3
  -3  -4 -10 806.831 75.8004   5
  -3  -4 -11 25.2148 34.5158   5
  -3  -4 -11 38.8576 31.5554   1
   3   4  11-4.91310 27.8215   3
  -3  -4 -12 37.0121 33.0770   1
  -3  -4 -12-36.2561 35.4619   5
   3   4  12 19.7244 33.2002   3
  -3  -4 -13 281.164 54.4296   5
  -3  -4 -13 344.994 66.1829   1
   3   4  13 243.638 56.0147   3
   3   4  14 1247.13 110.829   3
  -3  -4 -14 1310.60 119.058   5
  -3  -4 -14 1316.68 126.606   1
  -3  -4 -15 865.998 108.192   1
  -3  -4 -15 962.127 105.629   5
  -3  -4 -16 931.868 110.990   1
  -3  -4 -16 1012.70 116.518   5
  -3  -4 -17 311.464 73.0011   1
  -3  -4 -17 569.856 94.7445   5
  -3  -4 -18 504.337 96.7988   1
  -3  -4 -19 32.8188 38.9106   1
  -3  -5  13 498.391 105.241   4
   3   5 -13 658.468 115.099   2
  -3  -5  12 323.515 92.0447   4
   3   5 -12 301.111 76.4272   2
   3   5 -11 469.207 95.1362   2
  -3  -5  11 274.469 80.1574   4
  -3  -5  10 1127.75 131.612   4
   3   5 -10 1217.03 133.522   2
  -3  -5   9-10.3583 40.9333   4
   3   5  -9 14.4229 44.3488   2
   3   5  -8 20.1464 28.0956   1
  -3  -5   8 109.039 56.2819   4
   3   5  -8 22.4519 45.6591   2
   3   5  -7 62.3381 32.6007   1
  -3  -5   7 23.6435 37.0604   4
   3   5  -7 26.4164 39.8283   2
  -3  -5   6 129.631 43.7198   4
   3   5  -6 56.7921 23.4040   1
   3   5  -6 111.166 47.9660   2
   3   5  -5-4.81154 24.6962   1
  -3  -5   5-0.64646 36.2680   4
   3   5  -5-13.0493 33.9259   2
   3   5  -4 1872.86 105.170   1
  -3  -5   4 1660.48 114.217   4
   3   5  -4 1569.60 118.809   2
  -3  -5   3 3780.87 155.996   4
   3   5  -3 3840.28 170.253   2
   3   5  -3 3924.52 144.492   1
   3   5  -2 7160.53 216.730   2
   3   5  -2 6522.09 128.086   3
  -3  -5   2 7308.56 203.789   4
  -3  -5   1 4310.83 144.709   4
   3   5  -1 4162.99 157.214   2
   3   5  -1 3762.58 102.648   3
  -3  -5   0 1895.43 91.6044   4
   3   5   0 1761.36 94.4357   2
   3   5   0 1750.06 75.2607   3
  -3  -5  -1 372.416 41.3610   4
   3   5   1 253.706 38.3383   2
   3   5   1 292.582 35.5483   3
   3   5   2 2547.84 101.455   2
   3   5   2 2308.48 93.7780   3
  -3  -5  -2 2570.10 93.9314   4
   3   5   3 2128.93 85.2881   2
  -3  -5  -3 2089.38 97.7045   1
   3   5   3 2134.58 95.0463   3
  -3  -5  -3 2152.35 81.7494   4
   3   5   4 596.697 53.3625   3
  -3  -5  -4 418.445 37.1733   4
  -3  -5  -4 579.902 57.4879   1
   3   5   4 548.532 42.7464   2
   3   5   5 3356.37 130.101   3
  -3  -5  -5 3279.78 126.576   1
  -3  -5  -5 3157.70 94.9719   4
  -3  -5  -6 623.759 60.0595   1
  -3  -5  -6 613.383 45.9549   4
   3   5   6 612.944 59.3302   3
   3   5   6 563.174 36.2972   2
   3   5   7 30.0448 11.3829   2
  -3  -5  -7 7.61204 17.1654   4
   3   5   7 5.97844 24.7191   3
  -3  -5  -7-6.68336 27.0903   1
  -3  -5  -8 2104.43 118.055   1
   3   5   8 2072.13 112.319   3
  -3  -5  -8 2222.03 97.6279   4
  -3  -5  -9 1035.67 88.9989   1
   3   5   9 1146.25 92.0472   3
  -3  -5  -9 1134.54 75.5326   4
  -3  -5 -10 1496.80 110.236   1
   3   5  10 1311.20 98.7795   3
  -3  -5 -10 1414.58 92.5467   5
  -3  -5 -11 735.040 83.9530   1
   3   5  11 787.898 83.5106   3
  -3  -5 -11 787.324 75.6295   5
   3   5  12 511.179 72.5314   3
  -3  -5 -12 646.222 85.3978   1
  -3  -5 -12 511.275 65.2118   5
   3   5  13 1787.31 130.183   3
  -3  -5 -13 1572.11 129.552   1
  -3  -5 -13 1829.94 126.232   5
   3   5  14 1872.42 135.785   3
  -3  -5 -14 1917.72 149.338   1
  -3  -5 -14 1675.69 127.828   5
  -3  -5 -15 1665.99 144.166   1
   3   5  15 1489.73 124.129   3
  -3  -5 -15 1772.03 137.573   5
  -3  -5 -16 836.028 111.758   1
  -3  -5 -16 664.624 96.5650   5
  -3  -5 -17 504.828 96.8763   1
  -3  -5 -17 639.867 100.335   5
  -3  -5 -18 20.4747 41.3471   1
  -3  -5 -19 29.7733 43.9372   1
  -3  -6  12 137.673 66.6256   4
   3   6 -12 345.994 96.3483   2
  -3  -6  11 13.4701 40.9728   4
   3   6 -11 64.0830 54.9982   2
  -3  -6  10 150.996 63.2318   4
   3   6 -10 23.5673 55.3098   2
  -3  -6   9 232.682 64.4435   4
   3   6  -9 349.026 80.7796   2
  -3  -6   8 88.4280 54.5932   4
   3   6  -8 54.1351 51.0933   2
  -3  -6   7 200.418 60.4140   4
   3   6  -7 105.829 54.1529   2
   3   6  -6 16.6712 24.3644   1
  -3  -6   6-37.4017 41.1112   4
   3   6  -6-44.1362 47.2806   2
  -3  -6   5 256.255 54.7120   4
   3   6  -5 216.573 64.6629   2
   3   6  -5 388.631 53.6883   1
   3   6  -4 1416.13 118.334   2
   3   6  -4 1590.75 98.6535   1
  -3  -6   4 1591.83 117.267   4
   3   6  -3 2279.88 141.680   2
  -3  -6   3 2306.32 134.417   4
  -3  -6   2 4496.81 168.451   4
   3   6  -2 4455.46 184.587   2
   3   6  -1 2287.45 126.172   2
  -3  -6   1 2264.08 112.177   4
  -3  -6   0 1697.53 94.4240   4
   3   6   0 1536.99 97.7166   2
   3   6   1 6588.48 181.649   2
  -3  -6  -1 6841.98 178.210   4
   3   6   2 1368.77 77.3401   2
   3   6   2 1337.04 75.2315   3
  -3  -6  -2 1495.81 79.1804   4
   3   6   3 324.391 40.1627   2
  -3  -6  -3 328.165 43.3914   1
  -3  -6  -3 258.030 34.7757   4
   3   6   3 327.257 45.4533   3
  -3  -6  -4 2359.20 111.324   1
   3   6   4 2384.66 109.699   3
   3   6   4 2250.01 86.1628   2
  -3  -6  -4 2453.56 94.4704   4
   3   6   5 133.741 22.3189   2
  -3  -6  -5 240.945 33.5664   4
  -3  -6  -5 258.956 40.9268   1
   3   6   5 211.968 40.8044   3
   3   6   6 89.3891 19.1236   2
  -3  -6  -6 96.9532 29.2554   1
   3   6   6 49.0594 28.8875   3
  -3  -6  -6 61.1442 21.5154   4
  -3  -6  -7 2355.01 120.868   1
  -3  -6  -7 2643.80 103.805   4
   3   6   7 2396.06 120.586   3
   3   6   7 2333.99 68.4064   2
  -3  -6  -8 1545.26 102.701   1
   3   6   8 1451.98 98.4702   3
  -3  -6  -8 1555.05 84.0173   4
   3   6   9 2596.08 136.178   3
  -3  -6  -9 2555.78 114.745   4
  -3  -6  -9 2506.70 137.003   1
   3   6  10 1303.13 101.141   3
  -3  -6 -10 1278.16 86.2830   5
  -3  -6 -10 1292.10 104.107   1
  -3  -6 -10 1404.35 89.7330   4
   3   6  11 613.939 75.8534   3
  -3  -6 -11 473.317 69.3693   1
  -3  -6 -11 481.038 59.0418   5
   3   6  12 2066.45 133.878   3
  -3  -6 -12 2012.34 123.700   5
  -3  -6 -12 2260.88 147.716   1
  -3  -6 -13 405.815 71.3651   1
   3   6  13 369.207 68.7823   3
  -3  -6 -13 508.414 67.8476   5
   3   6  14 792.902 95.3799   3
  -3  -6 -14 726.359 95.8053   1
  -3  -6 -14 681.249 82.6677   5
  -3  -6 -15 533.389 86.7908   1
  -3  -6 -15 693.369 91.8480   5
   3   6  15 602.666 84.4532   3
  -3  -6 -16 438.066 79.1013   1
  -3  -6 -16 691.013 94.3172   5
  -3  -6 -17 189.187 63.5113   5
  -3  -6 -17 199.381 73.9039   1
  -3  -6 -18 67.7546 55.6028   1
  -3  -6 -19 159.176 68.4894   1
  -3  -7  11 76.5118 56.2175   4
   3   7 -11 119.620 68.7815   2
  -3  -7  10 20.7260 43.7773   4
   3   7 -10 155.548 67.5426   2
   3   7  -9 70.8307 50.2034   2
  -3  -7   9 170.488 70.2663   4
   3   7  -8 5.50373 48.9946   2
  -3  -7   8-7.16266 42.9769   4
  -3  -7   7 39.0520 38.8989   4
   3   7  -7-0.16552 46.5743   2
  -3  -7   6 291.149 65.8563   4
   3   7  -6 342.195 74.7629   2
  -3  -7   5 233.439 62.4963   4
   3   7  -5 150.452 61.1955   2
  -3  -7   4 533.345 78.3662   4
   3   7  -4 545.523 84.4435   2
  -3  -7   3 1264.03 101.404   4
   3   7  -3 1372.94 116.810   2
  -3  -7   2 3999.80 169.493   4
   3   7  -2 4218.55 191.367   2
  -3  -7   1 5537.17 192.319   4
   3   7  -1 5267.08 201.231   2
   3   7   0 301.660 48.0216   2
  -3  -7   0 343.914 50.6023   4
  -3  -7  -1 1927.99 105.968   4
   3   7   1 2080.20 112.307   2
   3   7   2 1370.91 83.8985   2
  -3  -7  -2 1433.53 86.8465   4
   3   7   3 1731.10 85.9228   2
  -3  -7  -3 1767.75 96.0048   1
  -3  -7  -3 2068.52 97.9619   4
  -3  -7  -4-4.38664 24.2805   4
   3   7   4-6.69661 20.9592   2
  -3  -7  -4-30.3730 29.3922   1
   3   7   4-29.2991 28.1272   3
   3   7   5 32.6979 29.7784   3
   3   7   5 32.0595 13.3889   2
  -3  -7  -5 77.4302 33.0714   1
   3   7   6 29.6385 16.7605   2
  -3  -7  -6 9.54007 24.5293   1
  -3  -7  -6 33.1689 23.5018   4
   3   7   6-3.97158 25.9861   3
  -3  -7  -7 1173.01 87.4262   1
   3   7   7 1119.94 48.9312   2
   3   7   7 1253.56 91.6261   3
  -3  -7  -7 1139.96 73.3592   4
  -3  -7  -8 5213.39 189.774   1
  -3  -7  -8 5282.38 161.610   4
   3   7   8 5116.53 187.799   3
  -3  -7  -9 8287.38 249.216   1
   3   7   9 7887.23 240.025   3
  -3  -7  -9 8561.64 214.914   4
  -3  -7 -10 2574.38 125.767   4
  -3  -7 -10 2585.37 146.778   1
   3   7  10 2296.36 136.127   3
  -3  -7 -11 697.897 85.2528   1
  -3  -7 -11 1007.47 84.0749   4
   3   7  11 905.225 87.9794   3
  -3  -7 -11 824.794 72.4279   5
  -3  -7 -12 98.7723 35.9486   4
  -3  -7 -12 87.6109 40.2178   1
   3   7  12 82.7214 41.5419   3
  -3  -7 -12 18.7962 25.7755   5
  -3  -7 -13 554.270 67.9015   5
   3   7  13 601.448 82.0926   3
  -3  -7 -13 541.749 79.2148   1
   3   7  14 472.067 76.2803   3
  -3  -7 -14 547.173 75.1240   5
  -3  -7 -14 526.432 89.8346   1
  -3  -7 -15 357.828 75.6114   1
  -3  -7 -15 360.416 65.4323   5
   3   7  15 330.384 74.1485   3
  -3  -7 -16 127.252 54.6140   1
  -3  -7 -16 137.709 52.7658   5
   3   7  16 134.029 50.8790   3
  -3  -7 -17 50.2161 48.2585   1
  -3  -7 -17 125.305 55.0588   5
  -3  -7 -18 72.9177 55.7628   1
  -3  -7 -19 197.867 67.4406   1
  -3  -8  10 381.327 93.1562   4
   3   8 -10 322.328 85.2031   2
  -3  -8   9 223.643 66.7663   4
   3   8  -9 265.462 80.8361   2
  -3  -8   8 327.980 80.7498   4
   3   8  -8 347.561 85.4234   2
  -3  -8   7 100.688 48.7263   4
   3   8  -7 151.518 58.2124   2
  -3  -8   6 14.0017 42.6875   4
   3   8  -6-12.6102 41.3890   2
   3   8  -5 2756.19 186.206   2
  -3  -8   5 2407.34 161.489   4
  -3  -8   4 423.120 72.4017   4
   3   8  -4 427.434 78.7008   2
  -3  -8   3 405.489 69.1208   4
   3   8  -3 394.921 66.7946   2
   3   8  -2 3497.22 185.170   2
  -3  -8   2 3518.35 171.941   4
   3   8  -1 3731.77 179.906   2
  -3  -8   1 4099.23 177.060   4
   3   8   0 1946.59 123.088   2
  -3  -8   0 1944.26 120.386   4
   3   8   1 32.5229 31.2671   2
  -3  -8  -1 66.3630 30.3725   4
   3   8   2 456.675 57.1624   2
  -3  -8  -2 474.359 59.6683   4
  -3  -8  -3 79.7845 29.1921   1
   3   8   3 62.0830 24.2144   2
  -3  -8  -3 106.053 35.2240   4
  -3  -8  -4 116.802 33.8133   4
  -3  -8  -4 123.372 32.6984   1
   3   8   4 84.5104 27.9902   2
   3   8   5 629.371 50.9335   2
  -3  -8  -5 847.230 71.5584   1
  -3  -8  -5 899.788 68.7603   4
   3   8   5 895.362 77.1593   3
  -3  -8  -6 217.106 43.0154   1
   3   8   6 167.949 26.1954   2
   3   8   6 226.446 45.5184   3
  -3  -8  -6 141.343 30.8077   4
  -3  -8  -7 3788.62 159.424   1
   3   8   7 3769.46 162.939   3
  -3  -8  -7 4138.58 146.357   4
  -3  -8  -8 10055.1 266.998   1
  -3  -8  -8 10086.5 233.884   4
   3   8   8 9625.01 262.581   3
  -3  -8  -9 4151.94 180.292   1
   3   8   9 4345.54 185.195   3
  -3  -8  -9 4483.20 162.812   4
  -3  -8 -10 5466.72 185.155   4
   3   8  10 5056.07 203.380   3
  -3  -8 -10 5349.37 214.428   1
  -3  -8 -11 3311.78 150.185   4
   3   8  11 2962.28 158.734   3
  -3  -8 -11 3004.15 130.128   5
  -3  -8 -11 2989.11 168.328   1
  -3  -8 -12 772.940 92.2248   1
   3   8  12 824.586 89.4540   3
  -3  -8 -12 865.077 83.2002   4
  -3  -8 -12 713.334 70.4123   5
   3   8  13 7.58614 33.8960   3
  -3  -8 -13-12.5404 31.3881   5
  -3  -8 -13-13.9667 33.5946   1
  -3  -8 -13 55.5371 38.0643   4
  -3  -8 -14 105.247 33.3036   5
  -3  -8 -14 189.307 61.9550   1
   3   8  14 175.870 54.1612   3
  -3  -8 -15 96.6726 50.1589   1
  -3  -8 -15 82.2005 37.4216   5
   3   8  15 74.6073 46.1455   3
  -3  -8 -16 147.395 63.1646   1
   3   8  16 130.965 59.7279   3
  -3  -8 -16 39.7431 34.6927   5
  -3  -8 -17 35.6322 44.6684   1
  -3  -8 -17-10.8095 34.0441   5
  -3  -8 -18 185.911 59.8161   1
  -3  -8 -19 456.404 94.6544   1
  -3  -9   9 144.964 61.0426   4
   3   9  -9 234.994 75.4237   2
  -3  -9   8 364.411 82.0180   4
   3   9  -8 571.573 108.248   2
  -3  -9   7 321.220 76.1352   4
   3   9  -7 267.808 73.9406   2
  -3  -9   6 439.649 81.8842   4
   3   9  -6 570.840 103.108   2
  -3  -9   5 232.549 62.0401   4
   3   9  -5 263.509 71.5783   2
  -3  -9   4 1191.49 120.280   4
   3   9  -4 1240.95 128.818   2
  -3  -9   3 2456.78 158.770   4
   3   9  -3 2297.83 165.812   2
  -3  -9   2 3287.14 177.171   4
   3   9  -2 3129.64 183.280   2
  -3  -9   1 1593.44 119.292   4
   3   9  -1 1548.99 123.952   2
  -3  -9   0 317.062 54.7800   4
   3   9   0 395.690 65.7332   2
  -3  -9  -1 186.559 46.6887   4
   3   9   1 184.076 46.5559   2
  -3  -9  -2 364.060 55.4249   4
   3   9   2 376.502 55.9822   2
  -3  -9  -2 313.243 46.6958   1
  -3  -9  -3 112.372 31.9632   4
   3   9   3 117.146 34.1201   2
  -3  -9  -3 183.803 38.6752   1
  -3  -9  -4 108.812 36.8541   4
   3   9   4 85.9373 30.0609   2
  -3  -9  -4 88.0787 30.1288   1
  -3  -9  -5 288.949 45.5980   4
   3   9   5 224.672 35.7410   2
  -3  -9  -5 176.463 40.8124   1
   3   9   6 1955.55 84.4726   2
  -3  -9  -6 2020.19 115.099   1
  -3  -9  -6 2173.08 113.908   4
   3   9   6 2099.19 123.136   3
  -3  -9  -7 2972.28 144.189   1
   3   9   7 2991.95 149.238   3
  -3  -9  -7 3368.67 142.168   4
  -3  -9  -8 3867.12 171.964   1
   3   9   8 4198.44 182.026   3
  -3  -9  -8 4054.87 158.516   4
  -3  -9  -9 1292.15 93.1746   4
  -3  -9  -9 1188.93 101.974   1
   3   9   9 1055.24 98.2121   3
   3   9  10 1839.85 130.317   3
  -3  -9 -10 1919.14 116.897   4
  -3  -9 -10 2000.98 133.312   1
  -3  -9 -11 2423.38 134.943   4
  -3  -9 -11 2614.28 158.072   1
   3   9  11 2468.03 153.748   3
   3   9  12 327.820 70.5169   3
  -3  -9 -12 352.080 56.0515   4
  -3  -9 -12 341.084 64.3918   1
  -3  -9 -13 398.482 67.0115   4
  -3  -9 -13 505.343 81.5847   1
   3   9  13 373.323 70.1359   3
   3   9  14 287.566 68.7557   3
  -3  -9 -14 266.951 66.4437   1
  -3  -9 -14 232.384 60.4172   4
  -3  -9 -15 31.8784 40.3511   1
   3   9  15 107.835 50.5324   3
  -3  -9 -16 20.7361 31.5028   5
  -3  -9 -16-10.6671 40.9916   1
   3   9  16-11.3197 45.1870   3
  -3  -9 -17 33.7447 44.5367   1
   3   9  17-23.6247 33.8247   3
  -3  -9 -18 389.945 89.6074   1
  -3  -9 -19 549.732 108.153   1
  -3 -10   8 266.857 82.1542   4
   3  10  -8 326.898 88.3408   2
   3  10  -7 437.348 97.2510   2
  -3 -10   7 294.469 74.1896   4
   3  10  -6 1106.77 137.478   2
  -3 -10   6 1032.68 124.846   4
   3  10  -5 1231.39 137.987   2
  -3 -10   5 1278.39 131.965   4
  -3 -10   4 274.223 68.6496   4
   3  10  -4 252.385 69.0532   2
  -3 -10   3 1184.91 120.373   4
   3  10  -3 1056.44 122.031   2
  -3 -10   2 3533.49 195.796   4
   3  10  -2 3178.60 193.683   2
  -3 -10   1 191.873 52.1832   4
   3  10  -1 216.061 52.9677   2
  -3 -10   0 228.887 55.8410   4
   3  10   0 167.785 52.4811   2
   3  10   1 124.504 47.4041   2
  -3 -10  -1 130.125 44.5224   4
   3  10   2 237.244 54.0604   2
  -3 -10  -2 231.868 46.9575   4
  -3 -10  -2 222.473 38.5757   1
  -3 -10  -3 63.4561 26.8421   1
  -3 -10  -3 120.126 42.4708   4
   3  10   3 34.3835 30.6035   2
  -3 -10  -4 25.7278 29.4538   4
   3  10   4 10.4828 25.0578   2
  -3 -10  -4 14.8861 27.5091   1
  -3 -10  -5 18.7472 26.5137   4
  -3 -10  -5 50.6961 29.4068   1
   3  10   5 42.4803 20.6781   2
  -3 -10  -6 457.293 58.0038   1
  -3 -10  -6 567.297 68.2667   4
  -3 -10  -7 2970.30 145.360   4
  -3 -10  -7 3153.55 152.023   1
   3  10   7 2767.35 149.654   3
  -3 -10  -8 4089.99 178.846   1
   3  10   8 4197.55 188.324   3
  -3 -10  -8 4613.47 177.812   4
  -3 -10  -9 281.580 49.4347   4
  -3 -10  -9 261.510 51.6868   1
   3  10   9 212.872 50.7808   3
  -3 -10 -10 1104.95 104.111   1
   3  10  10 1171.61 108.484   3
  -3 -10 -10 957.697 89.4256   4
   3  10  11 315.548 68.7407   3
  -3 -10 -11 300.764 56.2146   1
  -3 -10 -11 318.153 55.0832   4
   3  10  12 510.726 78.3460   3
  -3 -10 -12 480.307 67.4097   4
  -3 -10 -12 460.702 72.0986   1
  -3 -10 -13 26.5284 37.9173   1
  -3 -10 -13 9.46813 30.6434   4
   3  10  13-26.7615 37.1430   3
  -3 -10 -14-30.4049 37.1379   1
  -3 -10 -14 41.5854 38.7970   4
   3  10  14 44.9967 38.1893   3
   3  10  15 6.10316 52.2797   3
  -3 -10 -15 36.9998 45.2354   1
  -3 -10 -15 85.5309 43.0805   4
   3  10  16 72.1997 50.9366   3
  -3 -10 -16-1.28404 46.6316   1
   3  10  17-13.7299 41.7641   3
  -3 -10 -17 68.7820 56.5644   1
  -3 -10 -18 467.874 97.5591   1
   3  10  18 499.056 93.2806   3
  -3 -10 -19 633.384 108.557   1
  -3 -11   7 194.705 77.2050   4
   3  11  -7 150.115 68.0076   2
  -3 -11   6 473.903 95.6158   4
   3  11  -6 327.773 82.4099   2
  -3 -11   5 473.995 98.4258   4
   3  11  -5 648.681 111.062   2
  -3 -11   4 152.726 63.5484   4
   3  11  -4 95.8791 59.6251   2
  -3 -11   3 577.405 95.6034   4
   3  11  -3 534.010 93.2987   2
  -3 -11   2 362.207 74.5154   4
   3  11  -2 422.895 82.8154   2
  -3 -11   1 274.964 71.3664   4
   3  11  -1 350.660 75.9778   2
   3  11   0 9.03538 34.3307   2
  -3 -11   0 84.9946 48.6852   4
  -3 -11  -1 73.0868 40.6773   4
   3  11   1 34.6651 36.1814   2
   3  11   2 939.482 93.4597   2
  -3 -11  -2 903.701 91.2909   4
   3  11   3 580.351 73.4852   2
  -3 -11  -3 617.961 77.6282   4
   3  11   4 162.819 40.9282   2
  -3 -11  -4 156.157 38.1013   1
  -3 -11  -4 257.626 53.2113   4
  -3 -11  -5 826.799 87.4655   4
  -3 -11  -5 717.500 72.7083   1
  -3 -11  -6 1230.71 95.0437   1
  -3 -11  -6 1212.25 97.1439   4
  -3 -11  -7 1268.50 102.571   1
  -3 -11  -7 1286.99 99.9293   4
  -3 -11  -8 259.443 53.6911   1
  -3 -11  -8 193.466 45.0009   4
   3  11   8 214.092 52.1914   3
  -3 -11  -9 2045.92 130.188   4
   3  11   9 1934.75 137.525   3
  -3 -11  -9 1981.16 133.020   1
  -3 -11 -10 57.1475 38.3256   1
   3  11  10 78.1701 40.4221   3
  -3 -11 -10 42.9758 43.0073   4
   3  11  11-46.6415 48.6105   3
  -3 -11 -11 29.1284 32.2040   4
   3  11  12-77.0598 43.2973   3
  -3 -11 -12 27.0832 35.9817   1
  -3 -11 -12 20.8818 33.8835   4
  -3 -11 -13 131.209 53.1975   1
  -3 -11 -13 89.4709 41.7933   4
   3  11  13 91.1899 40.7450   3
  -3 -11 -14 69.4400 41.7139   4
  -3 -11 -14 13.1966 39.5178   1
   3  11  14 101.581 55.3540   3
  -3 -11 -15 22.7150 37.5446   1
  -3 -11 -15 20.4220 36.4142   4
   3  11  15 54.2096 54.3495   3
  -3 -11 -16 74.5673 58.7220   1
   3  11  16 113.328 62.7185   3
  -3 -11 -17 117.811 61.1676   1
   3  11  17 84.8008 53.8221   3
  -3 -11 -18 169.433 69.9730   1
   3  11  18 187.216 61.3736   3
  -3 -11 -19 343.793 92.2323   1
  -3 -12   6 130.975 66.9437   4
   3  12  -6-34.6192 62.1668   2
  -3 -12   5 195.518 69.5542   4
   3  12  -5 168.943 64.8323   2
   3  12  -4 74.6100 54.2311   2
  -3 -12   4 115.763 57.1671   4
  -3 -12   3 165.262 60.4789   4
   3  12  -3 65.2745 57.4867   2
   3  12  -2 165.331 65.0989   2
  -3 -12   2 248.022 61.8970   4
  -3 -12   1 56.9497 44.4329   4
   3  12  -1 17.7836 43.5713   2
  -3 -12   0 442.030 78.6233   4
   3  12   0 723.047 100.975   2
   3  12   1 606.424 84.4837   2
  -3 -12  -1 560.567 84.5459   4
   3  12   2 1047.86 104.193   2
  -3 -12  -2 1300.68 116.721   4
  -3 -12  -3 2913.70 171.212   4
   3  12   3 2938.82 157.130   2
   3  12   4 1569.23 111.060   2
  -3 -12  -4 1695.95 127.461   4
  -3 -12  -5 848.544 79.1257   1
  -3 -12  -5 1018.64 96.6772   4
  -3 -12  -6 692.369 79.1101   1
  -3 -12  -6 712.298 86.3301   4
  -3 -12  -7 384.600 60.8287   1
  -3 -12  -7 531.263 71.8449   4
  -3 -12  -8 238.720 50.4520   4
  -3 -12  -8 275.275 53.2584   1
   3  12   9 2678.63 164.925   3
  -3 -12  -9 3010.98 164.505   4
  -3 -12  -9 2626.41 156.541   1
  -3 -12 -10 374.756 67.2558   1
   3  12  10 241.917 61.4404   3
  -3 -12 -10 220.725 53.5152   4
  -3 -12 -11 124.410 49.1632   1
   3  12  11 29.9746 39.1617   3
  -3 -12 -11 133.164 47.7153   4
  -3 -12 -12 26.8592 32.0115   4
   3  12  12-16.4866 38.6433   3
  -3 -12 -12-21.8357 39.4221   1
   3  12  13 148.356 63.0101   3
  -3 -12 -13 202.899 52.8985   4
  -3 -12 -13 236.518 62.9137   1
  -3 -12 -14 216.487 57.1030   1
  -3 -12 -14 468.588 77.7397   4
   3  12  14 479.438 86.9597   3
  -3 -12 -15 43.5071 46.7651   1
   3  12  15 53.7410 55.8938   3
  -3 -12 -16 78.1262 50.7787   1
   3  12  16 73.9361 49.7895   3
  -3 -12 -17 438.869 92.8304   1
   3  12  17 593.978 101.092   3
  -3 -12 -18 288.333 82.6870   1
   3  12  18 410.883 85.6781   3
   3  12  19 402.702 91.2770   3
  -3 -12 -19 541.737 109.958   1
  -3 -13   5 5.13445 53.0089   4
   3  13  -5-139.792 80.0750   2
   3  13  -4 112.213 59.3946   2
  -3 -13   4 125.061 58.9850   4
   3  13  -3 231.831 69.9588   2
  -3 -13   3 248.538 75.5608   4
  -3 -13   2 55.7225 47.1359   4
   3  13  -2 110.321 53.9418   2
  -3 -13   1 206.792 64.1806   4
   3  13  -1 244.345 73.3206   2
  -3 -13   0 747.589 108.216   4
   3  13   0 813.245 104.370   2
   3  13   1 646.843 92.0866   2
  -3 -13  -1 687.292 97.5952   4
   3  13   2 944.929 102.439   2
  -3 -13  -2 1068.47 114.731   4
   3  13   3 1689.92 128.506   2
  -3 -13  -3 1723.28 137.856   4
  -3 -13  -4 915.831 101.812   4
  -3 -13  -5 164.791 49.2956   4
  -3 -13  -6 63.7130 35.0736   4
  -3 -13  -7 31.3003 36.7806   4
  -3 -13  -7-7.18844 26.7681   1
  -3 -13  -8 629.186 78.8600   1
  -3 -13  -8 563.604 76.8096   4
  -3 -13  -9 1572.58 125.569   4
   3  13   9 1632.53 134.791   3
  -3 -13  -9 1560.26 123.774   1
  -3 -13 -10 100.922 45.5455   4
  -3 -13 -10 72.2991 43.2991   1
   3  13  10 13.2075 43.2949   3
  -3 -13 -11 677.805 90.7320   1
   3  13  11 688.157 96.8235   3
  -3 -13 -11 745.790 90.3616   4
   3  13  12 144.843 52.4815   3
  -3 -13 -12 173.939 55.4911   4
  -3 -13 -12 214.208 56.9799   1
  -3 -13 -13 393.164 80.3798   1
   3  13  13 367.680 71.8992   3
  -3 -13 -13 381.733 73.2444   4
  -3 -13 -14 309.130 66.9772   4
  -3 -13 -14 454.800 87.4130   1
   3  13  14 428.535 91.0481   3
  -3 -13 -15 265.338 71.6500   1
   3  13  15 375.730 86.0238   3
  -3 -13 -16 93.7298 50.5386   1
   3  13  16 162.476 63.1057   3
   3  13  17 196.276 68.2866   3
  -3 -13 -17 316.109 82.9416   1
  -3 -13 -18 486.957 103.446   1
   3  13  18 435.788 94.0233   3
   3  13  19 268.048 76.7380   3
   3  14  -4 5.98096 49.8456   2
   3  14  -3 117.724 55.6567   2
  -3 -14   3 95.3612 51.7835   4
  -3 -14   2 325.456 87.6483   4
   3  14  -2 340.769 90.6308   2
  -3 -14   1 198.821 71.2001   4
   3  14  -1 18.2188 34.8292   2
   3  14   0 662.849 98.0813   2
  -3 -14   0 847.869 110.171   4
   3  14   1 316.433 66.4331   2
  -3 -14  -1 300.160 73.1897   4
   3  14   2 193.679 57.1558   2
  -3 -14  -2 178.454 54.9067   4
  -3 -14  -3 742.893 102.908   4
  -3 -14  -4 773.084 100.277   4
  -3 -14  -5 24.6416 41.0613   4
  -3 -14  -6 240.095 62.2418   4
  -3 -14  -7-21.8359 32.2234   4
  -3 -14  -8 541.460 81.4022   4
  -3 -14  -9 179.525 56.9872   1
  -3 -14  -9 279.393 63.0488   4
  -3 -14 -10-15.3052 34.7273   1
   3  14  10 24.8631 45.2085   3
  -3 -14 -10-15.9820 40.9972   4
  -3 -14 -11 589.037 84.9576   4
  -3 -14 -11 563.006 82.8163   1
   3  14  11 606.797 91.5465   3
  -3 -14 -12 150.972 58.1896   4
   3  14  12 99.9290 51.3469   3
  -3 -14 -12 127.999 46.2230   1
  -3 -14 -13 506.755 90.5434   1
   3  14  13 321.524 71.6838   3
  -3 -14 -13 323.959 68.2835   4
   3  14  14 231.580 61.6986   3
  -3 -14 -14 310.590 76.0506   1
   3  14  15 179.658 63.7915   3
  -3 -14 -15 99.3231 57.6597   1
  -3 -14 -16 277.545 74.4655   1
   3  14  16 203.939 68.3500   3
  -3 -14 -17 169.287 65.4914   1
   3  14  17-44.6144 44.4799   3
  -3 -14 -18 224.935 76.0937   1
   3  14  18 340.645 79.5718   3
   3  14  19 491.313 100.589   3
   3  15  -2 151.378 69.6380   2
  -3 -15   2 134.400 66.8300   4
  -3 -15   1 62.8972 36.7770   4
   3  15  -1 106.371 57.1301   2
  -3 -15   0 695.532 109.461   4
   3  15   0 458.701 89.2141   2
   3  15   1 987.259 121.517   2
  -3 -15  -1 1110.01 133.204   4
  -3 -15  -2 441.037 87.3401   4
  -3 -15  -3 756.078 106.271   4
  -3 -15  -4 436.807 80.8892   4
  -3 -15  -5 112.421 47.2858   4
  -3 -15  -6 30.8427 41.3862   4
  -3 -15  -7 295.383 68.4900   4
  -3 -15  -8 135.563 50.2210   4
  -3 -15  -9 137.671 50.6759   4
  -3 -15 -10 184.541 57.3807   4
   3  15  10 122.845 50.9890   3
  -3 -15 -11 125.367 43.8420   1
  -3 -15 -11 237.421 60.2310   4
   3  15  11 113.310 57.3419   3
  -3 -15 -12 468.328 80.0715   1
   3  15  12 733.782 108.184   3
  -3 -15 -12 533.024 86.7286   4
   3  15  13 319.415 77.0404   3
  -3 -15 -13 221.720 60.7111   1
  -3 -15 -13 357.726 73.0975   4
   3  15  14 272.872 74.6356   3
  -3 -15 -14 313.341 75.9349   1
  -3 -15 -15 372.182 89.0816   1
   3  15  15 281.929 79.1703   3
   3  15  16 242.403 69.1089   3
  -3 -15 -16 275.992 71.9125   1
  -3 -15 -17 285.675 77.6605   1
   3  15  17 219.704 69.1783   3
  -3 -15 -18 402.693 97.8339   1
   3  15  18 483.194 101.754   3
   3  16  -1 227.832 78.6838   2
  -3 -16   0 712.539 116.676   4
   3  16   0 553.911 107.908   2
  -3 -16  -1 557.818 97.1539   4
  -3 -16  -2 910.921 123.906   4
  -3 -16  -3 680.082 105.214   4
  -3 -16  -4 56.4581 50.2398   4
  -3 -16  -5 54.4714 48.6027   4
  -3 -16  -6 27.8558 42.5158   4
  -3 -16  -7 144.052 54.5010   4
  -3 -16  -8-0.99621 30.9331   4
  -3 -16  -9 62.2907 36.8333   4
   3  16  10 366.463 80.7810   3
  -3 -16 -10 209.593 60.0691   4
   3  16  11 249.985 70.5898   3
  -3 -16 -11 274.874 65.6250   4
  -3 -16 -12 393.486 79.0819   4
   3  16  12 234.671 72.5598   3
   3  16  13 256.858 77.9225   3
  -3 -16 -13 155.856 59.8830   1
  -3 -16 -14 191.510 59.4927   1
   3  16  14 324.758 82.7738   3
   3  16  15 374.684 83.7165   3
  -3 -16 -15 406.340 84.2354   1
   3  16  16 317.245 85.8790   3
  -3 -16 -16 70.9000 46.1879   1
  -3 -16 -17 218.954 80.0206   1
   3  16  17 243.818 86.5296   3
  -3 -17  -2 766.870 124.108   4
  -3 -17  -3 724.132 113.897   4
  -3 -17  -4 87.3469 57.0164   4
  -3 -17  -5 12.3822 35.6130   4
  -3 -17  -6 99.4485 57.7158   4
  -3 -17  -7 112.133 54.7359   4
  -3 -17  -8 81.3196 42.1021   4
  -3 -17  -9 13.4052 37.7940   4
  -3 -17 -10-19.7296 37.3747   4
   3  17  10 98.9507 53.0562   3
  -3 -17 -11 432.513 84.0536   4
   3  17  11 293.575 74.2288   3
   3  17  12 655.957 107.921   3
   3  17  13 335.472 82.5158   3
   3  17  14 344.987 84.4581   3
   3  17  15 157.485 67.0980   3
  -3 -17 -16 71.9860 55.9946   1
  -3 -17 -17 216.981 71.2346   1
  -3 -18  -4 15.3465 46.1172   4
  -3 -18  -5 55.4669 59.5629   4
  -3 -18  -6 135.459 63.4921   4
  -3 -18  -7-1.42269 41.8840   4
  -3 -18  -8 46.0854 40.7368   4
  -3 -18  -9-19.2464 40.9159   4
  -3 -18 -10 173.964 59.5530   4
   3  18  10 302.902 81.4811   3
   3  18  11 504.564 91.9407   3
   3  18  12 291.860 90.7349   3
   3  18  13 347.866 88.2261   3
  -3 -19  -7 56.4293 45.5285   4
  -3 -19  -8-9.50530 47.5400   4
  -3 -19  -9 143.215 61.3688   4
   3  19  10 263.793 72.2264   3
   4 -18 -10 283.032 85.0839   4
   4 -18  -9 16.1411 57.9592   4
   4 -18  -8 49.8192 47.1565   4
   4 -18  -7 151.403 68.2206   4
   4 -18  -6 187.595 69.5332   4
   4 -17 -13 95.4547 55.9766   4
   4 -17 -12 365.788 95.7260   4
   4 -17 -11 397.638 96.5939   4
   4 -17 -10 169.251 69.9837   4
   4 -17  -9 163.438 69.6041   4
   4 -17  -8 329.772 82.2769   4
   4 -17  -7 27.7466 47.8712   4
   4 -17  -6 62.2162 46.3134   4
   4 -17  -5 171.611 70.3987   4
   4 -17  -4-20.6149 48.0928   4
   4 -17  -3 53.8496 52.9799   4
   4 -17  -2 152.573 75.5265   3
   4 -17  -2 190.328 74.5273   4
   4 -17  -1 169.733 66.6929   3
   4 -17   0 148.637 69.3184   3
   4 -16 -14 103.686 64.8616   4
   4 -16 -13 262.779 82.6603   4
   4 -16 -12 323.275 90.9595   4
   4 -16 -11 977.260 133.673   4
   4 -16 -10 269.811 90.1121   4
   4 -16  -9 185.852 69.3758   4
   4 -16  -8 366.593 79.8315   4
   4 -16  -7 100.554 59.4552   4
   4 -16  -6 175.826 66.3122   4
   4 -16  -5 85.8607 58.8385   4
   4 -16  -4 97.6928 49.6440   3
   4 -16  -4 128.034 65.7489   4
   4 -16  -3-30.5563 52.5123   3
   4 -16  -3-15.5389 48.2371   4
   4 -16  -2 163.201 76.0518   3
   4 -16  -2 142.686 69.5883   4
   4 -16  -1 989.767 133.249   3
   4 -16  -1 983.183 132.026   4
   4 -16   0 472.057 99.2530   4
   4 -16   0 674.915 112.830   3
  -4  16   0 601.254 112.590   2
   4 -16   1 440.646 103.843   4
   4 -16   1 365.346 90.0905   3
  -4  16  -1 369.789 92.4369   2
  -4  16  -2 548.744 111.749   2
   4 -15 -15 17.2841 55.6336   4
   4 -15 -14 80.3027 56.4699   4
   4 -15 -13-10.7085 44.7550   4
   4 -15 -12 696.139 113.308   4
   4 -15 -11 488.489 99.1240   4
   4 -15 -10 844.493 122.529   4
   4 -15  -9 618.597 98.5416   4
   4 -15  -8 13.3895 44.1819   4
   4 -15  -7 23.5972 48.8957   4
   4 -15  -6 80.1335 49.7436   4
   4 -15  -5 5.59639 46.7502   4
   4 -15  -5 8.24314 55.5746   3
   4 -15  -4-61.5947 46.5232   4
   4 -15  -4 9.69856 54.1634   3
   4 -15  -3 12.7047 53.3307   3
   4 -15  -3 61.1430 49.8218   4
   4 -15  -2 131.477 63.9341   4
   4 -15  -2 110.676 62.6560   3
   4 -15  -1 863.795 120.516   3
  -4  15   1 835.165 110.033   2
   4 -15  -1 900.350 122.005   4
   4 -15   0 974.833 128.226   4
   4 -15   0 779.159 112.134   3
  -4  15   0 672.763 110.953   2
   4 -15   1 1222.60 139.332   3
  -4  15  -1 904.165 127.521   2
   4 -15   1 1187.32 142.713   4
   4 -15   2 593.184 110.317   4
  -4  15  -2 387.987 94.4907   2
  -4  15  -3 152.323 71.1422   2
   4 -15   3 173.111 73.6033   4
   4 -14 -17 88.7238 61.2428   1
   4 -14 -16 146.882 70.2788   1
   4 -14 -16 97.1425 59.2088   4
   4 -14 -15 78.7271 50.1313   4
   4 -14 -15 85.1981 57.5055   1
   4 -14 -14 52.5288 53.5715   1
   4 -14 -14 0.41384 54.9019   4
   4 -14 -13 585.097 112.447   4
   4 -14 -12 968.625 125.647   4
   4 -14 -11 849.029 118.115   4
   4 -14 -10 197.861 62.8240   4
   4 -14  -9 65.4025 49.9780   4
   4 -14  -8-1.67587 41.8819   4
   4 -14  -7-13.0804 44.4499   4
   4 -14  -6 176.919 68.2102   3
   4 -14  -6 153.618 61.2212   4
   4 -14  -5 90.8690 58.8746   3
   4 -14  -5 84.5092 45.6394   4
   4 -14  -4 69.1176 52.1136   3
   4 -14  -4 48.2816 48.8349   4
   4 -14  -3 176.310 71.5694   3
   4 -14  -3 236.891 65.2697   4
   4 -14  -2 1165.14 126.908   3
  -4  14   2 963.943 112.816   2
   4 -14  -2 972.241 116.273   4
   4 -14  -1 779.673 112.869   3
   4 -14  -1 884.364 115.583   4
  -4  14   1 729.845 106.569   2
  -4  14   0 949.981 118.350   2
   4 -14   0 1021.61 125.011   3
   4 -14   0 918.608 119.720   4
  -4  14  -1 550.162 98.5464   2
   4 -14   1 460.861 84.5562   3
   4 -14   2 184.260 68.5348   4
  -4  14  -2 181.563 72.3363   2
   4 -14   2 142.152 60.8341   3
   4 -14   3 40.9003 44.3384   4
  -4  14  -3-18.1039 44.7567   2
   4 -14   4 227.228 80.3309   4
  -4  14  -4 112.441 55.8704   2
   4 -14   5 96.0872 66.0259   4
   4 -13 -17 70.7712 51.8267   1
   4 -13 -16 226.806 78.6808   4
   4 -13 -16 105.360 60.0088   1
   4 -13 -15 153.347 60.9568   4
   4 -13 -15 67.8859 47.6896   1
   4 -13 -14 119.954 62.9666   4
   4 -13 -14 17.4384 33.1224   1
   4 -13 -13 147.085 82.3594   4
   4 -13 -13 168.910 53.5950   1
   4 -13 -12 813.903 105.030   1
   4 -13 -12 720.160 108.414   4
   4 -13 -11 1171.81 133.337   4
   4 -13 -10 575.666 95.1660   4
   4 -13  -9 21.0710 49.3609   4
   4 -13  -8 219.454 60.9394   4
   4 -13  -7 89.6069 50.9020   4
   4 -13  -6 1127.35 121.432   3
   4 -13  -6 1043.92 115.704   4
   4 -13  -5 143.424 59.8248   3
   4 -13  -5 79.8427 54.6921   4
   4 -13  -4 917.472 119.659   3
   4 -13  -4 728.567 96.5226   4
   4 -13  -3 867.789 110.486   3
   4 -13  -3 942.524 111.206   4
   4 -13  -2 1263.70 129.720   3
   4 -13  -2 1457.37 136.076   4
  -4  13   2 1352.98 117.672   2
   4 -13  -1 1008.02 117.762   4
   4 -13  -1 1020.26 119.289   3
  -4  13   1 865.217 104.457   2
   4 -13   0 1991.54 166.052   3
  -4  13   0 1799.15 156.267   2
   4 -13   0 1727.91 149.611   4
   4 -13   1 1853.66 157.252   3
  -4  13  -1 1698.54 155.182   2
   4 -13   1 1601.21 147.904   4
   4 -13   2 49.9796 52.0691   4
  -4  13  -2 20.1498 44.5595   2
   4 -13   2-33.6416 47.0671   3
   4 -13   3 292.754 74.1824   3
  -4  13  -3 250.638 74.5694   2
   4 -13   3 268.954 77.5897   4
   4 -13   4 19.8531 54.2978   4
  -4  13  -4-32.9505 45.8026   2
   4 -13   5 6.27186 42.3505   4
  -4  13  -5 46.6298 52.2209   2
   4 -13   6 90.6546 58.4704   4
  -4  13  -6 151.543 66.3015   2
   4 -12 -17 472.790 101.806   1
   4 -12 -17 452.863 104.020   4
   4 -12 -16 247.356 73.2193   1
   4 -12 -16-19.2018 48.3781   4
   4 -12 -15 390.520 89.9000   1
   4 -12 -15 361.000 90.9367   4
   4 -12 -14 318.923 80.2190   4
   4 -12 -14 323.209 78.0313   1
   4 -12 -13 702.975 108.616   4
   4 -12 -13 824.772 114.484   1
   4 -12 -12 254.011 65.0789   1
   4 -12 -12 261.714 70.2811   4
   4 -12 -11 145.524 41.5131   1
   4 -12 -11 316.705 72.7913   4
   4 -12 -10 195.243 53.0596   1
   4 -12 -10 283.468 67.2640   4
   4 -12  -9 658.812 89.6482   4
   4 -12  -8 83.4611 49.2138   4
   4 -12  -7 800.364 101.327   3
   4 -12  -7 599.959 87.5439   4
   4 -12  -6 235.905 68.8352   3
   4 -12  -6 155.713 54.7154   4
   4 -12  -5-74.3076 50.1245   3
   4 -12  -5 26.6326 40.1215   4
   4 -12  -4 51.0340 42.9638   3
   4 -12  -4 102.865 52.7625   4
   4 -12  -3 2351.82 163.329   3
   4 -12  -3 2315.67 157.621   4
   4 -12  -2 4904.59 234.352   3
   4 -12  -2 4735.72 226.133   4
   4 -12  -1 1515.09 135.268   3
   4 -12  -1 1355.62 125.555   4
   4 -12   0 1623.81 140.388   3
   4 -12   0 1679.19 141.896   4
  -4  12   0 1713.18 144.198   2
   4 -12   1 1056.43 117.312   3
  -4  12  -1 968.792 115.880   2
   4 -12   1 993.234 117.383   4
   4 -12   2 88.2908 50.1024   4
  -4  12  -2 139.307 63.1043   2
   4 -12   2 116.296 46.6762   3
   4 -12   3 64.4888 50.2530   4
   4 -12   3-10.3223 55.0262   3
  -4  12  -3 31.9616 50.3685   2
   4 -12   4-51.8823 42.4694   3
   4 -12   4 13.5448 41.6413   4
  -4  12  -4 58.5669 58.5242   2
  -4  12  -5 137.890 71.7956   2
   4 -12   5 118.736 55.0890   4
  -4  12  -6-38.6747 48.9772   2
   4 -12   6 114.271 62.7277   4
   4 -12   7 41.2161 48.1872   4
  -4  12  -7 0.70198 55.5570   2
   4 -12   8 39.9350 42.1612   4
   4 -11 -17 521.963 104.638   1
   4 -11 -16 263.846 80.3116   4
   4 -11 -16 232.265 77.0736   1
   4 -11 -15 214.384 67.5712   1
   4 -11 -15 263.183 81.8521   4
   4 -11 -14 596.347 98.1880   1
   4 -11 -14 632.883 102.961   4
   4 -11 -13 375.060 81.1975   1
   4 -11 -13 271.457 71.3061   4
   4 -11 -12 181.857 60.5406   1
   4 -11 -12 166.547 61.7908   4
   4 -11 -11-35.8391 39.6726   4
   4 -11 -11 42.1575 33.4294   1
   4 -11 -10 41.0251 39.6893   4
   4 -11 -10 36.3730 31.0263   1
   4 -11  -9-55.6662 43.1835   4
   4 -11  -9 20.4180 27.1085   1
   4 -11  -8 253.675 63.5629   4
   4 -11  -8 160.246 42.7428   1
   4 -11  -7 1231.52 116.913   4
   4 -11  -7 1257.83 115.956   3
   4 -11  -6 64.7432 50.3077   3
   4 -11  -6 24.8820 38.8543   4
   4 -11  -5 9.80142 39.5620   3
   4 -11  -5 56.8355 38.4090   4
   4 -11  -4-14.2906 40.0525   3
   4 -11  -4-2.51156 40.2612   4
   4 -11  -3 305.747 62.6065   3
   4 -11  -3 367.661 67.3750   4
   4 -11  -2 961.133 103.489   3
   4 -11  -2 848.845 100.152   4
   4 -11  -1 2162.60 154.766   3
   4 -11  -1 1955.72 143.432   4
   4 -11   0 870.581 104.830   3
   4 -11   0 644.613 83.7210   4
   4 -11   1 406.831 75.7200   4
   4 -11   1 282.830 62.3776   3
   4 -11   2 142.825 55.7988   4
  -4  11  -2 142.847 50.2865   2
   4 -11   2 113.786 54.4156   3
   4 -11   3 118.759 51.0927   4
   4 -11   3 90.0693 48.6192   3
  -4  11  -3 21.8425 40.5012   2
  -4  11  -4 222.172 78.7569   2
   4 -11   4 165.129 61.5935   4
   4 -11   4 126.594 53.7846   3
   4 -11   5 170.466 67.6005   4
  -4  11  -5 34.9945 50.1173   2
   4 -11   6 51.5685 47.1613   4
  -4  11  -6 90.5156 59.1712   2
   4 -11   7 45.3255 42.3661   4
  -4  11  -7 96.0802 52.7293   2
   4 -11   8 266.748 74.9402   4
  -4  11  -8 363.640 89.6931   2
   4 -11   9 1239.70 155.192   4
   4 -10 -17 280.458 84.2651   1
   4 -10 -16 389.737 90.0395   1
   4 -10 -15 57.5619 42.5715   4
   4 -10 -15 155.887 59.3434   1
   4 -10 -14 257.608 79.4487   1
   4 -10 -14 203.592 63.5942   4
   4 -10 -13 336.430 78.5688   1
   4 -10 -13 387.850 82.0145   4
   4 -10 -12 281.503 65.8139   1
   4 -10 -12 278.562 74.5577   4
   4 -10 -11 17.7228 32.9094   1
   4 -10 -11 63.2607 48.1949   4
   4 -10 -10 334.211 67.1636   1
   4 -10 -10 260.854 66.4425   4
   4 -10  -9 31.8865 41.8267   4
   4 -10  -9 70.5985 33.8193   1
   4 -10  -8 948.672 104.478   4
   4 -10  -8 868.356 86.2405   1
   4 -10  -7 4474.92 206.627   4
   4 -10  -7 4661.52 216.315   3
   4 -10  -7 4355.39 177.386   1
   4 -10  -6 1230.89 112.536   3
   4 -10  -6 1228.53 109.259   4
   4 -10  -6 1107.34 85.8524   1
   4 -10  -5 197.445 42.5498   3
   4 -10  -5 263.021 55.9939   4
   4 -10  -4 215.098 51.5827   3
   4 -10  -4 261.061 55.5613   4
   4 -10  -3 361.754 60.5554   4
   4 -10  -3 318.696 61.4569   3
   4 -10  -2 924.881 98.1063   3
   4 -10  -2 1055.27 102.599   4
   4 -10  -1 1845.26 135.648   3
   4 -10  -1 1829.32 130.879   4
   4 -10   0 1035.51 108.706   3
   4 -10   0 1036.58 100.990   4
   4 -10   1-24.0061 38.8868   4
   4 -10   1-6.01051 39.8542   3
   4 -10   2 22.6628 44.7484   3
   4 -10   2 5.53964 41.1022   4
   4 -10   3 95.7412 44.7761   4
   4 -10   3 126.061 50.4324   3
  -4  10  -3 199.779 65.5090   2
   4 -10   4 8.48058 36.0895   4
  -4  10  -4 73.1579 48.9563   2
   4 -10   4-10.2800 39.7705   3
   4 -10   5 290.908 72.9596   3
  -4  10  -5 126.175 55.4955   2
   4 -10   5 270.052 66.0045   4
   4 -10   6 124.825 55.6524   4
  -4  10  -6 103.871 65.2206   2
  -4  10  -7 25.9382 54.6869   2
   4 -10   7 84.6069 47.5985   4
   4 -10   8 517.748 99.4703   4
  -4  10  -8 564.551 107.521   2
  -4  10  -9 946.777 144.067   2
   4 -10   9 389.689 82.7590   4
   4 -10  10 918.865 131.024   4
   4  -9 -17 137.733 73.6928   1
   4  -9 -16-11.1144 56.9608   1
   4  -9 -15 163.442 63.4495   1
   4  -9 -14 36.6092 48.9939   4
   4  -9 -14-25.2690 46.9400   1
   4  -9 -13 5.05905 44.4692   1
   4  -9 -13-31.8735 43.1939   4
   4  -9 -12 197.197 56.8825   1
   4  -9 -12 239.515 64.9149   4
   4  -9 -11 147.120 53.0095   4
   4  -9 -11 131.533 50.7653   1
   4  -9 -10 1012.61 107.222   1
   4  -9 -10 991.889 107.962   4
   4  -9  -9 77.1893 38.2109   1
   4  -9  -9 80.7852 46.7610   4
   4  -9  -8 6702.07 235.666   1
   4  -9  -8 6537.03 249.381   4
   4  -9  -7 1525.72 108.571   1
   4  -9  -7 1813.10 125.364   3
   4  -9  -7 1580.05 124.129   4
   4  -9  -6 2145.83 138.247   3
   4  -9  -6 2065.09 133.693   4
   4  -9  -5 2866.21 157.939   3
   4  -9  -5 2520.57 118.338   1
   4  -9  -5 2912.86 154.614   4
   4  -9  -4 1676.52 123.748   3
   4  -9  -4 1605.65 111.906   4
   4  -9  -3 88.8876 46.2473   3
   4  -9  -3 94.6352 44.9125   4
   4  -9  -2 544.709 73.2576   3
   4  -9  -2 555.437 74.7576   4
   4  -9  -1 1328.01 114.390   3
   4  -9  -1 1383.75 106.628   4
   4  -9   0 23.2637 35.3943   3
   4  -9   0 7.09059 32.0609   4
   4  -9   1 204.849 58.3515   3
   4  -9   1 123.831 49.2894   4
   4  -9   2 535.340 77.4180   3
   4  -9   2 602.596 79.0381   4
   4  -9   3 1599.60 126.463   3
   4  -9   3 1760.21 131.683   4
   4  -9   4 744.843 93.0490   3
  -4   9  -4 690.036 98.9174   2
   4  -9   4 697.836 89.7039   4
   4  -9   5 471.574 80.0075   4
   4  -9   5 576.459 82.3636   3
  -4   9  -5 344.214 71.6189   2
   4  -9   6 426.790 79.8691   4
   4  -9   6 439.742 78.2779   3
  -4   9  -6 489.104 92.7365   2
  -4   9  -7 488.819 104.638   2
   4  -9   7 461.018 82.5537   4
  -4   9  -8 885.045 126.674   2
   4  -9   8 838.481 111.691   4
   4  -9   9 598.555 102.619   4
  -4   9  -9 941.409 134.752   2
   4  -9  10 366.526 86.9902   4
  -4   9 -10 616.130 115.663   2
   4  -9  11 218.122 73.9764   4
   4  -8 -17 436.502 98.0072   1
   4  -8 -16-23.5877 48.2294   1
   4  -8 -15 123.313 63.5678   1
   4  -8 -14-44.0115 38.7550   1
   4  -8 -13 122.752 57.0265   1
   4  -8 -13 170.032 63.2255   4
   4  -8 -12 277.932 69.2606   4
   4  -8 -12 218.906 66.4035   1
   4  -8 -11 317.790 65.9421   1
   4  -8 -11 232.709 62.1001   4
   4  -8 -10 526.705 78.1465   1
   4  -8 -10 447.693 72.8005   4
   4  -8  -9 1622.05 127.501   1
   4  -8  -9 1545.28 124.070   4
   4  -8  -8 3580.63 172.492   1
   4  -8  -8 3609.38 179.979   4
   4  -8  -7 2244.52 128.425   1
   4  -8  -7 2352.54 139.582   3
   4  -8  -7 2203.96 102.730   2
   4  -8  -7 2301.04 141.965   4
   4  -8  -6 494.361 60.0068   1
   4  -8  -6 481.387 65.9748   3
   4  -8  -6 308.597 44.5286   2
   4  -8  -6 376.569 62.3241   4
   4  -8  -5 1234.81 100.774   3
   4  -8  -5 1018.92 74.4714   2
   4  -8  -5 1187.73 96.5754   4
   4  -8  -5 1093.95 78.8772   1
   4  -8  -4 1591.40 114.479   3
   4  -8  -4 1397.37 100.389   4
   4  -8  -3 232.906 48.2356   4
   4  -8  -3 211.330 50.2456   3
   4  -8  -3 198.927 33.4580   1
   4  -8  -2 411.083 63.9392   3
   4  -8  -2 409.215 60.0633   4
   4  -8  -1 574.400 66.6310   4
   4  -8  -1 578.018 71.5328   3
   4  -8   0 251.374 50.9226   3
   4  -8   0 206.816 44.3281   4
   4  -8   1 7.19138 28.1711   4
   4  -8   1-30.7136 36.7412   3
   4  -8   2 1642.67 120.783   3
   4  -8   2 1657.19 117.641   4
   4  -8   3 3628.97 178.461   3
   4  -8   3 3647.32 177.470   4
   4  -8   4 4103.48 193.375   3
  -4   8  -4 3816.04 152.264   5
   4  -8   4 3805.54 189.098   4
   4  -8   5 1308.99 111.700   3
  -4   8  -5 1292.53 97.0436   5
  -4   8  -5 1208.37 123.831   2
   4  -8   5 1240.10 116.014   4
   4  -8   6-37.2453 38.8944   4
   4  -8   6 23.4477 34.8740   3
  -4   8  -6 1.40554 25.0587   5
  -4   8  -6-43.9559 50.8555   2
   4  -8   7 345.999 77.2034   4
   4  -8   7 370.737 66.1999   3
  -4   8  -7 256.288 73.8088   2
  -4   8  -7 209.327 48.6306   5
   4  -8   8 518.435 93.5986   4
  -4   8  -8 406.739 65.7291   5
   4  -8   9 410.650 82.2934   4
  -4   8  -9 288.606 66.5094   5
  -4   8  -9 463.585 99.2885   2
  -4   8 -10 584.197 105.301   2
   4  -8  10 382.344 82.8111   4
  -4   8 -10 573.129 86.4575   5
   4  -8  11 402.196 87.4165   4
  -4   8 -11 185.041 75.3728   2
  -4   8 -11 261.964 66.5429   5
   4  -8  12 26.0708 42.0369   4
   4  -7 -17 167.937 66.9778   1
   4  -7 -16 59.7569 61.1956   1
   4  -7 -15-19.4930 53.2979   1
   4  -7 -14 423.105 90.8636   1
   4  -7 -13 71.2783 52.1490   1
   4  -7 -12 22.4052 41.6547   4
   4  -7 -12 53.7671 47.2956   1
   4  -7 -11 1342.34 123.966   4
   4  -7 -11 1547.34 132.430   1
   4  -7 -10 609.369 84.9085   1
   4  -7 -10 536.585 77.7951   4
   4  -7  -9 1515.28 119.216   1
   4  -7  -9 1575.03 122.742   4
   4  -7  -8 2256.35 136.001   1
   4  -7  -8 2118.75 137.898   4
   4  -7  -7 1021.40 87.5055   1
   4  -7  -7 1063.24 90.9602   3
   4  -7  -7 712.513 60.3902   2
   4  -7  -7 957.876 88.3659   4
   4  -7  -6 88.3988 38.8428   3
   4  -7  -6 101.169 26.2096   2
   4  -7  -6 105.430 32.7584   1
   4  -7  -6 114.007 41.7260   4
   4  -7  -5 300.049 52.0016   3
   4  -7  -5 325.236 47.9612   1
   4  -7  -5 391.190 46.6849   2
   4  -7  -5 375.017 56.7085   4
   4  -7  -4 285.002 55.3352   3
   4  -7  -4 362.067 45.5436   2
   4  -7  -4 286.205 48.4285   4
   4  -7  -4 345.949 44.9138   1
   4  -7  -3 1325.03 100.496   3
   4  -7  -3 1212.68 91.4463   4
   4  -7  -2 1318.15 98.4769   3
   4  -7  -2 1241.50 90.0151   4
   4  -7  -2 1347.17 69.7289   1
   4  -7  -1 321.571 54.1898   3
   4  -7  -1 422.664 56.7335   4
   4  -7   0 40.1803 33.3949   3
   4  -7   0-76.5403 36.7457   4
   4  -7   1 2580.70 139.762   3
   4  -7   1 2460.15 131.120   4
   4  -7   2 5838.57 214.208   3
   4  -7   2 5620.91 197.342   4
   4  -7   3 4503.08 189.169   3
   4  -7   3 4431.41 185.513   4
   4  -7   4 3171.74 162.292   3
   4  -7   4 2963.21 155.643   4
   4  -7   5 456.953 69.4942   3
  -4   7  -5 635.947 66.6436   5
   4  -7   5 577.940 76.1757   4
   4  -7   6 171.547 50.9858   4
  -4   7  -6 83.6620 47.3267   2
  -4   7  -6 89.0288 31.0228   5
   4  -7   6 135.749 45.1798   3
   4  -7   7 187.726 53.4981   4
   4  -7   7 185.993 49.0943   3
  -4   7  -7 230.975 63.1747   2
  -4   7  -7 217.963 50.6053   5
   4  -7   8 224.152 61.3172   4
  -4   7  -8 293.786 67.6902   2
  -4   7  -8 249.191 52.9014   5
   4  -7   9 840.048 104.793   4
  -4   7  -9 843.182 119.881   2
  -4   7  -9 835.521 96.3708   5
   4  -7  10 311.349 73.1686   4
  -4   7 -10 288.936 82.5715   2
  -4   7 -10 284.932 64.8595   5
  -4   7 -11 237.802 64.8118   5
  -4   7 -11 250.940 84.1602   2
   4  -7  11 151.167 55.8319   4
   4  -7  12 74.7821 56.0040   4
  -4   7 -12 37.5135 59.4107   2
  -4   7 -12 77.1636 47.4118   5
   4  -7  13 103.370 51.1763   4
   4  -6 -17 105.058 60.2893   1
   4  -6 -16 60.0110 43.9443   1
   4  -6 -15 1.73165 51.3255   1
   4  -6 -14 158.844 64.8989   1
   4  -6 -13 354.138 76.4792   1
   4  -6 -12 378.101 73.0624   1
   4  -6 -11 46.4833 42.4211   4
   4  -6 -11 52.1957 42.6102   1
   4  -6 -10 2110.10 148.554   1
   4  -6 -10 1892.56 135.138   4
   4  -6  -9 5252.64 218.077   1
   4  -6  -9 4972.53 212.224   4
   4  -6  -8 1442.69 112.287   1
   4  -6  -8 1635.58 117.822   4
   4  -6  -8 1502.67 87.7655   2
   4  -6  -7 3641.21 163.730   1
   4  -6  -7 3530.56 147.677   3
   4  -6  -7 3458.45 161.613   4
   4  -6  -6 170.322 34.1071   2
   4  -6  -6 126.112 36.6104   3
   4  -6  -6 127.803 35.1361   1
   4  -6  -6 142.269 40.7086   4
   4  -6  -5 577.504 62.5995   3
   4  -6  -5 644.441 68.1598   4
   4  -6  -5 534.572 58.3782   1
   4  -6  -5 611.468 57.1601   2
   4  -6  -4 422.513 55.2544   3
   4  -6  -4 354.473 44.5418   2
   4  -6  -4 327.189 50.4790   4
   4  -6  -4 361.674 44.8610   1
   4  -6  -3 128.251 40.2254   3
   4  -6  -3 92.9998 26.7681   1
   4  -6  -3 91.4979 29.4913   2
   4  -6  -3 75.7200 27.3969   4
   4  -6  -2 413.750 54.7022   3
   4  -6  -2 263.352 40.3801   4
   4  -6  -2 312.623 41.8936   2
   4  -6  -2 285.996 36.2131   1
   4  -6  -1 170.796 23.8913   1
   4  -6  -1 191.350 45.8384   3
   4  -6  -1 138.626 35.2838   4
   4  -6   0-3.48812 23.0198   4
   4  -6   0 22.2733 27.0592   3
   4  -6   1 2430.99 127.582   3
   4  -6   1 2232.65 115.282   4
   4  -6   2 3963.98 165.965   3
   4  -6   2 3813.69 154.512   4
   4  -6   3 6446.56 213.225   3
   4  -6   3 6070.51 198.226   4
   4  -6   4 5430.17 195.201   4
   4  -6   4 5373.70 200.575   3
   4  -6   5 385.897 63.2266   3
   4  -6   5 500.318 67.9579   4
   4  -6   6 642.581 82.2685   4
   4  -6   6 734.198 80.9410   3
  -4   6  -6 536.413 63.5173   5
   4  -6   7 1053.43 104.256   4
   4  -6   7 1088.53 98.2616   3
  -4   6  -7 1085.39 117.307   2
  -4   6  -7 1034.12 91.9126   5
  -4   6  -8 221.065 50.8605   5
   4  -6   8 216.188 60.3939   4
   4  -6   8 211.672 56.0258   3
  -4   6  -8 226.917 67.2430   2
   4  -6   9 165.634 50.1865   4
  -4   6  -9 223.481 73.5068   2
  -4   6  -9 227.661 54.0108   5
   4  -6  10 168.006 66.0247   4
  -4   6 -10 257.704 77.5250   2
  -4   6 -10 249.719 58.0982   5
   4  -6  11 51.0691 38.4202   4
  -4   6 -11 52.0809 39.4794   5
  -4   6 -11 142.236 66.9552   2
   4  -6  12 15.9559 35.8217   4
  -4   6 -12 72.1842 45.7506   5
  -4   6 -12 18.5646 50.2228   2
   4  -6  13 141.514 61.1290   4
  -4   6 -13 118.166 60.0133   5
   4  -5 -17 84.3960 60.0682   1
   4  -5 -16 152.373 53.4883   1
   4  -5 -15 218.850 74.1386   1
   4  -5 -14 159.279 60.1057   1
   4  -5 -13 152.154 58.0753   1
   4  -5 -12 1301.02 129.190   1
   4  -5 -11 1094.70 115.318   1
   4  -5 -10 1361.52 121.190   1
   4  -5  -9 1715.06 125.862   1
   4  -5  -9 1642.91 119.369   4
   4  -5  -9 1794.64 100.489   2
   4  -5  -8 7312.51 244.114   1
   4  -5  -8 6801.80 230.848   4
   4  -5  -7 3860.27 146.687   3
   4  -5  -7 3989.03 170.649   4
   4  -5  -7 4073.96 141.228   2
   4  -5  -7 3869.92 168.862   1
   4  -5  -6 1424.60 87.1544   3
   4  -5  -6 1439.81 101.119   4
   4  -5  -6 1367.91 82.1870   2
   4  -5  -6 1509.90 102.021   1
   4  -5  -5 746.958 65.9872   3
   4  -5  -5 712.733 67.8808   4
   4  -5  -5 690.302 56.7870   2
   4  -5  -5 673.227 64.2881   1
   4  -5  -4 58.5679 34.6520   3
   4  -5  -4 16.6994 19.7512   1
   4  -5  -4 10.5513 25.4420   4
   4  -5  -4 24.8045 21.3746   2
   4  -5  -3 450.076 55.4674   3
   4  -5  -3 378.840 48.6851   4
   4  -5  -3 490.610 50.3248   2
   4  -5  -3 398.311 44.0819   1
   4  -5  -2 1440.39 94.1644   3
   4  -5  -2 1310.13 80.3640   2
   4  -5  -2 1380.65 83.8870   4
   4  -5  -2 1355.08 78.4057   1
   4  -5  -1 665.260 60.8818   2
   4  -5  -1 674.734 68.3492   3
   4  -5  -1 579.650 44.8472   1
   4  -5  -1 744.468 59.7810   4
   4  -5   0 35.6658 21.1383   4
   4  -5   0 25.0082 27.8116   3
   4  -5   1 5834.53 186.277   3
   4  -5   1 5443.16 165.138   4
   4  -5   2 13586.3 289.306   3
  -4   5  -2 13134.1 153.042   1
   4  -5   2 13470.4 261.009   4
   4  -5   3 5402.83 185.093   3
   4  -5   3 5021.25 167.143   4
   4  -5   4 2390.25 126.400   3
   4  -5   4 2315.15 122.270   4
   4  -5   5 168.965 43.9592   4
   4  -5   5 152.336 40.1957   3
   4  -5   6 1895.34 120.546   4
   4  -5   6 1771.54 117.426   3
   4  -5   7 835.377 83.7240   4
   4  -5   7 810.181 80.7306   3
  -4   5  -7 828.118 81.1422   5
   4  -5   8 219.002 50.0216   4
   4  -5   8 338.245 59.5393   3
  -4   5  -8 259.516 54.3090   5
  -4   5  -8 317.830 60.8613   2
  -4   5  -9 24.7403 40.0436   2
   4  -5   9 54.9748 38.1170   4
   4  -5   9 24.8418 30.2762   3
  -4   5  -9 67.4336 36.8790   5
   4  -5  10 28.2521 38.6910   4
  -4   5 -10 6.81127 45.4075   2
  -4   5 -10 19.4887 34.8317   5
   4  -5  11-23.8285 33.5174   4
  -4   5 -11 17.7839 38.5386   5
  -4   5 -11 17.6005 49.1701   2
  -4   5 -12 113.528 56.8991   5
  -4   5 -12 179.436 68.7161   2
   4  -5  12 129.093 48.7438   4
  -4   5 -13 441.427 93.4286   2
  -4   5 -13 453.270 88.1113   5
   4  -5  13 427.376 82.8244   4
  -4   5 -14 546.276 104.215   2
  -4   5 -14 669.768 113.408   5
   4  -4 -17 10.1811 50.2472   1
   4  -4 -16 65.1756 47.3182   1
   4  -4 -15 139.949 65.4739   1
   4  -4 -14 377.975 79.5452   1
   4  -4 -13 1040.90 121.030   1
   4  -4 -12 140.315 56.7258   1
   4  -4 -11 639.743 91.3555   1
   4  -4 -10 1287.53 116.122   1
   4  -4 -10 1302.32 94.5214   2
   4  -4  -9 265.526 43.4938   2
   4  -4  -9 282.167 57.0388   1
   4  -4  -8 1205.61 103.056   1
   4  -4  -8 1167.57 82.1129   2
   4  -4  -8 1026.82 91.1788   4
   4  -4  -7 2779.96 140.274   4
   4  -4  -7 2779.97 121.564   2
   4  -4  -7 2506.96 140.375   1
   4  -4  -6 340.157 43.5507   3
   4  -4  -6 326.388 49.1853   4
   4  -4  -6 382.332 47.6369   2
   4  -4  -6 365.675 56.1156   1
   4  -4  -5 47.4299 24.0382   2
   4  -4  -5 38.7230 27.0810   3
   4  -4  -5 18.3824 26.7372   4
   4  -4  -5 16.2496 25.3659   1
   4  -4  -4 63.1524 28.4628   3
   4  -4  -4 25.4904 18.7912   2
   4  -4  -4 40.2691 29.3262   1
   4  -4  -4 29.6425 22.0935   4
   4  -4  -3 42.6877 22.3704   2
   4  -4  -3 49.5621 26.0834   1
   4  -4  -3 19.1252 22.2723   3
   4  -4  -3 29.5780 21.1267   4
   4  -4  -2 745.352 64.3808   3
   4  -4  -2 782.977 61.0182   1
   4  -4  -2 796.862 61.0800   4
   4  -4  -2 843.365 63.9574   2
   4  -4  -1 161.252 26.6485   1
   4  -4  -1 108.148 35.7421   3
   4  -4  -1 109.198 28.1439   2
   4  -4  -1 109.452 27.7488   4
   4  -4   0 260.011 45.5273   3
   4  -4   0 137.882 30.3068   4
   4  -4   0 135.378 22.9555   1
   4  -4   0 170.194 32.8719   2
   4  -4   1 487.749 55.8900   3
   4  -4   1 417.965 44.1464   4
   4  -4   2 108.144 31.6058   3
   4  -4   2 128.167 31.2294   4
   4  -4   3 9340.13 229.397   3
  -4   4  -3 8986.42 139.245   1
   4  -4   3 8824.55 203.846   4
   4  -4   4 1794.45 106.543   3
   4  -4   4 1687.87 95.9068   4
  -4   4  -4 1698.79 64.6347   1
   4  -4   5 1598.48 97.6533   4
   4  -4   5 1646.53 103.963   3
   4  -4   6 74.1071 32.5709   4
   4  -4   6 104.465 38.6342   3
   4  -4   7 180.596 46.0228   4
   4  -4   7 220.742 43.7279   3
   4  -4   8 123.282 45.6493   3
  -4   4  -8 69.6584 36.7237   5
   4  -4   8 141.449 45.9764   4
  -4   4  -9 38.9948 38.0071   5
   4  -4   9-6.66104 32.9718   4
  -4   4  -9 45.5520 36.3369   2
   4  -4   9 0.93455 29.6222   3
  -4   4 -10 30.8717 38.0040   5
   4  -4  10-16.1496 37.0293   4
  -4   4 -10 2.15841 37.9092   2
   4  -4  11 79.2922 38.9813   4
  -4   4 -11 126.844 52.3765   5
  -4   4 -11 86.6492 57.1700   2
  -4   4 -12-50.5845 39.5509   5
   4  -4  12-0.62004 32.0457   4
  -4   4 -12 34.0570 56.5531   2
   4  -4  13 658.549 100.667   4
  -4   4 -13 915.359 116.843   5
  -4   4 -13 771.417 113.793   2
  -4   4 -14 695.354 108.703   5
  -4   4 -14 417.584 89.1935   2
  -4   4 -15 166.747 74.4285   2
   4  -3 -17 59.3763 51.4960   1
   4  -3 -16 218.448 70.3790   1
   4  -3 -15 751.647 110.111   1
   4  -3 -14 638.545 101.697   1
   4  -3 -13 237.094 67.6322   1
   4  -3 -12 53.6446 38.8949   1
   4  -3 -11 800.477 81.4580   2
   4  -3 -11 729.911 92.4794   1
   4  -3 -10 616.844 67.0481   2
   4  -3 -10 652.362 87.5345   1
   4  -3  -9 429.825 53.4493   2
   4  -3  -9 432.789 70.6986   1
   4  -3  -8 2185.67 115.413   2
   4  -3  -8 2141.52 136.742   1
   4  -3  -7 401.530 52.3520   2
   4  -3  -7 351.783 57.8654   1
   4  -3  -6 292.992 40.7323   2
   4  -3  -6 206.797 32.1379   3
   4  -3  -6 274.645 50.4170   1
   4  -3  -6 277.155 43.4354   4
   4  -3  -5 2722.56 105.896   3
   4  -3  -5 2563.18 117.820   4
   4  -3  -5 2632.79 111.924   2
   4  -3  -5 2752.20 132.106   1
   4  -3  -4 375.821 44.6018   3
   4  -3  -4 366.281 52.3935   1
   4  -3  -4 335.912 42.9509   4
   4  -3  -4 434.164 47.8706   2
   4  -3  -3 1363.76 76.4970   3
   4  -3  -3 1230.20 80.7567   1
   4  -3  -3 1390.93 79.1746   4
   4  -3  -3 1419.38 80.6047   2
   4  -3  -2-21.2757 22.6623   2
   4  -3  -2-3.78117 19.9756   1
   4  -3  -2 5.36676 29.4649   3
   4  -3  -2-1.69887 19.7900   4
   4  -3  -1 2.65232 19.5485   1
   4  -3  -1-2.89902 17.4766   4
   4  -3  -1 7.17303 25.8017   3
   4  -3  -1-13.2010 21.5619   2
   4  -3   0 6963.24 148.711   4
   4  -3   0 6871.73 176.128   3
   4  -3   0 7227.46 178.382   2
   4  -3   0 7041.00 147.828   1
   4  -3   1 4865.82 124.268   4
   4  -3   1 4903.58 153.761   2
   4  -3   1 4819.50 149.459   3
   4  -3   2 428.830 53.4775   3
   4  -3   2 391.970 39.7062   4
  -4   3  -3 1708.18 68.4961   1
   4  -3   3 2296.23 112.417   3
   4  -3   3 2232.34 92.9051   4
   4  -3   4 3452.62 141.954   3
   4  -3   4 3292.52 118.650   4
   4  -3   5 611.378 57.3072   4
   4  -3   5 669.573 66.7676   3
  -4   3  -5 503.073 42.6007   1
   4  -3   6 142.812 35.3662   4
   4  -3   6 110.410 33.5725   3
  -4   3  -6 87.5540 23.5231   1
   4  -3   7 92.0966 42.7498   3
   4  -3   7 95.3575 35.4398   4
   4  -3   8 65.3739 35.4216   4
   4  -3   8 34.9896 28.8306   3
  -4   3  -8 88.0591 37.9370   5
   4  -3   9 1031.43 91.3585   3
  -4   3  -9 1108.21 112.518   2
  -4   3  -9 1439.39 112.954   5
   4  -3   9 1022.57 98.3268   4
   4  -3  10 146.103 48.0950   4
   4  -3  10 82.8003 31.2928   3
  -4   3 -10 115.405 48.9693   2
  -4   3 -10 165.332 50.5910   5
  -4   3 -11 143.534 52.4812   5
   4  -3  11 138.360 49.9078   4
  -4   3 -11 144.635 54.4263   2
  -4   3 -12 760.955 101.013   5
  -4   3 -12 897.923 114.216   2
   4  -3  13 937.048 115.511   4
  -4   3 -13 1389.05 141.770   2
  -4   3 -13 1326.90 132.682   5
  -4   3 -14 218.914 61.9130   2
  -4   3 -14 329.789 79.1324   5
  -4   3 -15 483.846 99.3045   5
   4  -2 -16 748.278 117.370   1
   4  -2 -15 880.135 121.071   1
   4  -2 -14 983.233 125.393   1
   4  -2 -13 495.168 88.7639   1
   4  -2 -12 75.4003 36.4496   2
   4  -2 -12 156.667 60.8059   1
   4  -2 -11 24.4603 31.4125   2
   4  -2 -11 77.8013 44.1400   1
   4  -2 -10 58.0467 30.8526   2
   4  -2 -10 110.074 46.2744   1
   4  -2  -9 806.887 79.2762   2
   4  -2  -9 716.929 87.5204   1
   4  -2  -8 302.314 46.2496   2
   4  -2  -8 245.850 50.9713   1
   4  -2  -7 488.829 56.5505   2
   4  -2  -7 505.265 68.7506   1
   4  -2  -6 1289.30 87.1038   2
   4  -2  -6 1315.84 63.4226   3
   4  -2  -6 1331.17 97.9640   1
   4  -2  -5 1770.29 75.0984   3
   4  -2  -5 1702.24 105.389   1
   4  -2  -5 1809.87 96.6045   2
   4  -2  -4 1093.35 63.5538   3
   4  -2  -4 1134.39 75.7207   4
   4  -2  -4 1144.28 82.4338   1
   4  -2  -4 1147.02 76.7745   2
   4  -2  -3 3709.33 121.304   4
   4  -2  -3 3747.49 113.950   3
   4  -2  -3 3944.34 144.366   1
   4  -2  -3 3921.75 132.362   2
   4  -2  -2 1098.79 68.8953   2
   4  -2  -2 1105.46 65.5098   3
   4  -2  -2 1143.14 74.2746   1
   4  -2  -2 982.164 59.6546   4
   4  -2  -1 5096.16 141.248   1
   4  -2  -1 5387.58 123.450   4
   4  -2  -1 5374.45 149.796   2
   4  -2  -1 5109.34 139.538   3
   4  -2   0 5768.82 154.360   3
   4  -2   0 5892.48 142.039   1
   4  -2   0 5821.11 155.737   2
   4  -2   0 5742.37 118.914   4
   4  -2   1 7916.73 181.918   3
   4  -2   1 7584.32 180.856   2
   4  -2   1 7366.60 131.826   4
   4  -2   2 74.4930 18.6665   4
   4  -2   2 62.3030 33.0137   3
   4  -2   2 81.8381 28.3310   2
  -4   2  -3 1911.55 76.6477   1
   4  -2   3 1818.67 95.7208   3
   4  -2   3 1615.58 71.0009   4
   4  -2   4 4464.42 124.689   4
   4  -2   4 4744.35 157.270   3
  -4   2  -4 4591.70 119.199   1
   4  -2   5 32.8426 17.8356   4
   4  -2   5-18.5813 30.2171   3
  -4   2  -5 26.2205 16.9316   1
   4  -2   6 202.076 35.7137   4
   4  -2   6 262.672 43.6174   3
  -4   2  -6 271.267 36.4450   1
   4  -2   7 81.1034 33.1305   4
  -4   2  -7 85.9076 25.5724   1
   4  -2   7 151.802 43.4309   3
   4  -2   8 189.005 42.6913   4
   4  -2   8 232.722 48.4970   3
  -4   2  -8 151.583 31.9096   1
  -4   2  -9 613.942 76.4624   5
   4  -2   9 495.801 66.4521   4
   4  -2   9 563.717 66.8993   3
   4  -2  10 256.786 53.6808   3
  -4   2 -10 239.203 60.0406   2
  -4   2 -10 228.532 55.1493   5
   4  -2  10 245.464 52.7992   4
   4  -2  11 178.128 46.6286   4
  -4   2 -11 264.579 68.0868   2
   4  -2  11 214.272 49.8083   3
  -4   2 -11 167.426 52.0135   5
   4  -2  12 1660.18 132.020   4
  -4   2 -12 2016.93 158.580   2
  -4   2 -12 1863.46 143.814   5
   4  -2  13 1686.17 145.215   4
  -4   2 -13 1454.13 138.202   2
  -4   2 -13 1943.30 155.752   5
  -4   2 -14 902.121 114.946   2
  -4   2 -14 1276.13 135.909   5
  -4   2 -15 933.353 123.372   5
  -4   2 -16 18.8934 49.2705   5
   4  -1 -16 410.339 86.9219   1
   4  -1 -15 931.788 125.049   1
   4  -1 -14 513.188 94.2838   1
   4  -1 -13 92.4850 48.4174   1
   4  -1 -12 1297.35 116.482   2
   4  -1 -12 1271.10 128.793   1
   4  -1 -11 57.0525 38.8197   2
   4  -1 -11 54.1294 41.3230   1
   4  -1 -10 11.9237 31.5175   2
   4  -1 -10 66.8714 41.2041   1
   4  -1  -9 28.1117 27.2523   2
   4  -1  -9 145.668 53.1960   1
   4  -1  -8 317.886 53.4650   2
   4  -1  -8 283.552 55.8505   1
   4  -1  -7-8.93019 30.6035   2
   4  -1  -7 14.4533 27.5146   1
   4  -1  -6 1320.41 90.7045   2
   4  -1  -6 1514.47 105.825   1
   4  -1  -5 2460.34 117.900   2
   4  -1  -5 2359.82 73.6424   3
   4  -1  -5 2539.17 129.270   1
   4  -1  -4 2536.24 113.581   2
   4  -1  -4 2308.52 77.3002   3
   4  -1  -4 2715.00 125.613   1
   4  -1  -3 1682.62 70.5318   3
   4  -1  -3 1994.71 106.771   1
   4  -1  -3 1743.60 92.5023   2
   4  -1  -2 380.847 38.4412   3
   4  -1  -2 429.870 47.6129   1
   4  -1  -2 461.717 42.4002   4
   4  -1  -2 509.824 51.3601   2
   4  -1  -1-9.02712 19.5412   1
   4  -1  -1-11.9399 26.5550   2
   4  -1  -1-7.42801 18.9710   3
   4  -1  -1-10.1872 13.9369   4
   4  -1   0 7913.37 123.517   4
   4  -1   0 8030.18 166.993   3
   4  -1   0 8206.43 174.932   1
   4  -1   0 8504.71 184.816   2
   4  -1   1 1825.49 86.1939   3
   4  -1   1 1803.98 54.4686   4
   4  -1   1 1877.07 89.0138   2
   4  -1   2 2448.93 103.229   3
   4  -1   2 2513.81 102.710   2
   4  -1   2 2302.13 61.6163   4
   4  -1   3 1656.27 90.2588   3
   4  -1   3 1915.38 93.5028   2
   4  -1   3 1654.77 59.1826   4
   4  -1   4 7103.04 134.709   4
   4  -1   4 7938.09 198.763   3
  -4   1  -4 8089.72 168.137   1
  -4   1  -5 19.8253 19.5723   1
   4  -1   5-1.22926 15.7363   4
   4  -1   5 30.2218 24.8887   3
   4  -1   6 67.7982 23.4133   4
   4  -1   6 187.338 39.5590   3
  -4   1  -6 158.171 29.7762   1
   4  -1   7 1145.97 78.5932   4
   4  -1   7 1275.83 90.3965   3
  -4   1  -7 1242.09 78.8889   1
   4  -1   8 2707.40 125.902   4
   4  -1   8 3026.10 141.475   3
  -4   1  -8 2893.48 126.322   1
   4  -1   9 1368.10 97.0761   4
   4  -1   9 1568.45 107.338   3
  -4   1  -9 1397.33 93.6045   1
  -4   1  -9 1552.05 109.250   5
   4  -1  10 442.366 64.1344   4
   4  -1  10 431.590 62.9775   3
  -4   1 -10 418.433 58.5220   1
  -4   1 -10 391.455 65.1185   5
  -4   1 -10 551.963 77.9233   2
   4  -1  11-14.3046 28.6562   4
   4  -1  11 24.9195 30.7753   3
  -4   1 -11 27.0989 41.6128   2
  -4   1 -11 41.9758 38.5076   5
   4  -1  12 3788.49 191.767   4
  -4   1 -12 4057.19 210.437   2
  -4   1 -12 4052.02 204.647   5
  -4   1 -13 1724.50 143.410   5
   4  -1  13 1586.29 133.153   4
  -4   1 -13 1350.40 130.613   2
  -4   1 -14 674.273 99.3037   5
  -4   1 -15 383.548 85.8973   5
  -4   1 -16 177.145 71.8607   5
   4   0 -16 194.122 72.0601   1
  -4   0  15 679.049 117.465   4
   4   0 -15 434.711 89.2942   1
   4   0 -14 93.0589 46.9748   1
   4   0 -13 413.142 77.6806   1
   4   0 -13 336.436 68.2640   2
   4   0 -12 596.552 93.7535   1
   4   0 -12 376.219 70.9010   2
   4   0 -11 51.2694 35.8978   1
   4   0 -11 26.8537 36.9341   2
   4   0 -10 69.2663 35.8753   1
   4   0 -10 92.6171 40.9448   2
   4   0  -9 334.736 63.4976   1
   4   0  -9 352.493 60.7959   2
   4   0  -8 52.2753 33.4957   1
   4   0  -8 85.2894 38.2164   2
   4   0  -7-17.5834 26.6859   1
   4   0  -7-6.38925 28.9837   2
   4   0  -6 837.697 77.3156   2
   4   0  -6 747.541 78.0565   1
   4   0  -5 2380.46 122.481   2
   4   0  -5 2623.03 134.088   1
   4   0  -4 4965.64 163.481   2
   4   0  -4 4607.05 93.5606   3
   4   0  -3 2101.99 102.304   2
   4   0  -3 1882.12 64.4312   3
   4   0  -3 2221.51 110.766   1
   4   0  -2 846.918 48.2102   3
   4   0  -2 1010.83 71.5620   1
   4   0  -2 840.482 66.2621   2
   4   0  -1 365.653 37.4720   3
   4   0  -1 398.359 45.7727   1
   4   0  -1 400.710 44.0215   2
   4   0   0 1057.20 60.8255   3
   4   0   0 1032.48 68.4388   2
   4   0   1 11298.5 210.462   2
   4   0   1 11250.1 203.628   3
   4   0   2 3608.80 125.095   3
   4   0   2 3787.52 121.302   2
   4   0   3 2477.63 106.537   3
   4   0   3 2394.97 99.8469   2
   4   0   4 16.1054 10.9742   4
  -4   0  -4 24.8929 18.8710   1
   4   0   4-11.2758 22.9381   2
   4   0   5 723.881 67.6842   3
  -4   0  -5 731.807 57.8285   1
   4   0   5 654.083 41.9985   4
   4   0   6 348.188 36.8724   4
  -4   0  -6 350.462 43.9395   1
   4   0   6 355.380 50.3075   3
   4   0   7 125.599 29.7605   4
  -4   0  -7 148.395 33.8590   1
   4   0   7 88.0336 32.7968   3
   4   0   8 84.6324 27.0055   4
   4   0   8 85.8285 36.2476   3
  -4   0  -8 102.353 31.0405   1
  -4   0  -9 2832.80 134.435   1
   4   0   9 2769.21 139.336   3
   4   0  10 1494.42 104.143   4
   4   0  10 1706.28 114.907   3
  -4   0 -10 1559.50 109.022   1
  -4   0 -10 1697.99 118.505   5
   4   0  11 1748.35 120.377   4
   4   0  11 1742.81 120.236   3
  -4   0 -11 1693.31 116.533   1
  -4   0 -11 1885.15 133.598   2
  -4   0 -11 1777.97 126.757   5
   4   0  12 3124.79 168.666   4
   4   0  12 3195.18 165.007   3
  -4   0 -12 3565.43 175.047   1
  -4   0 -12 3382.95 183.528   2
  -4   0 -12 3587.91 187.624   5
   4   0  13 667.057 87.6973   4
  -4   0 -13 886.155 104.666   2
  -4   0 -13 862.937 101.984   5
  -4   0 -14 1573.47 140.560   5
  -4   0 -15 114.001 57.7020   5
  -4   0 -16 134.582 63.0853   5
  -4   0 -17 15.2675 52.4763   5
  -4  -1  15 324.881 93.1422   4
  -4  -1  14 279.415 83.1332   4
   4   1 -14 259.905 65.7358   1
  -4  -1  13 403.251 90.9204   4
   4   1 -13 264.223 67.6814   1
   4   1 -13 213.173 60.1003   2
  -4  -1  12 38.1785 48.8441   4
   4   1 -12 153.795 55.3500   1
   4   1 -12 78.2554 48.6858   2
   4   1 -11 219.815 62.8653   1
   4   1 -11 139.320 51.0472   2
   4   1 -10 21.4620 33.9353   1
   4   1 -10 40.5423 38.5610   2
   4   1  -9 24.7468 30.8360   1
   4   1  -9 62.5734 38.7531   2
   4   1  -8 0.79487 29.4115   1
   4   1  -8 13.2271 33.3667   2
   4   1  -7 940.407 90.1561   2
   4   1  -7 1040.21 94.9221   1
   4   1  -6 163.986 41.6310   1
   4   1  -6 188.955 46.3072   2
   4   1  -5 2606.96 129.997   2
   4   1  -5 2778.29 141.483   1
   4   1  -4 12390.4 272.158   2
   4   1  -4 13222.8 286.326   1
   4   1  -3 17269.0 303.097   2
   4   1  -3 17763.0 309.320   1
   4   1  -2 8621.49 205.785   2
   4   1  -2 7910.29 131.511   3
   4   1  -2 8533.19 205.765   1
   4   1  -1 3166.42 120.627   1
   4   1  -1 3009.01 91.3419   3
   4   1  -1 3105.00 118.823   2
   4   1   0 2404.26 89.0942   3
   4   1   0 2426.02 101.986   2
   4   1   1 363.726 44.2429   2
   4   1   1 340.749 39.9057   3
   4   1   2 448.950 44.8099   2
   4   1   2 458.081 47.1988   3
   4   1   3 1685.10 87.7386   3
   4   1   3 1705.84 81.5699   2
  -4  -1  -4 1815.29 91.0978   1
   4   1   4 1652.59 92.8506   3
   4   1   4 1830.90 85.2812   2
   4   1   5 19.0436 12.1749   4
  -4  -1  -5 39.0999 21.1571   1
   4   1   5 24.7697 21.0911   2
   4   1   5 28.9546 29.3181   3
   4   1   6 717.292 47.0538   4
  -4  -1  -6 845.526 65.4419   1
   4   1   6 932.492 76.8866   3
  -4  -1  -7 380.387 49.9488   1
   4   1   7 309.788 38.0865   4
   4   1   7 529.865 65.7064   3
   4   1   8 995.159 69.3678   4
   4   1   8 1348.36 96.7805   3
  -4  -1  -8 1508.70 95.5430   1
   4   1   9 1069.52 78.9230   4
   4   1   9 1464.65 103.488   3
  -4  -1  -9 1543.09 102.198   1
   4   1  10 2057.99 125.334   3
  -4  -1 -10 2254.82 130.495   1
  -4  -1 -10 2142.85 129.640   5
   4   1  11 611.310 72.6772   4
   4   1  11 662.306 80.2394   3
  -4  -1 -11 714.035 79.0707   2
  -4  -1 -11 693.683 78.9484   1
  -4  -1 -11 715.270 80.8663   5
   4   1  12 1045.59 96.8130   3
  -4  -1 -12 1309.88 110.578   1
  -4  -1 -12 1171.24 106.886   2
  -4  -1 -12 982.584 100.366   5
   4   1  12 936.096 93.1712   4
   4   1  13 2101.77 146.880   4
   4   1  13 2760.19 159.101   3
  -4  -1 -13 2791.05 165.249   1
  -4  -1 -13 2784.65 170.738   5
  -4  -1 -14-20.8687 30.5575   1
  -4  -1 -14 91.4990 52.9881   5
  -4  -1 -15 340.381 74.3242   5
  -4  -1 -16 59.7286 59.5821   5
  -4  -1 -17 64.0134 52.4204   5
  -4  -2  14 35.2556 62.0570   4
   4   2 -14 72.5827 53.4202   2
  -4  -2  13 247.849 78.3497   4
   4   2 -13 214.129 65.7829   1
   4   2 -13 279.275 68.4407   2
   4   2 -12 28.2004 39.3143   1
   4   2 -12 36.7745 40.9276   2
  -4  -2  11 120.845 57.3093   4
   4   2 -11 70.6262 42.6660   1
   4   2 -11 149.999 53.3832   2
  -4  -2  10-9.35821 43.2102   4
   4   2 -10 23.0393 35.7313   1
   4   2 -10 11.5245 38.4310   2
  -4  -2   9 114.635 49.0457   4
   4   2  -9 124.624 50.0066   2
   4   2  -9 117.964 48.1334   1
   4   2  -8 84.0610 42.4902   1
   4   2  -8 33.7974 29.7514   2
   4   2  -7 1066.56 95.9631   2
   4   2  -7 1245.94 108.828   1
   4   2  -6 2724.79 144.296   2
   4   2  -6 3063.65 157.576   1
   4   2  -5 4615.16 179.585   2
   4   2  -5 5123.80 192.566   1
   4   2  -4 3100.53 144.143   2
   4   2  -4 3666.99 152.849   1
   4   2  -3 34888.7 449.316   2
   4   2  -3 35445.0 446.328   1
   4   2  -2 12042.6 247.824   1
   4   2  -2 12061.0 252.474   2
   4   2  -2 11865.0 154.458   3
   4   2  -1 1659.24 91.3407   2
  -4  -2   1 1720.97 76.3559   4
   4   2  -1 1643.21 65.5363   3
   4   2  -1 1746.30 95.1226   1
  -4  -2   0 273.317 27.4036   4
   4   2   0 252.851 35.0574   2
   4   2   0 402.227 38.5045   3
  -4  -2  -1 595.158 32.0247   4
   4   2   1 593.282 45.7668   3
   4   2   1 642.001 55.5404   2
   4   2   2 1807.29 85.0956   3
   4   2   2 1832.38 86.4628   2
   4   2   3 11.5226 20.4027   2
   4   2   3-16.4827 24.6526   3
  -4  -2  -4 732.149 60.4392   1
   4   2   4 617.341 58.2349   3
   4   2   4 657.621 51.1657   2
  -4  -2  -5 7836.53 190.635   1
   4   2   5 7526.27 191.349   3
   4   2   5 7794.05 170.287   2
  -4  -2  -6 7827.47 197.069   1
   4   2   6 7804.09 205.030   3
   4   2   6 7906.29 179.181   2
  -4  -2  -7 2868.91 128.034   1
   4   2   7 3137.58 136.337   3
  -4  -2  -8 574.918 60.9273   1
   4   2   8 665.278 71.0209   3
   4   2   9 4845.64 186.420   3
  -4  -2  -9 5007.50 185.187   1
  -4  -2 -10 3099.58 151.634   1
   4   2  10 3306.99 162.578   3
   4   2  11 3714.00 175.939   3
  -4  -2 -11 3448.15 168.395   5
  -4  -2 -11 3295.41 165.500   1
  -4  -2 -12 96.0180 39.8102   5
  -4  -2 -12 70.9563 39.1928   1
   4   2  12 117.405 42.7117   3
   4   2  13 871.648 94.4927   4
   4   2  13 955.641 96.0562   3
  -4  -2 -13 1024.46 105.446   5
  -4  -2 -13 1191.92 112.313   1
  -4  -2 -14 226.615 61.1252   1
  -4  -2 -14 164.228 55.9259   5
  -4  -2 -15 59.3938 47.9683   1
  -4  -2 -15-47.6797 50.9183   5
  -4  -2 -16 60.9398 43.1994   5
  -4  -2 -17-29.4290 45.9180   5
  -4  -2 -18 7.39704 47.5668   5
   4   3 -14 713.857 108.373   2
  -4  -3  13-43.2658 48.2113   4
   4   3 -13-26.8306 35.0764   2
  -4  -3  12 103.903 68.2841   4
   4   3 -12 190.187 60.4177   2
  -4  -3  11-1.82544 48.2087   4
   4   3 -11 28.8042 30.1837   1
   4   3 -11 115.830 52.3839   2
  -4  -3  10 102.582 51.3214   4
   4   3 -10 38.5722 40.9144   1
   4   3 -10 9.40259 43.2878   2
  -4  -3   9-5.15101 40.6329   4
   4   3  -9 54.2180 37.5311   1
   4   3  -9 9.17340 37.0741   2
  -4  -3   8 141.016 53.4789   4
   4   3  -8 237.611 51.7631   1
   4   3  -8 193.786 53.3732   2
  -4  -3   7 850.492 93.4379   4
   4   3  -7 695.670 82.2391   2
   4   3  -7 891.023 91.3113   1
  -4  -3   6 2970.15 159.652   4
   4   3  -6 2549.61 144.720   2
   4   3  -6 2924.49 152.889   1
  -4  -3   5 1830.81 118.263   4
   4   3  -5 1591.08 111.052   2
   4   3  -5 1951.73 118.833   1
   4   3  -4 2647.40 136.098   2
  -4  -3   4 3382.31 149.399   4
   4   3  -4 3169.48 144.168   1
  -4  -3   3 1996.74 107.906   4
   4   3  -3 1806.28 107.785   2
   4   3  -3 1996.36 108.221   1
  -4  -3   2 6881.92 179.682   4
   4   3  -2 6497.33 195.948   2
   4   3  -2 6551.91 116.987   3
   4   3  -2 6899.76 193.191   1
   4   3  -1 1580.09 97.3684   2
  -4  -3   1 1515.54 77.9987   4
   4   3  -1 1381.19 60.3599   3
   4   3   0 372.682 47.3201   2
  -4  -3   0 352.635 34.6798   4
   4   3   0 365.152 37.4734   3
   4   3   1 438.290 47.4926   2
  -4  -3  -1 274.767 26.6416   4
   4   3   1 476.146 44.4608   3
   4   3   2 1741.18 84.6123   3
   4   3   2 1660.83 84.2736   2
  -4  -3  -2 1686.49 51.8742   4
   4   3   3 737.826 63.8629   3
   4   3   3 639.129 52.0752   2
   4   3   4 2974.50 120.495   3
  -4  -3  -4 2731.23 116.165   1
   4   3   4 2857.56 102.367   2
   4   3   5 3603.79 137.175   3
  -4  -3  -5 3736.24 137.414   1
   4   3   5 3857.74 116.127   2
  -4  -3  -6 10179.2 231.180   1
   4   3   6 10125.4 239.208   3
   4   3   6 10228.2 191.049   2
  -4  -3  -7 4494.50 161.705   1
   4   3   7 4460.69 165.359   3
  -4  -3  -8 2635.26 131.394   1
   4   3   8 2651.39 133.441   3
   4   3   9 1730.59 112.599   3
  -4  -3  -9 1883.75 116.974   1
   4   3  10 1775.46 121.274   3
  -4  -3 -10 1696.79 115.970   1
   4   3  11 61.9675 41.0880   3
  -4  -3 -11 132.909 44.1205   1
  -4  -3 -11 95.0515 37.5276   5
  -4  -3 -12 727.737 83.8414   5
   4   3  12 883.129 94.5123   3
  -4  -3 -12 914.329 96.1075   1
  -4  -3 -13 197.567 53.8732   5
  -4  -3 -13 227.334 57.7190   1
   4   3  13 147.877 46.3889   3
  -4  -3 -14 92.7773 45.4273   5
  -4  -3 -14-9.19339 32.8497   1
   4   3  14 48.4784 42.0341   3
  -4  -3 -15 148.305 54.3260   1
  -4  -3 -15 52.6951 42.8769   5
  -4  -3 -16 194.093 57.2538   1
  -4  -3 -16 246.323 65.2405   5
  -4  -3 -17 498.689 90.8509   1
  -4  -3 -17 508.646 97.0305   5
  -4  -3 -18 75.9609 47.9845   5
  -4  -4  13 127.908 59.8734   4
   4   4 -13 37.0662 45.8766   2
  -4  -4  12 111.558 55.6593   4
   4   4 -12 184.969 59.4000   2
   4   4 -11 810.799 109.340   2
  -4  -4  11 747.825 115.062   4
   4   4 -10 256.801 59.2806   1
  -4  -4  10 334.638 82.5915   4
   4   4 -10 272.245 69.2126   2
   4   4  -9 137.875 43.1633   1
  -4  -4   9 261.686 74.7403   4
   4   4  -9 169.678 55.4388   2
  -4  -4   8 432.386 77.3033   4
   4   4  -8 443.002 76.4140   2
   4   4  -8 617.483 83.2154   1
  -4  -4   7 1727.60 134.051   4
   4   4  -7 1557.56 128.607   2
   4   4  -7 1896.55 130.002   1
  -4  -4   6 2644.27 156.203   4
   4   4  -6 2386.94 153.231   2
   4   4  -6 2720.09 146.780   1
  -4  -4   5 1037.52 96.1910   4
   4   4  -5 1133.75 92.2441   1
   4   4  -5 1051.99 100.068   2
  -4  -4   4 2254.91 129.453   4
   4   4  -4 2039.97 122.538   2
   4   4  -4 2413.76 127.116   1
  -4  -4   3 1774.34 107.893   4
   4   4  -3 1781.27 110.837   2
   4   4  -3 2098.73 112.929   1
  -4  -4   2-7.51410 24.8179   4
   4   4  -2-11.4937 27.2463   2
   4   4  -2 0.26350 13.8271   3
   4   4  -2-44.3860 24.3522   1
  -4  -4   1 409.351 46.0400   4
   4   4  -1 438.173 56.0423   2
   4   4  -1 403.184 35.5704   3
   4   4   0 214.888 31.6830   3
  -4  -4   0 197.852 31.7058   4
   4   4   0 214.122 37.8181   2
  -4  -4  -1 163.289 26.6915   4
   4   4   1 79.1843 21.8260   2
   4   4   1 134.837 29.0650   3
   4   4   2 63.3238 25.4906   2
  -4  -4  -2 46.2308 14.4998   4
   4   4   2 77.9849 24.8196   3
   4   4   3 580.519 53.5973   3
  -4  -4  -3 597.548 35.3578   4
   4   4   3 593.944 51.3932   2
   4   4   4 505.103 52.2966   3
  -4  -4  -4 443.819 54.3231   1
  -4  -4  -4 445.029 28.6733   4
   4   4   4 515.301 45.4322   2
   4   4   5 3827.79 141.642   3
  -4  -4  -5 3842.21 83.4729   4
  -4  -4  -5 4044.95 148.357   1
   4   4   5 3840.64 115.336   2
   4   4   6 4164.33 119.369   2
   4   4   6 3900.90 149.457   3
  -4  -4  -6 4206.67 154.147   1
  -4  -4  -6 4150.99 95.8081   4
  -4  -4  -7 2690.50 128.977   1
   4   4   7 2811.15 133.558   3
   4   4   7 2789.58 99.4452   2
  -4  -4  -8 3225.67 146.039   1
   4   4   8 3074.35 145.754   3
  -4  -4  -9 840.516 80.2627   1
   4   4   9 709.800 77.8231   3
  -4  -4 -10 60.8026 32.8488   1
   4   4  10 108.463 42.5180   3
   4   4  11 53.9718 37.9611   3
  -4  -4 -11 32.9693 28.6265   5
  -4  -4 -11 9.50147 31.2043   1
   4   4  12 1720.12 125.554   3
  -4  -4 -12 1847.38 135.106   1
  -4  -4 -12 1688.90 120.299   5
  -4  -4 -13 33.8458 35.3699   1
   4   4  13 29.1479 34.0598   3
  -4  -4 -13-18.3352 28.5531   5
  -4  -4 -14 95.0086 40.7700   1
   4   4  14 100.258 46.6992   3
  -4  -4 -14 84.1190 42.2268   5
  -4  -4 -15 161.152 58.2937   1
  -4  -4 -15 137.010 56.3220   5
   4   4  15 182.751 56.2047   3
  -4  -4 -16 157.845 63.3804   1
  -4  -4 -16 152.287 58.8175   5
  -4  -4 -17 588.405 100.705   5
  -4  -4 -17 341.303 72.3584   1
  -4  -4 -18 402.767 82.7941   1
  -4  -4 -18 379.817 86.0969   5
  -4  -5  12 66.9070 50.3608   4
   4   5 -12 109.143 61.2906   2
  -4  -5  11 619.751 103.795   4
   4   5 -11 674.785 103.638   2
  -4  -5  10 1159.02 136.376   4
   4   5 -10 961.668 120.390   2
   4   5  -9 154.785 61.9558   2
  -4  -5   9 133.667 62.4868   4
   4   5  -8 428.805 70.0997   1
  -4  -5   8 325.274 73.3367   4
   4   5  -8 318.250 71.8882   2
   4   5  -7 2573.41 150.911   1
  -4  -5   7 2523.20 165.734   4
   4   5  -7 2350.25 164.772   2
  -4  -5   6 1215.00 113.778   4
   4   5  -6 1471.95 126.477   2
   4   5  -6 1727.66 118.949   1
  -4  -5   5 364.923 64.2084   4
   4   5  -5 476.859 75.2461   2
   4   5  -5 469.615 58.7870   1
  -4  -5   4 2244.61 132.973   4
   4   5  -4 1911.14 128.897   2
   4   5  -4 2221.00 125.986   1
  -4  -5   3 218.180 45.4604   4
   4   5  -3 256.926 51.2495   2
   4   5  -3 249.500 48.5333   1
  -4  -5   2 79.4503 34.3979   4
   4   5  -2 50.9526 33.5592   2
  -4  -5   1 1043.17 77.6193   4
   4   5  -1 1018.59 81.3074   2
   4   5  -1 927.111 54.3766   3
  -4  -5   0 2362.29 102.570   4
   4   5   0 2531.07 122.512   2
   4   5   0 2369.97 90.0499   3
  -4  -5  -1 60.4668 23.7362   4
   4   5   1 46.1893 24.1920   2
   4   5   1 116.284 29.1652   3
   4   5   2 1109.26 75.6747   2
  -4  -5  -2 1106.42 62.2160   4
   4   5   2 1072.45 68.4239   3
   4   5   3 596.166 54.6433   3
  -4  -5  -3 365.373 35.0219   4
   4   5   3 551.552 51.8790   2
  -4  -5  -4 3456.48 139.019   1
   4   5   4 3272.40 128.862   3
   4   5   4 3300.20 113.856   2
   4   5   5 1212.41 83.6040   3
  -4  -5  -5 1201.25 55.4004   4
   4   5   5 1205.53 67.9013   2
  -4  -5  -5 1287.05 89.8569   1
   4   5   6 5029.39 172.260   3
  -4  -5  -6 4918.23 169.195   1
  -4  -5  -6 5231.60 117.976   4
   4   5   6 4954.36 126.438   2
  -4  -5  -7 2151.80 117.319   1
   4   5   7 2171.32 118.687   3
  -4  -5  -7 1548.70 69.9371   4
   4   5   7 1406.06 68.2891   2
  -4  -5  -8 814.579 79.7686   1
   4   5   8 724.712 73.8694   3
   4   5   8 716.468 49.6504   2
  -4  -5  -8 546.003 46.0490   4
  -4  -5  -9 730.425 77.8654   1
   4   5   9 834.169 83.2635   3
  -4  -5 -10 2.39971 26.3877   1
   4   5  10-17.9056 28.8517   3
  -4  -5 -11 370.022 61.9102   1
  -4  -5 -11 431.341 60.7817   5
   4   5  11 332.108 66.2892   3
  -4  -5 -12 163.505 49.2016   1
  -4  -5 -12 178.623 45.1624   5
   4   5  12 189.248 51.2221   3
  -4  -5 -13 293.803 64.2831   1
   4   5  13 314.444 64.3170   3
  -4  -5 -13 132.579 43.0357   5
  -4  -5 -14 577.504 87.9682   1
   4   5  14 468.646 74.6520   3
  -4  -5 -14 513.274 78.5888   5
  -4  -5 -15 545.813 91.6314   1
   4   5  15 462.710 79.4711   3
  -4  -5 -15 421.232 74.3604   5
  -4  -5 -16 706.386 99.3917   1
  -4  -5 -16 726.720 93.8491   5
  -4  -5 -17 671.952 105.798   1
  -4  -5 -17 473.636 94.1315   5
  -4  -5 -18 430.510 86.4518   1
  -4  -5 -18 370.104 82.5236   5
  -4  -5 -19 309.466 80.1147   1
   4   6 -12 399.996 90.1173   2
  -4  -6  11 100.232 47.1842   4
   4   6 -11 226.576 68.6206   2
  -4  -6  10 534.698 100.477   4
   4   6 -10 531.352 97.1949   2
   4   6  -9 881.153 117.882   2
  -4  -6   9 710.221 106.036   4
  -4  -6   8-77.9316 50.6131   4
   4   6  -8 3.49513 40.8538   2
  -4  -6   7 100.792 50.7713   4
   4   6  -7 250.897 73.5389   2
   4   6  -6 344.369 75.3500   2
   4   6  -6 413.324 63.0834   1
  -4  -6   6 316.904 69.8070   4
  -4  -6   5 916.274 99.9194   4
   4   6  -5 802.713 101.309   2
   4   6  -5 877.769 84.6513   1
  -4  -6   4 1042.04 98.4123   4
   4   6  -4 966.119 103.567   2
   4   6  -4 1216.73 96.8017   1
  -4  -6   3 246.860 48.6347   4
   4   6  -3 224.748 52.8749   2
  -4  -6   2 1181.32 91.7551   4
   4   6  -2 1103.18 94.1450   2
  -4  -6   1 1002.13 77.1232   4
   4   6  -1 890.573 80.6041   2
   4   6  -1 1022.56 60.1220   3
   4   6   0 490.973 57.8246   2
  -4  -6   0 516.762 55.7290   4
   4   6   0 413.186 43.9251   3
  -4  -6  -1 211.461 36.3050   4
   4   6   1 187.380 43.1376   2
   4   6   1 219.274 37.3574   3
   4   6   2 390.088 48.9525   2
   4   6   2 381.166 47.4794   3
  -4  -6  -2 413.662 45.5986   4
   4   6   3 1102.76 75.2242   2
   4   6   3 1100.48 76.1075   3
  -4  -6  -3 1115.52 65.2140   4
  -4  -6  -4 2559.80 123.932   1
   4   6   4 2420.35 114.396   3
  -4  -6  -4 2391.06 92.1473   4
   4   6   4 2441.94 101.345   2
   4   6   5 654.625 65.6564   3
  -4  -6  -5 471.562 43.0952   4
  -4  -6  -5 674.548 67.1578   1
   4   6   5 659.747 51.1833   2
  -4  -6  -6 458.781 40.2691   4
   4   6   6 487.699 41.9819   2
   4   6   6 681.740 65.5731   3
  -4  -6  -6 595.985 62.2556   1
  -4  -6  -7 3977.06 162.643   1
   4   6   7 3813.54 160.261   3
   4   6   7 3564.23 104.391   2
  -4  -6  -8 677.168 54.7323   4
  -4  -6  -8 859.565 83.2885   1
   4   6   8 894.440 83.5875   3
   4   6   8 849.332 51.8019   2
  -4  -6  -9 59.5041 23.7182   4
   4   6   9 107.652 42.6236   3
  -4  -6  -9 144.240 40.8342   1
  -4  -6 -10 171.727 51.7754   1
   4   6  10 191.907 49.3139   3
  -4  -6 -10 106.628 29.3470   4
   4   6  11 1762.56 130.479   3
  -4  -6 -11 1932.86 115.026   5
  -4  -6 -11 1618.10 123.914   1
   4   6  12 99.7177 42.4259   3
  -4  -6 -12 103.253 42.7724   1
  -4  -6 -12 198.470 48.7577   5
  -4  -6 -13 748.208 84.0972   5
   4   6  13 724.198 92.5679   3
  -4  -6 -13 847.406 100.479   1
   4   6  14 585.056 86.5086   3
  -4  -6 -14 638.865 91.5856   1
  -4  -6 -14 603.294 78.2212   5
  -4  -6 -15 579.473 92.1389   1
   4   6  15 514.411 83.5662   3
  -4  -6 -15 575.529 85.0231   5
  -4  -6 -16 823.111 108.911   1
   4   6  16 561.430 86.8891   3
  -4  -6 -16 754.056 97.7815   5
  -4  -6 -17 720.717 105.139   1
  -4  -6 -17 1104.83 122.988   5
  -4  -6 -18 286.025 70.7180   5
  -4  -6 -18 308.798 77.4318   1
  -4  -6 -19 36.6992 51.5957   5
  -4  -6 -19 69.3393 44.7655   1
  -4  -7  11 631.053 118.411   4
   4   7 -11 514.059 102.748   2
  -4  -7  10 119.650 56.7059   4
   4   7 -10 335.033 83.2399   2
  -4  -7   9-9.23933 44.7590   4
   4   7  -9 159.214 68.9975   2
   4   7  -8 327.213 81.7132   2
  -4  -7   8 389.085 80.0621   4
  -4  -7   7 14.8869 46.0802   4
   4   7  -7 168.269 60.5253   2
  -4  -7   6-40.5495 36.2114   4
   4   7  -6 53.6433 45.3479   2
  -4  -7   5 362.613 72.1818   4
   4   7  -5 252.427 73.4650   2
  -4  -7   4 490.984 74.2850   4
   4   7  -4 419.795 79.5210   2
  -4  -7   3 6.15637 39.2382   4
   4   7  -3-30.6315 37.3032   2
  -4  -7   2 404.428 60.0344   4
   4   7  -2 493.009 74.0454   2
  -4  -7   1 1453.49 101.256   4
   4   7  -1 1584.42 114.320   2
  -4  -7   0 1634.89 101.916   4
   4   7   0 1391.47 97.4037   2
   4   7   0 1458.59 80.5356   3
   4   7   1 1237.56 91.0481   2
   4   7   1 1033.83 71.8248   3
  -4  -7  -1 1209.20 87.3834   4
   4   7   2 586.243 61.6047   2
   4   7   2 582.541 55.9573   3
  -4  -7  -2 691.648 60.6498   4
   4   7   3 607.809 58.6470   2
   4   7   3 523.098 57.5393   3
  -4  -7  -3 572.952 53.3059   4
   4   7   4 1257.38 78.7938   2
  -4  -7  -4 1339.10 95.1373   1
   4   7   4 1351.88 91.3858   3
  -4  -7  -4 1434.07 78.8612   4
   4   7   5 2254.83 119.487   3
  -4  -7  -5 2272.49 122.043   1
  -4  -7  -5 2410.84 99.6454   4
   4   7   5 2152.56 96.8875   2
  -4  -7  -6 3316.52 115.418   4
   4   7   6 3150.35 145.415   3
  -4  -7  -6 3124.48 142.746   1
   4   7   7 2232.08 84.7424   2
  -4  -7  -7 2358.50 128.432   1
   4   7   7 2198.94 124.198   3
  -4  -7  -7 2541.05 102.448   4
  -4  -7  -8 1086.98 91.6887   1
   4   7   8 1235.47 101.050   3
  -4  -7  -8 1314.24 77.6231   4
   4   7   9 44.0688 40.2243   3
  -4  -7  -9 3.48027 28.9029   1
  -4  -7  -9 31.2626 21.2437   4
  -4  -7 -10-14.5237 28.2274   1
   4   7  10-13.5435 43.1112   3
  -4  -7 -10-2.85809 21.9100   4
  -4  -7 -11-7.79962 38.1865   1
  -4  -7 -11 49.4017 26.2739   4
   4   7  11 101.332 42.8124   3
  -4  -7 -11 53.4683 29.0987   5
  -4  -7 -12-31.8681 38.6081   1
   4   7  12 44.4911 41.9235   3
  -4  -7 -12 36.7861 31.3370   5
  -4  -7 -13 133.527 45.5747   1
   4   7  13 182.770 54.5495   3
  -4  -7 -13 168.574 42.9662   5
   4   7  14 748.961 93.6373   3
  -4  -7 -14 787.923 107.217   1
  -4  -7 -14 625.203 79.3271   5
  -4  -7 -15 273.984 71.4045   1
   4   7  15 329.709 73.2565   3
  -4  -7 -15 262.568 57.4906   5
  -4  -7 -16 879.086 117.922   1
   4   7  16 640.865 96.5572   3
  -4  -7 -16 815.814 96.9739   5
   4   7  17 758.498 107.886   3
  -4  -7 -17 874.267 120.365   1
  -4  -7 -17 887.850 108.602   5
  -4  -7 -18 493.135 95.8747   1
  -4  -7 -18 696.650 101.282   5
  -4  -7 -19 174.650 68.1234   1
  -4  -7 -19 242.181 73.8162   5
  -4  -8  10 236.216 76.8341   4
   4   8 -10 196.220 66.7983   2
  -4  -8   9 101.592 50.5836   4
   4   8  -9 203.069 70.7070   2
  -4  -8   8 24.2123 45.8540   4
   4   8  -8 60.6482 53.2558   2
  -4  -8   7 50.2525 44.2364   4
   4   8  -7 197.285 67.1547   2
  -4  -8   6 502.199 89.2904   4
   4   8  -6 512.261 94.1583   2
  -4  -8   5 173.571 56.4995   4
   4   8  -5 234.494 67.2809   2
  -4  -8   4-6.42115 36.0332   4
   4   8  -4 116.921 54.3805   2
  -4  -8   3 259.940 55.5496   4
   4   8  -3 362.500 71.6242   2
   4   8  -2 1092.44 109.559   2
  -4  -8   2 1175.02 101.054   4
  -4  -8   1 680.820 76.2397   4
   4   8  -1 687.939 84.1406   2
  -4  -8   0 1521.16 108.710   4
   4   8   0 1575.86 113.394   2
   4   8   1 2865.42 138.846   2
  -4  -8  -1 3340.73 147.538   4
   4   8   2 730.602 71.7040   2
   4   8   2 805.550 69.4747   3
  -4  -8  -2 845.415 72.9046   4
   4   8   3 6235.45 190.147   2
   4   8   3 6296.47 194.792   3
  -4  -8  -3 6200.05 197.646   1
  -4  -8  -3 6522.76 190.048   4
  -4  -8  -4 2729.25 137.043   1
   4   8   4 2625.20 118.345   2
   4   8   4 2559.54 127.569   3
  -4  -8  -4 2701.70 119.899   4
   4   8   5 802.876 63.1294   2
  -4  -8  -5 903.208 69.0985   4
   4   8   5 759.275 73.7709   3
  -4  -8  -5 828.476 75.8076   1
  -4  -8  -6 625.034 57.2349   4
   4   8   6 625.790 69.3314   3
  -4  -8  -6 587.217 64.9939   1
   4   8   6 641.777 50.5114   2
  -4  -8  -7 415.025 56.8570   1
  -4  -8  -7 426.926 48.6082   4
   4   8   7 381.612 61.7141   3
   4   8   8 438.929 66.7492   3
  -4  -8  -8 382.490 47.4991   4
  -4  -8  -8 398.013 61.4799   1
   4   8   9 437.167 66.1311   3
  -4  -8  -9 281.664 53.8399   1
  -4  -8  -9 380.000 47.5654   4
   4   8  10 48.1890 40.2172   3
  -4  -8 -10 13.1645 34.4427   1
  -4  -8 -10 30.8942 27.4544   4
   4   8  11 118.791 51.0169   3
  -4  -8 -11 303.451 61.6879   1
  -4  -8 -11 224.781 44.1846   4
  -4  -8 -11 243.583 44.8815   5
  -4  -8 -12-18.1858 33.1205   1
   4   8  12 29.0563 42.7645   3
  -4  -8 -12 7.64297 22.9903   5
  -4  -8 -13 55.2744 32.6540   5
  -4  -8 -13 94.8937 44.3972   1
   4   8  13 29.4498 40.2398   3
   4   8  14 620.153 89.1142   3
  -4  -8 -14 594.593 89.2604   1
  -4  -8 -14 457.299 63.8159   5
   4   8  15 1068.89 117.351   3
  -4  -8 -15 1055.45 121.517   1
  -4  -8 -15 694.865 82.3504   5
  -4  -8 -16 587.850 97.7734   1
   4   8  16 717.293 101.366   3
  -4  -8 -16 437.512 70.4474   5
  -4  -8 -17 682.661 104.674   1
   4   8  17 580.058 92.6771   3
  -4  -8 -17 750.135 99.2426   5
  -4  -8 -18 399.653 90.1390   1
  -4  -8 -18 539.101 93.3899   5
  -4  -8 -19 132.478 62.0794   1
  -4  -9   9 5.49033 50.3282   4
   4   9  -9 68.7357 67.4910   2
  -4  -9   8 42.2424 43.1252   4
   4   9  -8 98.7629 57.8682   2
  -4  -9   7 147.564 58.5019   4
   4   9  -7 262.974 77.0302   2
  -4  -9   6 258.070 68.3021   4
   4   9  -6 265.977 75.6719   2
  -4  -9   5 175.074 68.1096   4
   4   9  -5 157.698 62.2790   2
  -4  -9   4 40.9232 40.7002   4
   4   9  -4 68.2140 49.4869   2
  -4  -9   3 1007.68 107.732   4
   4   9  -3 993.963 113.032   2
  -4  -9   2 1793.77 135.455   4
   4   9  -2 1602.31 136.043   2
  -4  -9   1 1654.50 127.855   4
   4   9  -1 1632.01 131.446   2
   4   9   0 2200.82 141.064   2
  -4  -9   0 2653.85 147.630   4
   4   9   1 2432.28 137.039   2
   4   9   1 2561.82 122.854   3
  -4  -9  -1 2880.69 147.129   4
   4   9   2 684.282 72.6890   2
   4   9   2 741.204 71.3145   3
  -4  -9  -2 882.959 79.6158   4
   4   9   3 1805.14 107.740   2
  -4  -9  -3 1735.83 110.199   1
   4   9   3 1784.16 110.534   3
  -4  -9  -3 1847.81 113.236   4
   4   9   4 3088.72 133.208   2
  -4  -9  -4 3006.80 135.509   4
  -4  -9  -4 2844.20 140.824   1
   4   9   4 2759.22 137.312   3
   4   9   5 1679.62 93.9481   2
   4   9   5 1774.91 115.623   3
  -4  -9  -5 1936.96 107.225   4
  -4  -9  -5 1621.10 107.192   1
  -4  -9  -6 891.076 82.3444   1
   4   9   6 894.017 83.9237   3
  -4  -9  -6 1155.53 86.8945   4
   4   9   7 456.944 61.6252   3
  -4  -9  -7 464.254 62.9447   1
  -4  -9  -7 391.793 51.2706   4
   4   9   8 17.6864 34.4619   3
  -4  -9  -8 51.8907 34.6394   1
  -4  -9  -8 37.2651 23.7294   4
  -4  -9  -9 1013.29 95.3945   1
   4   9   9 975.274 97.0938   3
  -4  -9  -9 1037.70 81.2836   4
  -4  -9 -10 905.158 95.1445   1
   4   9  10 1011.66 99.0823   3
  -4  -9 -10 1081.55 86.1835   4
   4   9  11 3340.22 177.617   3
  -4  -9 -11 3494.55 155.798   4
  -4  -9 -11 3442.34 185.773   1
  -4  -9 -12 571.706 82.9700   1
   4   9  12 504.924 78.2928   3
  -4  -9 -13 16.7914 40.0574   1
   4   9  13 17.1847 48.0106   3
   4   9  14 477.336 79.2535   3
  -4  -9 -14 570.012 92.8553   1
   4   9  15 1313.47 128.105   3
  -4  -9 -15 1325.17 137.050   1
   4   9  16 1223.37 131.481   3
  -4  -9 -16 1412.58 144.997   1
  -4  -9 -16 1458.04 125.513   5
  -4  -9 -17 633.302 104.468   1
   4   9  17 594.875 95.6257   3
  -4  -9 -17 778.506 100.155   5
  -4  -9 -18 142.602 67.5899   1
   4   9  18 114.488 58.0836   3
  -4  -9 -19 30.6889 49.7643   1
  -4 -10   8 171.723 70.6534   4
   4  10  -8 136.312 68.3714   2
  -4 -10   7 177.442 62.4629   4
   4  10  -7 193.013 68.2252   2
  -4 -10   6 135.675 62.4039   4
   4  10  -6 17.9083 45.7347   2
  -4 -10   5 152.190 59.3080   4
   4  10  -5 92.7414 60.9470   2
  -4 -10   4 543.644 93.3014   4
   4  10  -4 430.058 92.3384   2
  -4 -10   3 1271.67 124.707   4
   4  10  -3 1172.69 131.558   2
  -4 -10   2 2382.42 161.048   4
   4  10  -2 2296.54 166.572   2
   4  10  -1 974.813 110.100   2
  -4 -10   1 1129.42 112.709   4
   4  10   0 1299.06 115.933   2
  -4 -10   0 1047.09 101.616   4
  -4 -10  -1 132.562 45.2168   4
   4  10   1 81.5820 44.0108   2
   4  10   2 435.388 54.0714   3
   4  10   2 366.079 59.1290   2
  -4 -10  -2 338.295 49.4164   1
  -4 -10  -2 517.861 69.8100   4
  -4 -10  -3 721.520 74.4775   1
   4  10   3 631.239 71.7658   2
  -4 -10  -3 721.851 76.8267   4
   4  10   3 751.133 77.1359   3
   4  10   4 1172.53 90.6162   2
   4  10   4 1268.87 100.763   3
  -4 -10  -4 1180.29 92.9963   1
  -4 -10  -4 1347.27 102.897   4
   4  10   5 737.827 69.2096   2
  -4 -10  -5 798.986 75.1807   4
   4  10   5 797.043 81.5402   3
  -4 -10  -5 813.318 77.7330   1
  -4 -10  -6 78.6370 33.5636   4
  -4 -10  -6 83.3508 35.5098   1
   4  10   6 88.3123 36.5726   3
  -4 -10  -7 537.299 71.5147   1
  -4 -10  -7 519.166 61.2040   4
   4  10   7 509.189 68.6216   3
   4  10   8 106.864 40.3220   3
  -4 -10  -8 70.8693 34.0674   4
  -4 -10  -8 79.4933 39.7817   1
  -4 -10  -9 1491.96 116.969   1
   4  10   9 1391.57 117.536   3
  -4 -10  -9 1608.34 103.419   4
  -4 -10 -10 2556.64 156.185   1
   4  10  10 2395.64 157.300   3
  -4 -10 -10 2694.51 137.954   4
  -4 -10 -11 253.370 57.9719   1
   4  10  11 200.872 58.8221   3
   4  10  12 714.505 93.8602   3
  -4 -10 -12 625.623 90.6496   1
   4  10  13 669.541 93.8183   3
  -4 -10 -13 747.154 95.8188   1
  -4 -10 -14 197.563 63.6206   1
   4  10  14 192.465 59.8045   3
   4  10  15 1174.97 125.576   3
  -4 -10 -15 1315.57 136.561   1
   4  10  16 545.631 93.5008   3
  -4 -10 -16 410.100 85.5417   1
  -4 -10 -17 255.670 70.1499   1
   4  10  17 477.103 93.6322   3
  -4 -10 -18 41.3223 48.3694   1
   4  10  18 195.157 71.1971   3
  -4 -10 -19 125.914 69.3917   1
  -4 -11   7 174.973 72.8809   4
  -4 -11   6 84.3981 48.9678   4
   4  11  -6 164.718 70.6158   2
  -4 -11   5-5.20542 45.0470   4
   4  11  -5 116.357 56.5755   2
  -4 -11   4 232.087 65.7550   4
   4  11  -4 245.451 77.3307   2
   4  11  -3 743.708 108.689   2
  -4 -11   3 696.446 104.342   4
   4  11  -2 1660.40 152.090   2
  -4 -11   2 1812.79 150.015   4
   4  11  -1 2375.03 170.071   2
  -4 -11   1 2320.79 161.629   4
   4  11   0 917.884 105.520   2
  -4 -11   0 940.108 99.5005   4
  -4 -11  -1 212.023 56.4200   4
   4  11   1 139.243 43.7364   2
   4  11   2 274.964 58.5943   2
  -4 -11  -2 231.056 54.7311   4
   4  11   3 44.6932 32.9466   2
   4  11   3 48.2878 28.1266   3
  -4 -11  -3 21.5850 24.1371   1
  -4 -11  -3 90.2594 41.7637   4
   4  11   4 1136.91 94.3193   2
  -4 -11  -4 1398.22 108.266   4
   4  11   4 1097.73 94.1935   3
  -4 -11  -4 1194.76 96.0458   1
   4  11   5 464.912 63.4362   3
  -4 -11  -5 415.995 59.7353   1
  -4 -11  -5 473.268 67.0287   4
   4  11   6 1.47803 37.5401   3
  -4 -11  -6 37.9769 28.6102   1
  -4 -11  -6 46.5496 30.3197   4
  -4 -11  -7 61.1592 38.9815   1
   4  11   7-34.5312 49.0650   3
  -4 -11  -7 34.6165 35.3670   4
  -4 -11  -8 27.0376 29.3792   1
   4  11   8-0.12239 39.6991   3
  -4 -11  -8 56.0964 37.5615   4
   4  11   9 387.970 67.7649   3
  -4 -11  -9 314.271 55.3629   4
  -4 -11  -9 328.752 59.9882   1
  -4 -11 -10 645.302 82.9900   1
   4  11  10 730.747 88.2146   3
  -4 -11 -10 771.947 79.7570   4
  -4 -11 -11 19.7309 39.3148   1
   4  11  11 55.0137 49.0633   3
  -4 -11 -12 104.746 47.8722   1
   4  11  12 123.180 44.7837   3
   4  11  13 192.758 58.9075   3
  -4 -11 -13 97.7983 50.6448   1
  -4 -11 -14 345.280 74.3900   1
   4  11  14 372.019 80.8336   3
  -4 -11 -15 314.751 80.8698   1
   4  11  15 242.408 74.0490   3
  -4 -11 -16 571.840 100.990   1
   4  11  16 642.523 101.698   3
  -4 -11 -17 374.286 88.1981   1
   4  11  17 366.802 85.7926   3
  -4 -11 -18 94.0580 65.9271   1
   4  11  18 18.7636 51.3258   3
  -4 -11 -19 59.5443 63.6203   1
   4  11  19 20.8655 46.5630   3
  -4 -12   6-18.8227 49.5949   4
  -4 -12   5 14.1786 39.7311   4
   4  12  -5-1.09902 47.0126   2
  -4 -12   4 77.4405 62.2079   4
   4  12  -4 186.883 73.5430   2
  -4 -12   3 344.746 72.8815   4
   4  12  -3 532.058 105.673   2
   4  12  -2 1310.24 146.895   2
  -4 -12   2 1062.04 125.099   4
   4  12  -1 1529.12 146.231   2
  -4 -12   1 1413.87 134.926   4
  -4 -12   0 350.244 74.9691   4
   4  12   0 323.830 73.1677   2
   4  12   1 583.185 88.4440   2
  -4 -12  -1 609.930 93.4154   4
  -4 -12  -2 268.212 67.3946   4
   4  12   2 256.355 59.9227   2
  -4 -12  -3 32.3556 32.7436   4
   4  12   3 35.3895 31.6150   2
   4  12   3 104.068 37.7063   3
  -4 -12  -4 3.10776 34.1279   4
   4  12   4 27.9679 36.0934   2
   4  12   4 5.39320 32.8155   3
  -4 -12  -5 191.438 50.0902   4
  -4 -12  -5 176.903 47.5634   1
   4  12   5 220.170 52.6902   3
  -4 -12  -6 47.4753 32.3909   1
   4  12   6-18.1848 41.3978   3
  -4 -12  -6-3.19442 29.4192   4
  -4 -12  -7 324.961 59.4556   1
   4  12   7 249.190 49.1907   3
  -4 -12  -7 312.234 59.6853   4
  -4 -12  -8 531.577 76.0634   1
   4  12   8 554.788 76.5059   3
  -4 -12  -8 482.843 67.8633   4
  -4 -12  -9 2212.80 146.512   1
   4  12   9 2262.88 153.865   3
  -4 -12  -9 2272.79 138.855   4
  -4 -12 -10 543.398 71.1290   4
  -4 -12 -10 538.265 77.6896   1
   4  12  10 425.542 70.7364   3
   4  12  11 24.1140 46.2004   3
  -4 -12 -11 45.3159 36.3477   1
  -4 -12 -12 443.415 77.4796   1
   4  12  12 371.999 74.9331   3
   4  12  13 118.945 61.6557   3
  -4 -12 -13 83.9612 50.9665   1
   4  12  14 60.8805 48.6229   3
  -4 -12 -14 129.906 53.3521   1
   4  12  15 747.509 110.624   3
  -4 -12 -15 681.066 109.351   1
   4  12  16 347.378 86.6919   3
  -4 -12 -16 114.887 52.5768   1
  -4 -12 -17 8.97851 54.0861   1
   4  12  17-100.703 61.0395   3
  -4 -12 -18-1.32949 49.6723   1
   4  12  18-78.5033 44.9729   3
   4  12  19 32.4014 47.0438   3
  -4 -13   4-10.8677 42.7280   4
   4  13  -4-19.6604 44.7256   2
  -4 -13   3 352.034 83.0482   4
   4  13  -3 301.381 78.0247   2
  -4 -13   2 327.275 79.8535   4
   4  13  -2 318.726 86.4248   2
   4  13  -1 562.454 95.6952   2
  -4 -13   1 736.467 106.336   4
  -4 -13   0 116.590 53.8780   4
   4  13   0 110.809 53.8197   2
  -4 -13  -1 183.968 61.6945   4
   4  13   1 166.766 62.8711   2
  -4 -13  -2 28.0542 41.6418   4
   4  13   2 56.4194 43.8740   2
  -4 -13  -3-9.80457 36.2690   4
   4  13   3-3.35409 36.1200   2
   4  13   4-17.4055 38.0852   3
  -4 -13  -4 60.7192 42.2236   4
  -4 -13  -5-13.9671 32.3214   4
   4  13   5 45.8619 35.4283   3
  -4 -13  -6-28.6191 34.3863   4
   4  13   6-55.9699 49.5627   3
   4  13   7 293.225 63.5059   3
  -4 -13  -7 282.598 55.6221   1
  -4 -13  -7 311.487 59.1349   4
  -4 -13  -8 1047.64 102.088   1
  -4 -13  -8 997.639 98.5080   4
   4  13   8 1204.92 120.387   3
  -4 -13  -9 2321.59 154.507   1
   4  13   9 2416.43 166.685   3
  -4 -13  -9 2487.02 152.902   4
  -4 -13 -10 373.423 66.3970   1
   4  13  10 266.742 66.6846   3
  -4 -13 -11 170.428 54.5721   1
   4  13  11 255.325 65.5519   3
   4  13  12 629.591 94.0530   3
  -4 -13 -12 569.285 87.8110   1
   4  13  13 608.561 96.7586   3
  -4 -13 -13 483.617 85.2674   1
  -4 -13 -14 182.140 63.1819   1
   4  13  14 111.513 51.4562   3
   4  13  15 25.7253 46.2465   3
  -4 -13 -15 64.2278 47.2115   1
  -4 -13 -16 394.370 83.6146   1
   4  13  16 553.657 98.5236   3
   4  13  17-57.8296 51.8549   3
  -4 -13 -17-58.0782 45.0950   1
  -4 -13 -18 8.82457 48.8692   1
   4  13  18 48.2760 53.7018   3
   4  13  19 47.4846 47.4676   3
  -4 -14   3 240.245 79.8019   4
   4  14  -3 329.401 92.7938   2
  -4 -14   2 635.616 105.667   4
   4  14  -2 872.094 125.910   2
  -4 -14   1 67.5251 61.4542   4
   4  14  -1 59.0031 56.4364   2
  -4 -14   0 64.3952 55.2748   4
   4  14   0 30.7630 43.9474   2
  -4 -14  -1 61.6047 51.2561   4
   4  14   1 48.5817 43.1463   2
  -4 -14  -2 98.1836 54.0830   4
   4  14   2 42.6337 34.7498   2
  -4 -14  -3 20.1045 49.6421   4
  -4 -14  -4 20.3237 43.0216   4
  -4 -14  -5 190.716 53.8190   4
   4  14   5 87.9593 40.9629   3
  -4 -14  -6 127.671 50.2056   4
   4  14   6 53.5826 49.8721   3
   4  14   7-10.7040 46.2985   3
  -4 -14  -7 7.06985 31.3809   4
   4  14   8 1282.49 127.865   3
  -4 -14  -8 1342.52 118.632   4
  -4 -14  -9 3276.74 185.042   1
   4  14   9 3458.82 202.119   3
  -4 -14  -9 3614.83 196.176   4
   4  14  10 1285.72 128.706   3
  -4 -14 -10 901.355 103.126   1
   4  14  11 905.783 111.716   3
  -4 -14 -11 743.101 96.8523   1
  -4 -14 -12 23.1970 36.3081   1
   4  14  12 1.53697 47.6505   3
   4  14  13 201.668 64.8098   3
  -4 -14 -13 329.785 71.0641   1
   4  14  14 201.373 74.6841   3
  -4 -14 -14 98.1256 50.9238   1
  -4 -14 -15 37.8651 44.3845   1
   4  14  15 187.118 63.9384   3
   4  14  16 2.14403 62.7351   3
  -4 -14 -16 184.853 76.1591   1
  -4 -14 -17 173.132 70.1103   1
   4  14  17 59.5042 48.3980   3
   4  14  18-7.45355 47.2841   3
  -4 -14 -18 15.2651 45.5803   1
  -4 -15   2 380.427 90.0175   4
   4  15  -2 398.690 91.2926   2
  -4 -15   1 162.448 64.0099   4
   4  15  -1 411.607 91.4902   2
  -4 -15   0 81.3929 59.5939   4
   4  15   0 84.0441 51.0780   2
  -4 -15  -1 189.090 59.6489   4
   4  15   1 293.728 75.9442   2
  -4 -15  -2-31.6188 38.3234   4
  -4 -15  -3 78.1495 45.2259   4
  -4 -15  -4 22.3402 33.1456   4
  -4 -15  -5-13.1540 36.4277   4
   4  15   5-28.5699 39.8606   3
  -4 -15  -6 32.2417 41.8641   4
   4  15   6 15.6103 34.1208   3
   4  15   7 261.673 66.0741   3
  -4 -15  -7 261.944 60.4264   4
  -4 -15  -8 1559.53 131.990   4
   4  15   8 2205.41 168.931   3
   4  15   9 1039.65 119.753   3
   4  15  10 1030.54 120.596   3
   4  15  11 280.801 74.2274   3
  -4 -15 -11 213.699 56.4796   1
  -4 -15 -12 61.8573 48.6457   1
   4  15  12-9.06261 51.7856   3
  -4 -15 -13 25.8871 33.6771   1
   4  15  13 77.0281 49.3931   3
   4  15  14 156.845 70.8766   3
  -4 -15 -14 20.5841 40.6111   1
  -4 -15 -15-44.9357 39.8773   1
   4  15  15 68.1435 61.7585   3
  -4 -15 -16 18.1017 51.4304   1
   4  15  16-43.8686 48.3593   3
  -4 -15 -17 51.0498 52.7561   1
   4  15  17 99.8986 56.8155   3
  -4 -16   0-41.7058 42.5749   4
  -4 -16  -1 106.510 59.2723   4
  -4 -16  -2 639.720 106.249   4
  -4 -16  -3 257.412 70.3681   4
  -4 -16  -4 302.655 77.1433   4
  -4 -16  -5 466.555 87.0798   4
   4  16   6 112.273 50.6187   3
  -4 -16  -6 289.654 74.4624   4
   4  16   7 487.737 84.6000   3
  -4 -16  -7 941.971 114.436   4
   4  16   8 1441.98 138.874   3
   4  16   9 674.088 102.042   3
   4  16  10 240.330 75.1025   3
   4  16  11 80.7780 54.7221   3
   4  16  12-34.0431 53.5421   3
  -4 -16 -13-45.3134 49.8232   1
   4  16  13 76.8689 58.3676   3
   4  16  14 95.7287 60.9784   3
  -4 -16 -14 12.4538 34.7490   1
  -4 -16 -15 0.00000 41.5091   1
   4  16  15 37.3523 65.5817   3
  -4 -16 -16-39.9711 44.6847   1
   4  16  16 31.4937 60.5141   3
  -4 -16 -17 131.500 56.7718   1
  -4 -17  -2 347.743 87.6577   4
  -4 -17  -3 577.390 104.298   4
  -4 -17  -4 405.305 87.2391   4
  -4 -17  -5 366.786 85.2817   4
  -4 -17  -6 264.786 72.0973   4
   4  17   7 805.020 110.017   3
   4  17   8 649.019 101.058   3
   4  17   9 463.785 88.0510   3
   4  17  10 181.643 64.5417   3
   4  17  11-77.4198 62.4153   3
   4  17  12-14.0974 62.5604   3
   4  17  13 55.7919 60.9100   3
   4  17  14 143.828 78.1266   3
  -4 -17 -15 102.359 49.9301   1
  -4 -17 -16 39.2897 46.0051   1
  -4 -18  -4 279.191 78.5128   4
   4  18   8 178.032 63.8765   3
   4  18   9-67.8090 53.5242   3
   4  18  10-17.6927 54.0697   3
   4  18  11-51.7926 51.7484   3
   4  18  12 14.5338 47.9532   3
   4  19   9 33.2087 49.4606   3
   5 -17 -11-87.7167 64.6822   4
   5 -17 -10 153.724 67.8477   4
   5 -17  -9 91.6682 57.8692   4
   5 -17  -8 167.807 65.1059   4
   5 -17  -7 58.4144 51.6653   4
   5 -17  -6-27.8072 46.0753   4
   5 -17  -5 322.237 82.0248   4
   5 -17  -4 1101.39 151.135   3
   5 -17  -4 1094.27 143.748   4
   5 -17  -3 627.495 111.356   3
   5 -17  -3 540.110 110.277   4
   5 -17  -2 261.964 83.2154   3
   5 -17  -2 153.770 62.0165   4
   5 -16 -13 129.448 73.8167   4
   5 -16 -12-18.4584 47.3511   4
   5 -16 -11 162.965 63.2215   4
   5 -16 -10 58.6300 60.7913   4
   5 -16  -9 142.427 68.6919   4
   5 -16  -8 79.6548 56.7969   4
   5 -16  -7-45.0939 58.0109   4
   5 -16  -6 317.147 91.1366   3
   5 -16  -6 178.148 70.5153   4
   5 -16  -5 296.873 79.9096   3
   5 -16  -5 286.023 71.9702   4
   5 -16  -4 193.350 71.9331   3
   5 -16  -4 292.490 83.0794   4
   5 -16  -3 694.990 113.344   3
   5 -16  -3 695.624 115.158   4
   5 -16  -2 223.581 68.0786   3
   5 -16  -2 369.049 90.8531   4
   5 -16  -1 3.20890 41.6932   3
   5 -16  -1-8.58119 51.6718   4
   5 -16   0 23.8718 50.2772   4
  -5  16   0-25.0004 44.8285   2
   5 -16   1 39.0870 59.2059   3
  -5  16  -1 41.5927 56.8783   2
   5 -15 -14 43.8922 52.0249   4
   5 -15 -13 75.0859 63.5510   4
   5 -15 -12 174.925 74.8660   4
   5 -15 -11 186.884 66.9023   4
   5 -15 -10 344.308 81.4850   4
   5 -15  -9 296.639 77.6251   4
   5 -15  -8 371.776 84.1041   4
   5 -15  -7 19.6981 44.2124   4
   5 -15  -6 374.864 87.8380   3
   5 -15  -6 342.995 81.5381   4
   5 -15  -5 468.501 95.8162   3
   5 -15  -5 269.424 83.6668   4
   5 -15  -4 608.547 106.453   3
   5 -15  -4 495.722 92.8250   4
   5 -15  -3 372.162 84.9114   3
   5 -15  -3 444.603 94.6259   4
   5 -15  -2 333.469 86.7176   3
   5 -15  -2 138.508 63.9087   4
   5 -15  -1 44.8064 59.5432   4
   5 -15  -1 68.7015 56.2876   3
  -5  15   1 132.849 62.7721   2
   5 -15   0 125.805 57.9686   4
   5 -15   0 105.109 66.0793   3
  -5  15   0 98.7857 58.3981   2
   5 -15   1 77.4611 55.8216   4
   5 -15   1 39.5680 53.0447   3
  -5  15  -1 32.0521 65.3800   2
  -5  15  -2 150.168 71.8948   2
   5 -15   2 48.0677 52.9550   3
   5 -15   3 99.0925 62.7413   4
   5 -14 -16-0.68053 52.2328   1
   5 -14 -15 72.5990 53.8090   1
   5 -14 -15-10.8003 44.7545   4
   5 -14 -14 216.290 81.0551   4
   5 -14 -13 24.2438 50.2824   4
   5 -14 -12 75.5355 60.2589   4
   5 -14 -11 318.059 84.4048   4
   5 -14 -10 512.193 95.9661   4
   5 -14  -9 605.543 100.019   4
   5 -14  -8 69.0559 50.0093   4
   5 -14  -7 261.208 73.5618   3
   5 -14  -7 296.943 65.4198   4
   5 -14  -6 670.405 107.389   3
   5 -14  -6 599.274 97.8359   4
   5 -14  -5 227.962 61.2471   3
   5 -14  -5 150.672 56.6722   4
   5 -14  -4 388.907 84.0274   3
   5 -14  -4 262.978 73.5459   4
   5 -14  -3 556.064 97.0201   3
   5 -14  -3 503.622 94.1373   4
   5 -14  -2 95.9800 49.0112   3
   5 -14  -2 128.109 57.7453   4
   5 -14  -1 113.407 57.0233   4
   5 -14  -1 16.5519 50.9150   3
   5 -14   0 236.454 72.9193   4
   5 -14   0 264.124 79.1005   3
  -5  14   0 30.7818 37.2695   2
   5 -14   1 480.800 91.9370   4
   5 -14   1 583.186 104.725   3
  -5  14  -1 593.276 99.4070   2
   5 -14   2 57.4899 57.9228   4
   5 -14   2 113.646 55.7039   3
  -5  14  -2 65.2515 59.0509   2
   5 -14   3 76.0693 55.2924   4
   5 -14   3 92.6042 61.2167   3
  -5  14  -3 46.1180 51.7064   2
   5 -14   4 54.8025 56.9145   4
  -5  14  -4 40.9280 65.5567   2
   5 -13 -16-98.5061 63.3801   1
   5 -13 -16-15.9551 51.0119   4
   5 -13 -15 185.076 70.9605   1
   5 -13 -15 64.9497 62.9627   4
   5 -13 -14 82.0060 61.9102   4
   5 -13 -14 16.7827 35.4212   1
   5 -13 -13 58.7244 44.2558   1
   5 -13 -13-29.6360 65.1955   4
   5 -13 -12 766.840 112.248   4
   5 -13 -11 334.529 78.6797   4
   5 -13 -10 809.076 109.077   4
   5 -13  -9 1748.22 156.403   4
   5 -13  -8 470.272 86.7487   3
   5 -13  -8 567.860 91.2635   4
   5 -13  -7 1091.93 128.941   3
   5 -13  -7 1111.66 122.018   4
   5 -13  -6 508.141 92.7558   3
   5 -13  -6 457.213 86.0216   4
   5 -13  -5 389.636 82.9156   3
   5 -13  -5 588.264 87.6768   4
   5 -13  -4 632.977 101.937   3
   5 -13  -4 542.967 84.9761   4
   5 -13  -3 139.992 65.2627   3
   5 -13  -3 110.507 54.2939   4
   5 -13  -2 154.907 57.8468   3
   5 -13  -2 101.593 53.6477   4
   5 -13  -1 110.342 49.4611   4
   5 -13  -1 136.490 59.3032   3
   5 -13   0 262.712 74.7788   4
   5 -13   0 229.930 69.0455   3
   5 -13   1 690.811 109.425   3
  -5  13  -1 752.336 112.493   2
   5 -13   1 782.423 107.528   4
  -5  13  -2 224.633 72.0339   2
   5 -13   2 322.633 76.9244   3
   5 -13   2 275.079 72.6727   4
   5 -13   3 181.066 69.7827   4
   5 -13   3 129.307 53.3451   3
   5 -13   4 82.5218 53.2448   4
   5 -13   4 181.586 65.8329   3
  -5  13  -4 84.2285 56.8615   2
   5 -13   5 125.891 55.5521   4
  -5  13  -5 223.275 76.2978   2
   5 -13   6 279.066 83.0203   4
   5 -12 -16 108.815 63.2887   1
   5 -12 -16 110.152 71.8824   4
   5 -12 -15 93.1057 58.2273   1
   5 -12 -15 101.286 59.7011   4
   5 -12 -14 70.4409 55.4909   1
   5 -12 -14 52.6725 46.8094   4
   5 -12 -13 29.0914 50.8972   4
   5 -12 -13 67.4626 52.3872   1
   5 -12 -12 593.163 93.4116   1
   5 -12 -12 785.989 111.903   4
   5 -12 -11 1743.13 146.197   1
   5 -12 -11 1826.80 163.339   4
   5 -12 -10 2443.04 180.113   4
   5 -12  -9 391.905 81.1386   4
   5 -12  -8 225.027 63.6241   3
   5 -12  -8 171.990 61.3071   4
   5 -12  -7 548.521 86.3454   3
   5 -12  -7 621.922 92.4042   4
   5 -12  -6 102.467 58.9773   3
   5 -12  -6 196.270 57.3656   4
   5 -12  -5 169.800 64.3790   3
   5 -12  -5 82.1458 41.0198   4
   5 -12  -4 227.975 64.5905   3
   5 -12  -4 149.083 50.5768   4
   5 -12  -3-26.2216 50.2368   3
   5 -12  -3-30.5567 43.6219   4
   5 -12  -2 186.347 67.5072   3
   5 -12  -2 148.804 57.0909   4
   5 -12  -1 161.112 57.7233   4
   5 -12  -1 196.509 64.0905   3
   5 -12   0 1589.60 147.585   3
   5 -12   0 1564.47 138.871   4
   5 -12   1 2205.17 171.731   3
   5 -12   1 2029.34 161.414   4
   5 -12   2 626.825 95.4043   4
   5 -12   2 514.667 89.8862   3
  -5  12  -2 595.855 106.069   2
   5 -12   3 453.589 86.3013   4
  -5  12  -3 254.685 72.0828   2
   5 -12   3 435.156 92.4185   3
   5 -12   4 254.234 74.2133   4
   5 -12   4 226.027 57.7083   3
  -5  12  -4 319.388 91.8937   2
   5 -12   5 354.214 80.7825   4
  -5  12  -5 553.212 104.597   2
  -5  12  -6 939.887 136.336   2
   5 -12   6 581.933 100.424   4
   5 -12   7 316.606 87.1885   4
  -5  12  -7 514.147 107.777   2
   5 -11 -16 73.6362 60.2833   1
   5 -11 -16 30.9124 47.2275   4
   5 -11 -15 36.5728 50.1679   1
   5 -11 -15 38.8434 46.6653   4
   5 -11 -14-31.5166 38.4807   1
   5 -11 -14-31.3865 53.6105   4
   5 -11 -13 465.475 85.1546   1
   5 -11 -13 438.430 86.7109   4
   5 -11 -12 496.752 89.8046   1
   5 -11 -12 537.374 89.7029   4
   5 -11 -11 416.397 82.1863   1
   5 -11 -11 365.339 68.4189   4
   5 -11 -10 623.589 89.0209   1
   5 -11 -10 753.710 102.337   4
   5 -11  -9 1203.19 124.179   4
   5 -11  -9 1274.33 113.294   1
   5 -11  -8 568.855 87.1336   4
   5 -11  -8 680.637 93.3775   3
   5 -11  -7 108.211 52.5333   3
   5 -11  -7 110.712 46.6477   4
   5 -11  -6 166.745 55.1254   3
   5 -11  -6 79.7342 33.7362   4
   5 -11  -5-48.3677 49.2635   3
   5 -11  -5-13.2580 40.7015   4
   5 -11  -4 120.746 53.5581   3
   5 -11  -4 150.601 52.0080   4
   5 -11  -3 1.28829 41.0125   3
   5 -11  -3 14.6381 36.5239   4
   5 -11  -2 609.184 87.5600   3
   5 -11  -2 496.419 78.6518   4
   5 -11  -1 871.684 105.891   3
   5 -11  -1 765.156 94.4867   4
   5 -11   0 747.635 102.836   3
   5 -11   0 756.235 91.5677   4
   5 -11   1 436.427 76.2172   4
   5 -11   1 416.951 78.6515   3
   5 -11   2 1165.53 126.226   3
   5 -11   2 989.037 113.033   4
   5 -11   3 381.080 79.8849   4
   5 -11   3 397.196 81.5688   3
  -5  11  -3 252.461 64.0212   2
   5 -11   4 294.661 76.6238   4
   5 -11   4 385.923 78.4952   3
  -5  11  -4 355.006 89.5837   2
   5 -11   5 274.010 67.4599   4
   5 -11   5 169.958 52.8161   3
  -5  11  -5 289.260 87.3976   2
   5 -11   6 150.953 52.4318   4
  -5  11  -6 233.276 77.4378   2
   5 -11   7 171.440 60.9964   4
  -5  11  -7 430.684 103.400   2
   5 -11   8 302.891 79.3174   4
  -5  11  -8 477.210 103.767   2
   5 -11   9 28.1244 40.4428   4
   5 -10 -16 326.502 86.3270   1
   5 -10 -15 107.571 54.6778   1
   5 -10 -15 126.513 73.4871   4
   5 -10 -14 50.5620 54.3759   4
   5 -10 -14 118.561 59.8001   1
   5 -10 -13 373.574 84.1968   1
   5 -10 -13 282.905 78.3144   4
   5 -10 -12 767.651 108.466   1
   5 -10 -12 591.221 94.8069   4
   5 -10 -11 318.235 71.5472   1
   5 -10 -11 236.155 62.8372   4
   5 -10 -10 275.763 61.0278   1
   5 -10 -10 292.557 69.1297   4
   5 -10  -9 464.483 81.3462   4
   5 -10  -9 473.375 74.6271   1
   5 -10  -8 790.826 94.8957   3
   5 -10  -8 663.946 89.2989   4
   5 -10  -8 563.765 75.1696   1
   5 -10  -7 50.0604 37.1701   3
   5 -10  -7 22.3168 29.7451   1
   5 -10  -7 5.14409 38.8858   4
   5 -10  -6 23.9681 36.4332   3
   5 -10  -6 81.3077 52.5662   4
   5 -10  -5 258.337 62.9246   3
   5 -10  -5 269.688 61.2881   4
   5 -10  -4 6.63961 41.1545   3
   5 -10  -4-0.23686 38.1812   4
   5 -10  -3 29.7539 46.3975   3
   5 -10  -3 71.1238 41.9933   4
   5 -10  -2 1088.95 115.094   3
   5 -10  -2 1220.55 109.554   4
   5 -10  -1 857.685 101.551   3
   5 -10  -1 854.180 94.2572   4
   5 -10   0 1275.81 120.914   3
   5 -10   0 1209.74 108.319   4
   5 -10   1 438.024 106.279   3
   5 -10   1 602.827 94.6664   4
   5 -10   2 364.960 67.8675   4
   5 -10   2 289.820 67.6970   3
   5 -10   3 138.119 53.7885   4
   5 -10   3 104.953 51.0485   3
   5 -10   4 87.6368 49.8604   4
   5 -10   4-10.5251 45.1042   3
   5 -10   5 220.960 64.5238   4
   5 -10   5 201.865 64.9787   3
  -5  10  -5 232.252 69.2023   2
   5 -10   6 185.405 68.4038   4
   5 -10   6 193.368 58.8903   3
  -5  10  -6 252.942 77.3956   2
   5 -10   7 366.391 75.3563   4
  -5  10  -7 489.660 102.391   2
   5 -10   8 24.4370 36.7933   4
  -5  10  -8 71.2954 61.8546   2
   5 -10   9 254.483 75.0856   4
  -5  10  -9 42.0176 52.0716   2
   5  -9 -17 122.816 64.7882   1
   5  -9 -16 165.708 63.9987   1
   5  -9 -15 603.681 108.822   1
   5  -9 -14 122.692 59.8415   4
   5  -9 -14 34.7046 45.9747   1
   5  -9 -13 355.949 77.3364   1
   5  -9 -13 178.323 61.3246   4
   5  -9 -12 630.899 95.6718   1
   5  -9 -12 495.598 91.2416   4
   5  -9 -11 267.114 64.0739   1
   5  -9 -11 404.168 78.8408   4
   5  -9 -10 85.2570 38.8161   1
   5  -9 -10 45.7849 43.3566   4
   5  -9  -9 1359.61 128.349   4
   5  -9  -9 1717.78 131.656   1
   5  -9  -8 70.4391 39.1866   3
   5  -9  -8 131.177 45.1479   1
   5  -9  -8 93.8783 49.2396   4
   5  -9  -7 52.0346 31.4681   1
   5  -9  -7-7.98320 35.2270   4
   5  -9  -6 111.185 40.0826   3
   5  -9  -6 143.387 43.9371   1
   5  -9  -6 118.164 34.9996   2
   5  -9  -6 78.1521 44.3551   4
   5  -9  -5 1199.70 106.719   3
   5  -9  -5 863.348 91.4096   4
   5  -9  -5 916.876 78.4461   1
   5  -9  -4 243.340 58.8149   3
   5  -9  -4 192.015 48.7872   4
   5  -9  -3 55.5446 49.5919   3
   5  -9  -3 0.63394 37.3452   4
   5  -9  -2 513.738 79.4558   3
   5  -9  -2 449.037 65.1841   4
   5  -9  -1 2074.46 146.867   3
   5  -9  -1 1800.00 125.718   4
   5  -9   0 74.4808 37.4417   4
   5  -9   0 9.12036 42.0145   3
   5  -9   1 1017.77 105.889   3
   5  -9   1 1081.30 103.208   4
   5  -9   2 2879.52 170.592   3
   5  -9   2 2802.33 162.505   4
   5  -9   3 488.335 76.7695   4
   5  -9   3 259.254 70.1471   3
   5  -9   4 225.072 58.4204   4
   5  -9   4 133.323 50.9487   3
   5  -9   5 300.379 65.3548   4
   5  -9   5 288.282 65.3706   3
   5  -9   6 43.7674 39.7697   4
   5  -9   6 60.7587 46.4405   3
  -5   9  -6 67.0572 50.1355   2
   5  -9   7 206.989 61.6723   4
   5  -9   7 179.728 54.9600   3
  -5   9  -7 215.685 71.6571   2
   5  -9   8-21.5425 32.5360   4
  -5   9  -8 133.827 81.4704   2
   5  -9   9 123.221 53.4292   4
  -5   9  -9 362.036 92.3241   2
  -5   9 -10 675.642 119.308   2
   5  -9  10 450.320 89.7885   4
   5  -8 -16 97.6035 58.7503   1
   5  -8 -15 0.41313 45.0052   1
   5  -8 -14 305.172 84.5556   1
   5  -8 -13 99.4496 59.5305   1
   5  -8 -13 70.9344 54.3581   4
   5  -8 -12 336.539 72.3044   4
   5  -8 -12 304.227 73.1188   1
   5  -8 -11 180.163 62.0953   4
   5  -8 -11 257.876 66.8224   1
   5  -8 -10 481.868 77.3075   4
   5  -8 -10 512.890 82.4834   1
   5  -8  -9 1175.63 111.371   4
   5  -8  -9 1344.32 117.564   1
   5  -8  -8 157.803 50.6516   3
   5  -8  -8 202.510 47.9316   1
   5  -8  -8 236.535 55.8238   4
   5  -8  -7 433.381 68.9126   3
   5  -8  -7 472.383 56.4470   2
   5  -8  -7 399.705 63.7337   1
   5  -8  -7 440.122 67.4662   4
   5  -8  -6 375.125 62.9175   3
   5  -8  -6 229.065 41.1393   2
   5  -8  -6 313.049 55.9264   4
   5  -8  -6 371.651 60.0023   1
   5  -8  -5 70.1737 38.4943   3
   5  -8  -5 16.3163 19.5027   1
   5  -8  -5 70.5269 29.8302   2
   5  -8  -5 68.9863 42.8041   4
   5  -8  -4 1478.59 115.631   3
   5  -8  -4 1480.31 111.327   4
   5  -8  -4 1472.99 98.8361   2
   5  -8  -4 1371.39 88.9722   1
   5  -8  -3 94.7356 44.2254   3
   5  -8  -3 45.1788 29.4627   4
   5  -8  -2 1078.31 98.2774   3
   5  -8  -2 1098.46 91.3232   4
   5  -8  -1 4252.20 194.855   3
   5  -8  -1 4496.44 180.896   4
   5  -8   0 1723.78 124.463   3
   5  -8   0 1463.33 106.070   4
   5  -8   1 1768.56 128.554   3
   5  -8   1 2017.15 127.035   4
   5  -8   2 1688.07 127.985   3
   5  -8   2 1692.18 120.575   4
   5  -8   3 1287.90 112.541   3
   5  -8   3 1294.45 109.312   4
   5  -8   4-1.66183 32.4069   4
   5  -8   4-83.0913 45.4117   3
   5  -8   5 401.916 69.3730   3
   5  -8   5 553.093 78.2771   4
   5  -8   6 26.9915 33.0956   4
  -5   8  -6 101.735 36.7614   5
   5  -8   7 33.2342 35.1943   4
   5  -8   7 9.36446 35.5687   3
  -5   8  -7 35.0264 33.0877   5
  -5   8  -7 67.5981 60.6355   2
   5  -8   8 51.5490 35.5328   4
  -5   8  -8 116.375 55.0887   2
  -5   8  -8 137.875 43.2686   5
  -5   8  -9 147.915 72.8103   2
   5  -8   9 49.7966 42.2257   4
  -5   8  -9 68.6104 37.2600   5
   5  -8  10 493.078 92.1674   4
  -5   8 -10 545.661 86.3729   5
  -5   8 -10 611.227 111.742   2
  -5   8 -11 898.264 134.100   2
  -5   8 -11 1140.57 126.524   5
  -5   8 -12 956.009 123.126   5
   5  -7 -16 184.580 70.9891   1
   5  -7 -15 485.821 99.4057   1
   5  -7 -14-10.3264 45.5136   1
   5  -7 -13 232.358 71.5334   1
   5  -7 -12 292.153 70.0228   1
   5  -7 -11 242.158 63.9452   1
   5  -7 -11 104.474 53.6010   4
   5  -7 -10 1120.97 112.439   4
   5  -7 -10 1200.79 115.550   1
   5  -7  -9 90.3554 39.0835   1
   5  -7  -9 117.777 42.0994   4
   5  -7  -8 8.50745 27.3538   3
   5  -7  -8-8.37351 30.5011   1
   5  -7  -8-22.8099 29.8436   4
   5  -7  -8 6.08391 22.3810   2
   5  -7  -7 307.971 47.8785   2
   5  -7  -7 426.922 60.2480   3
   5  -7  -7 373.334 65.8597   4
   5  -7  -7 519.011 71.5419   1
   5  -7  -6 353.297 60.0057   3
   5  -7  -6 310.194 52.0019   1
   5  -7  -6 307.333 54.3105   4
   5  -7  -6 354.013 51.5441   2
   5  -7  -5 54.2382 34.1327   3
   5  -7  -5 89.2135 36.4974   1
   5  -7  -5 91.6123 39.7771   4
   5  -7  -5 30.6225 23.8550   2
   5  -7  -4-21.5750 24.9394   1
   5  -7  -4 27.2370 38.7830   3
   5  -7  -4 3.22586 23.6502   2
   5  -7  -4 11.2330 29.1081   4
   5  -7  -3 1373.90 100.378   4
   5  -7  -3 1487.37 112.259   3
   5  -7  -3 991.179 72.7558   1
   5  -7  -3 1450.46 97.3642   2
   5  -7  -2 2332.16 135.003   3
   5  -7  -2 2032.76 93.6121   1
   5  -7  -2 1954.79 117.382   4
   5  -7  -1 4289.29 186.313   3
   5  -7  -1 4348.61 168.845   4
   5  -7   0 3710.75 175.282   3
   5  -7   0 3810.33 161.604   4
   5  -7   1 1624.45 121.805   3
   5  -7   1 1545.10 103.690   4
   5  -7   2 1574.74 117.430   3
   5  -7   2 1631.23 110.905   4
   5  -7   3 225.983 51.7941   4
   5  -7   3 228.196 60.0412   3
   5  -7   4 15.1799 35.5466   4
   5  -7   4 62.1879 43.5101   3
   5  -7   5 29.9251 31.5386   4
   5  -7   5 23.5652 35.8214   3
   5  -7   6 204.223 54.8654   4
   5  -7   6 88.4476 43.1736   3
   5  -7   7 366.026 73.0322   4
   5  -7   7 281.722 68.1632   3
  -5   7  -7 337.476 62.5348   5
   5  -7   8 17.2202 37.1855   4
   5  -7   8 138.815 49.7778   3
  -5   7  -8 10.8038 58.2904   2
  -5   7  -8 63.3423 37.3224   5
   5  -7   9 73.8646 45.2227   4
  -5   7  -9 206.247 79.3289   2
  -5   7  -9 232.785 56.9760   5
   5  -7  10 878.611 112.738   4
  -5   7 -10 933.876 107.917   5
  -5   7 -10 1185.28 147.768   2
  -5   7 -11 1007.07 136.928   2
  -5   7 -11 906.054 115.003   5
  -5   7 -12 576.271 96.5988   5
  -5   7 -12 652.906 122.333   2
  -5   7 -13 66.4985 48.1524   5
   5  -6 -16 434.343 99.8678   1
   5  -6 -15 96.8410 52.3089   1
   5  -6 -14 711.729 112.566   1
   5  -6 -13 38.3168 39.0095   1
   5  -6 -12 289.677 75.2294   1
   5  -6 -11 838.708 105.504   1
   5  -6 -10 1083.75 111.059   1
   5  -6 -10 1057.46 112.249   4
   5  -6  -9 73.2499 33.4030   2
   5  -6  -9 48.1165 40.7330   1
   5  -6  -9 36.7691 38.1907   4
   5  -6  -8 179.080 39.9649   2
   5  -6  -8 239.849 47.9792   3
   5  -6  -8 190.450 53.4492   4
   5  -6  -8 145.137 48.4176   1
   5  -6  -7 227.684 42.9483   2
   5  -6  -7 324.197 53.1832   3
   5  -6  -7 355.524 58.0453   4
   5  -6  -7 415.833 65.4992   1
   5  -6  -6 2135.48 120.747   3
   5  -6  -6 1966.20 122.364   4
   5  -6  -6 1996.64 106.815   2
   5  -6  -6 1897.41 122.334   1
   5  -6  -5 267.671 53.9554   3
   5  -6  -5 246.767 49.0875   1
   5  -6  -5 211.422 46.8529   4
   5  -6  -5 265.743 43.6693   2
   5  -6  -4 2098.74 122.881   3
   5  -6  -4 2021.20 109.094   2
   5  -6  -4 1923.01 113.477   4
   5  -6  -4 1896.83 108.428   1
   5  -6  -3 2020.63 121.229   3
   5  -6  -3 1808.28 104.820   2
   5  -6  -3 1861.67 107.011   4
   5  -6  -3 1885.37 102.987   1
   5  -6  -2 3385.56 156.548   3
   5  -6  -2 3579.99 149.484   2
   5  -6  -2 3371.75 142.328   4
   5  -6  -1 4843.37 176.741   2
   5  -6  -1 4971.50 187.970   3
   5  -6  -1 4297.59 126.320   1
   5  -6  -1 4455.75 158.781   4
   5  -6   0 5227.06 194.114   3
   5  -6   0 4859.63 166.295   4
   5  -6   1 1769.00 118.627   3
   5  -6   1 1702.85 101.765   4
   5  -6   2 223.162 39.4995   4
   5  -6   2 335.639 58.3395   3
   5  -6   3 74.8537 29.0899   4
   5  -6   3 117.830 42.1013   3
   5  -6   4 52.6479 27.8869   4
   5  -6   4 101.156 44.8372   3
   5  -6   5 134.841 43.7678   4
   5  -6   5 84.8433 46.6009   3
   5  -6   6 23.9819 31.5083   4
   5  -6   6-52.3822 38.2308   3
  -5   6  -7 1710.05 119.321   5
   5  -6   7 1618.22 124.394   3
   5  -6   7 1763.10 127.915   4
   5  -6   8 821.531 94.5055   4
   5  -6   8 956.464 101.878   3
  -5   6  -8 868.334 92.8076   5
   5  -6   9 770.674 97.3114   4
   5  -6   9 992.854 106.480   3
  -5   6  -9 1132.72 127.994   2
  -5   6  -9 1007.95 101.050   5
   5  -6  10 1283.04 125.008   4
  -5   6 -10 1335.74 145.753   2
  -5   6 -10 1210.35 119.377   5
  -5   6 -11 1354.43 130.001   5
  -5   6 -11 1347.79 151.105   2
  -5   6 -12 837.593 126.510   2
  -5   6 -12 710.001 103.437   5
  -5   6 -13 301.999 92.7809   2
  -5   6 -13 387.332 85.7961   5
  -5   6 -14-1.79541 53.3250   5
   5  -5 -16 763.013 125.278   1
   5  -5 -15 412.192 87.3016   1
   5  -5 -14 318.368 77.3450   1
   5  -5 -13 232.386 71.6888   1
   5  -5 -12 101.784 53.9925   1
   5  -5 -11 364.032 74.0394   1
   5  -5 -10 78.1040 46.9348   1
   5  -5  -9 1652.64 127.952   4
   5  -5  -9 1726.43 107.944   2
   5  -5  -9 1699.32 131.293   1
   5  -5  -8 703.397 82.8831   4
   5  -5  -8 718.241 72.8998   2
   5  -5  -8 682.377 84.7379   1
   5  -5  -7 2047.56 127.708   4
   5  -5  -7 2139.22 116.174   2
   5  -5  -7 1933.51 128.838   1
   5  -5  -6 3053.38 149.779   4
   5  -5  -6 3252.64 139.138   2
   5  -5  -6 3300.10 141.554   3
   5  -5  -6 3263.38 158.155   1
   5  -5  -5 3488.87 149.468   3
   5  -5  -5 3555.76 153.351   4
   5  -5  -5 3636.82 145.843   2
   5  -5  -5 3411.07 155.034   1
   5  -5  -4 2335.59 119.180   3
   5  -5  -4 2214.56 112.532   2
   5  -5  -4 2199.84 116.655   4
   5  -5  -4 2159.39 117.161   1
   5  -5  -3 5184.06 172.641   2
   5  -5  -3 5572.54 183.785   3
   5  -5  -3 5121.73 168.441   4
   5  -5  -3 5628.24 178.166   1
   5  -5  -2 2407.56 122.516   3
   5  -5  -2 2106.38 111.314   2
   5  -5  -2 1989.15 97.4848   1
   5  -5  -2 2153.70 106.162   4
   5  -5  -1 1720.66 85.1220   1
   5  -5  -1 1715.00 108.331   3
   5  -5  -1 1895.36 108.038   2
   5  -5  -1 1682.10 92.6604   4
   5  -5   0 1289.35 92.0267   2
   5  -5   0 1219.47 92.2246   3
   5  -5   0 1343.32 81.8771   4
   5  -5   1 51.6487 26.1987   4
   5  -5   1 121.152 39.9077   3
   5  -5   2 1459.61 104.081   3
   5  -5   2 1384.96 88.4752   4
   5  -5   3 977.839 88.4544   3
   5  -5   3 813.729 69.9669   4
   5  -5   4 558.892 67.5572   3
   5  -5   4 519.252 58.3763   4
   5  -5   5 26.3494 27.4101   4
   5  -5   5 19.0022 29.6661   3
   5  -5   6 700.620 80.8521   3
   5  -5   6 746.038 75.4982   4
   5  -5   7 1273.33 107.894   4
   5  -5   7 1254.92 108.292   3
   5  -5   8 2413.33 150.133   4
  -5   5  -8 2903.11 158.138   5
   5  -5   8 2727.98 158.075   3
   5  -5   9 2773.29 164.861   4
   5  -5   9 3052.80 172.245   3
  -5   5  -9 3216.90 174.754   5
  -5   5  -9 3141.26 200.084   2
   5  -5  10 1978.90 144.388   4
   5  -5  10 1825.74 137.446   3
  -5   5 -10 2001.94 168.188   2
  -5   5 -10 1977.79 144.336   5
  -5   5 -11 1337.64 147.840   2
  -5   5 -11 1259.39 123.281   5
  -5   5 -12 801.667 103.577   5
  -5   5 -12 823.195 118.702   2
  -5   5 -13 60.1734 41.4110   5
  -5   5 -13 149.254 64.9725   2
  -5   5 -14-39.1343 46.4071   2
  -5   5 -14 132.507 66.2413   5
  -5   5 -15 150.999 67.7183   5
   5  -4 -16 215.932 74.2168   1
   5  -4 -15 36.9982 45.0601   1
   5  -4 -14 740.709 117.357   1
   5  -4 -13 636.013 103.267   1
   5  -4 -12-3.96789 40.8192   1
   5  -4 -11 358.028 74.7488   1
   5  -4 -10 869.671 106.569   1
   5  -4 -10 651.202 76.1930   2
   5  -4  -9 358.297 53.9589   2
   5  -4  -9 332.765 66.4822   1
   5  -4  -8 3237.83 174.537   1
   5  -4  -8 3423.46 153.001   2
   5  -4  -7 2635.56 113.762   3
   5  -4  -7 2452.71 137.753   4
   5  -4  -7 2622.72 129.055   2
   5  -4  -7 2794.97 153.120   1
   5  -4  -6 3706.38 159.707   4
   5  -4  -6 3870.25 152.471   2
   5  -4  -6 3775.07 171.196   1
   5  -4  -5 1727.17 99.0087   3
   5  -4  -5 1657.92 101.950   4
   5  -4  -5 1776.99 101.865   2
   5  -4  -5 1653.38 110.264   1
   5  -4  -4 2525.64 115.424   3
   5  -4  -4 2520.01 118.286   4
   5  -4  -4 2503.23 119.524   2
   5  -4  -4 2685.34 131.839   1
   5  -4  -3 2707.60 120.418   3
   5  -4  -3 2720.79 117.399   4
   5  -4  -3 2665.78 120.442   2
   5  -4  -3 2839.37 129.672   1
   5  -4  -2 953.037 76.2512   3
   5  -4  -2 826.882 70.2413   2
   5  -4  -2 837.386 67.1292   4
   5  -4  -2 894.181 69.7373   1
   5  -4  -1 1725.97 100.559   3
   5  -4  -1 1674.54 97.7130   2
   5  -4  -1 1539.75 85.0864   1
   5  -4  -1 1774.06 86.4642   4
   5  -4   0 75.2529 33.2937   3
   5  -4   0 40.0392 25.7297   2
   5  -4   0 28.9797 20.0991   4
   5  -4   1 899.464 77.3974   3
   5  -4   1 863.646 61.8448   4
   5  -4   1 963.238 78.7098   2
   5  -4   2 178.853 35.6196   4
   5  -4   2 196.525 41.3960   3
  -5   4  -3 356.212 34.6922   1
   5  -4   3 345.361 53.9283   3
   5  -4   3 317.923 42.6900   4
   5  -4   4 2695.18 138.435   3
  -5   4  -4 2655.67 91.2272   1
   5  -4   4 2834.17 123.097   4
   5  -4   5 165.641 37.3801   4
   5  -4   5 248.835 47.5731   3
   5  -4   6 551.249 71.0258   3
   5  -4   6 462.599 57.0140   4
   5  -4   7 32.5997 31.8880   4
   5  -4   7 48.9381 36.3021   3
   5  -4   8 849.006 86.4210   4
   5  -4   8 827.052 88.1314   3
   5  -4   9 1143.41 101.396   4
   5  -4   9 1518.53 120.787   3
  -5   4  -9 1673.07 125.397   5
   5  -4  10 877.113 95.5313   4
   5  -4  10 978.582 100.748   3
  -5   4 -10 925.986 113.144   2
  -5   4 -10 1035.05 106.723   5
  -5   4 -11 1132.39 129.895   2
  -5   4 -11 989.452 107.229   5
  -5   4 -12 534.285 97.3078   2
  -5   4 -12 425.896 81.0614   5
  -5   4 -13 255.644 70.4924   5
  -5   4 -13 144.094 58.0244   2
  -5   4 -14 47.1746 50.6968   5
  -5   4 -14 288.341 83.0577   2
  -5   4 -15 137.568 67.7397   2
  -5   4 -15 49.1601 60.0486   5
  -5   4 -16 66.4133 55.3745   5
   5  -3 -16 197.663 79.4308   1
   5  -3 -15 75.9993 48.9581   1
   5  -3 -14 81.6324 52.1093   1
   5  -3 -13 7.90093 40.0313   1
   5  -3 -12 27.0392 39.2774   1
   5  -3 -11 27.0022 37.9783   2
   5  -3 -11 10.2317 37.1936   1
   5  -3 -10 10.9128 27.6711   2
   5  -3 -10 2.24391 37.0003   1
   5  -3  -9 782.067 77.4072   2
   5  -3  -9 825.759 97.2768   1
   5  -3  -8 1635.15 125.668   1
   5  -3  -8 1525.92 105.121   2
   5  -3  -7 3741.87 178.549   1
   5  -3  -7 3615.15 153.371   2
   5  -3  -6 1153.45 72.4232   3
   5  -3  -6 1189.10 90.8800   4
   5  -3  -6 1292.39 104.684   1
   5  -3  -6 1205.11 88.4826   2
   5  -3  -5 3768.57 150.267   4
   5  -3  -5 3929.24 167.433   1
   5  -3  -5 3944.52 154.825   2
   5  -3  -4 3613.39 128.662   3
   5  -3  -4 3703.28 140.147   4
   5  -3  -4 3696.45 145.164   2
   5  -3  -4 3972.16 166.242   1
   5  -3  -3 371.013 48.7253   3
   5  -3  -3 443.630 56.3830   1
   5  -3  -3 418.058 52.3678   2
   5  -3  -3 398.798 47.1739   4
   5  -3  -2 25.1253 21.9384   2
   5  -3  -2-2.40091 21.0240   1
   5  -3  -2-1.07206 23.4977   3
   5  -3  -2 2.08450 20.2529   4
   5  -3  -1 2570.38 114.734   3
   5  -3  -1 2599.36 117.586   2
   5  -3  -1 2401.70 94.8708   4
   5  -3  -1 2391.84 104.395   1
   5  -3   0 140.103 34.8750   3
   5  -3   0 163.144 29.0864   4
   5  -3   0 150.172 34.3305   2
   5  -3   1 97.5605 31.3989   3
   5  -3   1 132.535 32.3854   2
   5  -3   1 63.5236 19.7705   4
   5  -3   2 678.851 67.1697   3
   5  -3   2 751.448 72.1058   2
   5  -3   2 738.666 53.2395   4
   5  -3   3 4032.90 159.427   3
   5  -3   3 3134.93 109.766   4
  -5   3  -4 383.287 38.9249   1
   5  -3   4 323.139 40.9111   4
  -5   3  -5 841.614 58.2114   1
   5  -3   5 704.468 74.9384   3
   5  -3   5 538.585 52.3105   4
  -5   3  -6 396.114 42.7444   1
   5  -3   6 171.569 34.7702   4
   5  -3   6 390.566 60.0428   3
   5  -3   7 132.119 33.8990   4
   5  -3   7 149.599 40.4966   3
   5  -3   8 367.065 54.1521   4
   5  -3   8 340.168 62.8188   3
   5  -3   9 843.710 81.2775   4
   5  -3   9 1059.44 97.9226   3
   5  -3  10 741.720 80.7690   4
   5  -3  10 736.509 88.3860   3
  -5   3 -10 711.443 87.3895   5
   5  -3  11 287.070 58.4938   3
  -5   3 -11 277.303 64.9457   2
  -5   3 -11 327.296 70.4206   5
  -5   3 -12 242.817 64.4581   5
  -5   3 -12 270.521 72.6496   2
  -5   3 -13 25.5699 40.2221   5
  -5   3 -13 57.8120 51.5912   2
  -5   3 -14 40.2693 42.2183   2
  -5   3 -14 45.7918 44.8062   5
  -5   3 -15 90.7673 64.0694   5
  -5   3 -16-22.4082 56.3853   5
  -5   3 -17-132.062 78.0288   5
   5  -2 -16 100.554 66.8267   1
   5  -2 -15 1.89133 42.7334   1
   5  -2 -14 38.9339 50.2155   1
   5  -2 -13 45.2835 48.8234   1
   5  -2 -12-33.4512 40.1437   2
   5  -2 -12-30.9323 44.5847   1
   5  -2 -11 313.427 61.3237   2
   5  -2 -11 328.037 69.2203   1
   5  -2 -10 175.555 44.4101   2
   5  -2 -10 174.684 54.5066   1
   5  -2  -9 358.497 61.1118   2
   5  -2  -9 295.624 63.3689   1
   5  -2  -8 1656.35 114.551   2
   5  -2  -8 1441.50 119.875   1
   5  -2  -7 2611.54 151.726   1
   5  -2  -7 2500.03 132.664   2
   5  -2  -6 1132.79 95.8562   1
   5  -2  -6 1199.38 89.3161   2
   5  -2  -5 478.296 47.2250   3
   5  -2  -5 486.770 66.3862   1
   5  -2  -5 400.364 53.9557   2
   5  -2  -4 254.200 42.8386   2
   5  -2  -4 236.210 38.7580   4
   5  -2  -4 327.952 54.5066   1
   5  -2  -4 183.826 32.0547   3
   5  -2  -3 147.471 38.1061   2
   5  -2  -3 118.797 33.7212   1
   5  -2  -3 125.644 31.7718   3
   5  -2  -3 115.391 26.2854   4
   5  -2  -2 839.121 61.8586   3
   5  -2  -2 838.784 70.2744   2
   5  -2  -2 792.878 56.8132   4
   5  -2  -2 829.020 68.8621   1
   5  -2  -1-7.85172 19.8016   1
   5  -2  -1-11.4575 23.0970   2
   5  -2  -1 6.25444 27.4281   3
   5  -2  -1 15.5078 15.9317   4
   5  -2   0-1.50112 22.4818   2
   5  -2   0 3.72259 24.8007   3
   5  -2   0 21.7541 17.4111   4
   5  -2   1 553.592 61.6098   3
   5  -2   1 509.213 56.6272   2
   5  -2   1 472.875 37.8355   4
   5  -2   2 2356.64 115.018   3
   5  -2   2 2395.93 115.539   2
   5  -2   2 2186.91 75.2595   4
   5  -2   3 2434.43 121.486   3
   5  -2   3 2818.66 129.273   2
   5  -2   3 2553.97 86.3805   4
   5  -2   4 1429.92 97.0391   3
   5  -2   4 1494.70 70.7361   4
  -5   2  -4 1584.61 81.9973   1
   5  -2   5 4734.33 176.929   3
  -5   2  -5 4778.24 139.743   1
   5  -2   6 726.696 59.3576   4
  -5   2  -6 1113.24 71.7659   1
   5  -2   6 1088.76 87.5920   3
   5  -2   7 1943.09 121.009   3
  -5   2  -7 1775.54 94.3775   1
   5  -2   8 181.638 39.3249   4
   5  -2   8 150.569 41.9005   3
  -5   2  -8 112.130 27.5834   1
   5  -2   9 116.313 37.6424   4
   5  -2   9 175.279 50.3028   3
   5  -2  10 1458.85 116.037   3
  -5   2 -10 1640.82 123.004   5
   5  -2  11 574.070 79.1780   3
  -5   2 -11 738.960 92.4348   5
  -5   2 -11 875.276 107.287   2
  -5   2 -12 88.0996 52.8024   2
   5  -2  12 112.465 43.2608   3
  -5   2 -12 62.7204 48.7170   5
  -5   2 -13 61.1097 44.0247   2
  -5   2 -13 33.5019 37.8372   5
  -5   2 -14 87.8602 55.4119   5
  -5   2 -14 62.1966 55.7577   2
  -5   2 -15 144.816 62.3536   5
  -5   2 -16 130.026 63.6508   5
  -5   2 -17 10.4043 54.3553   5
   5  -1 -15 9.45902 46.6689   1
   5  -1 -14 110.501 56.2969   1
   5  -1 -13 124.867 60.0632   1
   5  -1 -12 9.46294 33.8865   2
   5  -1 -12 40.4585 43.9610   1
   5  -1 -11 113.865 40.1374   2
   5  -1 -11 266.550 69.3039   1
   5  -1 -10 76.6775 35.2437   2
   5  -1 -10 45.4951 36.5058   1
   5  -1  -9 2856.05 159.726   2
   5  -1  -9 2832.25 175.403   1
   5  -1  -8 3830.75 177.075   2
   5  -1  -8 3930.93 194.800   1
   5  -1  -7 2374.85 134.332   2
   5  -1  -7 2243.20 143.342   1
   5  -1  -6 471.427 61.8932   2
   5  -1  -6 511.259 71.5649   1
   5  -1  -5 1262.61 101.543   1
   5  -1  -5 1243.96 94.0974   2
   5  -1  -4-35.1435 29.3346   1
   5  -1  -4 17.5314 22.8901   2
   5  -1  -4-1.56416 14.3948   3
   5  -1  -3 2826.31 100.142   3
   5  -1  -3 2885.47 134.816   1
   5  -1  -3 2799.72 127.316   2
   5  -1  -2 1119.78 65.4833   3
   5  -1  -2 1129.62 65.8897   4
   5  -1  -2 1152.93 84.1842   1
   5  -1  -2 1286.63 85.3558   2
   5  -1  -1 50.0807 22.3696   1
   5  -1  -1 83.0320 30.0978   2
   5  -1  -1 98.3020 28.4950   3
   5  -1  -1 84.6412 22.2687   4
   5  -1   0 450.263 52.6351   2
   5  -1   0 470.023 49.4019   3
   5  -1   0 374.553 31.9946   4
   5  -1   1 1233.66 79.0121   3
   5  -1   1 1032.36 45.1802   4
   5  -1   1 1029.97 73.6218   2
   5  -1   2 4769.56 155.998   3
   5  -1   2 5174.80 162.772   2
   5  -1   2 4641.96 90.2412   4
   5  -1   3 12429.9 260.828   3
   5  -1   3 12704.3 257.376   2
   5  -1   3 11564.0 148.314   4
  -5   1  -4 7548.12 183.635   1
   5  -1   4 6964.22 202.254   3
   5  -1   4 7557.44 207.738   2
   5  -1   4 6398.22 123.246   4
   5  -1   5 4884.70 175.870   3
  -5   1  -5 4896.17 148.459   1
   5  -1   5 4522.70 117.473   4
   5  -1   6 323.779 36.6926   4
  -5   1  -6 288.717 39.9377   1
   5  -1   6 389.539 56.9447   3
   5  -1   7 2662.48 107.462   4
  -5   1  -7 3023.97 127.350   1
   5  -1   7 2720.81 142.163   3
   5  -1   8 3595.97 138.278   4
   5  -1   8 4067.39 175.445   3
  -5   1  -8 3765.41 148.136   1
   5  -1   9 2106.93 113.097   4
  -5   1  -9 2284.63 120.914   1
   5  -1   9 2204.37 134.350   3
   5  -1  10 144.607 45.2317   3
  -5   1 -10 104.725 34.2382   1
   5  -1  11 286.549 60.7945   3
  -5   1 -11 278.775 59.3739   5
   5  -1  12 122.277 53.8529   3
  -5   1 -12 19.2168 36.4410   2
  -5   1 -12 95.0772 50.2834   5
  -5   1 -13 161.866 52.8477   2
  -5   1 -13 326.233 77.0499   5
  -5   1 -14 96.2161 49.7890   5
  -5   1 -15 993.035 128.010   5
  -5   1 -16 271.757 84.7252   5
  -5   1 -17 147.834 67.3926   5
  -5   1 -18 152.858 70.2415   5
   5   0 -15 48.0752 41.6072   1
   5   0 -14 43.9422 48.8620   1
   5   0 -13-42.3053 48.3233   1
   5   0 -13-57.5015 40.8022   2
   5   0 -12 375.339 78.2676   1
   5   0 -12 238.083 59.8481   2
   5   0 -11 33.1241 39.7157   1
   5   0 -11 82.3272 41.0889   2
   5   0 -10 1158.95 111.525   2
   5   0 -10 947.421 106.123   1
   5   0  -9 399.310 63.5982   2
   5   0  -9 532.651 81.7421   1
   5   0  -8 1611.08 120.815   2
   5   0  -8 1643.96 131.175   1
   5   0  -7 2129.66 132.351   2
   5   0  -7 2371.97 150.828   1
   5   0  -6 1498.74 108.177   2
   5   0  -6 1950.68 134.279   1
   5   0  -5-20.2423 36.0528   1
   5   0  -5 29.7332 26.9091   2
   5   0  -4 282.847 31.0453   3
   5   0  -4 256.672 42.7599   2
   5   0  -4 334.108 57.2264   1
   5   0  -3 159.178 36.9278   2
   5   0  -3 192.583 42.5069   1
   5   0  -3 114.449 24.1018   3
   5   0  -2 10.3542 22.0756   1
   5   0  -2 32.2700 29.9058   2
   5   0  -2 17.8674 16.9908   3
   5   0  -1 8.95758 22.1842   2
   5   0  -1 33.4812 24.1856   3
   5   0  -1 18.9025 23.5923   1
   5   0   0 40.1764 29.3746   2
   5   0   0 37.7823 21.4669   3
   5   0   1 3372.63 125.998   3
   5   0   1 3179.05 68.5920   4
   5   0   1 3517.59 133.343   2
   5   0   2 8655.02 205.421   3
   5   0   2 8596.53 203.826   2
   5   0   3 1931.44 103.692   3
   5   0   3 1833.78 98.1306   2
  -5   0  -4 13655.2 253.207   1
   5   0   4 12650.1 270.218   3
   5   0   4 13168.7 259.391   2
   5   0   5 1270.56 52.6438   4
   5   0   5 1350.05 93.2032   3
   5   0   5 1545.56 96.4590   2
  -5   0  -5 1435.77 85.5225   1
   5   0   6 785.560 48.2377   4
   5   0   6 823.244 77.1255   3
  -5   0  -6 987.497 73.1176   1
   5   0   7 987.230 61.6624   4
  -5   0  -7 1095.43 80.8478   1
   5   0   7 1129.44 93.3963   3
   5   0   8-3.55335 20.0497   4
  -5   0  -8 44.6112 26.9989   1
   5   0   8 32.8781 34.0606   3
   5   0   9 488.177 64.6516   3
  -5   0  -9 555.734 64.9469   1
   5   0  10 1064.82 102.010   3
  -5   0 -10 1118.46 92.8413   1
  -5   0 -11 306.534 62.1564   5
   5   0  11 403.376 73.1956   3
  -5   0 -11 278.948 53.6909   1
   5   0  12 654.850 85.4506   3
  -5   0 -12 667.398 89.3320   2
  -5   0 -12 757.228 91.9511   5
   5   0  13 43.8087 40.4127   3
  -5   0 -13 35.1077 38.7999   5
  -5   0 -13-16.9275 37.3297   2
  -5   0 -14 1603.63 145.106   5
  -5   0 -15 2082.42 170.766   5
  -5   0 -16 266.497 80.0870   5
  -5   0 -17 319.951 84.2467   5
  -5   0 -18 107.639 65.6530   5
   5   1 -15 131.539 61.4237   1
  -5  -1  14 154.120 65.4076   4
   5   1 -14 132.885 56.3994   1
  -5  -1  13 279.384 78.8197   4
   5   1 -13 244.852 71.0657   1
   5   1 -13 390.748 80.1363   2
   5   1 -12 597.265 93.9763   2
  -5  -1  12 770.275 122.600   4
   5   1 -12 950.391 123.238   1
   5   1 -11 173.664 65.7211   1
   5   1 -11 118.927 45.0882   2
   5   1 -10 1250.45 121.550   2
   5   1 -10 1448.15 138.227   1
   5   1  -9 3434.73 188.771   2
   5   1  -9 3539.48 205.205   1
   5   1  -8 1629.08 126.656   2
   5   1  -8 1535.84 131.568   1
   5   1  -7 321.529 57.6143   1
   5   1  -7 376.203 61.6210   2
   5   1  -6 236.298 52.6822   1
   5   1  -6 237.574 51.3108   2
   5   1  -5-5.16732 26.0663   1
   5   1  -5-0.09503 30.9990   2
   5   1  -4 5.34492 29.7461   1
   5   1  -4 1.48985 25.0130   2
   5   1  -3 2662.20 131.743   2
   5   1  -3 2584.18 82.3520   3
   5   1  -3 2834.33 136.904   1
   5   1  -2 1103.33 60.0038   3
   5   1  -2 1124.71 85.0151   1
   5   1  -2 1080.56 82.6543   2
   5   1  -1 610.963 48.3896   3
   5   1  -1 606.661 63.4156   1
   5   1  -1 577.363 61.1421   2
   5   1   0 120.276 31.6569   2
   5   1   0 151.864 30.8912   3
   5   1   1 1791.23 95.8360   2
   5   1   1 1705.89 85.6610   3
   5   1   2 12028.0 236.197   3
   5   1   2 12796.1 248.565   2
   5   1   3 15869.6 285.782   3
   5   1   3 16078.3 273.430   2
   5   1   4 4372.89 157.033   3
   5   1   4 4472.65 147.175   2
   5   1   5 602.614 66.5323   3
   5   1   5 466.289 53.4079   2
  -5  -1  -5 511.320 56.3460   1
   5   1   6 819.779 42.7951   4
   5   1   6 1100.80 90.5497   3
  -5  -1  -6 907.658 73.3404   1
   5   1   6 1023.28 78.1154   2
   5   1   7 572.093 43.0580   4
  -5  -1  -7 533.436 57.0799   1
   5   1   7 582.091 69.3102   3
   5   1   8 153.961 45.9314   3
  -5  -1  -8 160.005 37.3776   1
  -5  -1  -9 34.5298 25.8964   1
   5   1   9 117.143 42.8117   3
   5   1  10 1003.65 93.2766   3
  -5  -1 -10 902.168 86.9521   1
   5   1  11 167.406 44.0776   3
  -5  -1 -11 121.883 42.6603   1
   5   1  12 1227.83 111.526   3
  -5  -1 -12 1191.82 105.833   1
  -5  -1 -12 1361.10 118.720   5
   5   1  13 879.358 98.0184   3
  -5  -1 -13 873.312 96.2018   1
  -5  -1 -13 828.771 100.700   5
   5   1  14 880.327 101.271   3
  -5  -1 -14 1121.74 119.207   5
  -5  -1 -15 1027.87 122.017   5
  -5  -1 -16 361.120 83.9279   5
  -5  -1 -17 197.536 69.7833   5
  -5  -1 -18 239.050 75.9312   5
  -5  -1 -19 51.8393 58.5497   5
   5   2 -14 97.8011 59.0540   2
  -5  -2  13 675.280 111.531   4
   5   2 -13 546.498 95.3978   2
  -5  -2  12 467.332 96.0434   4
   5   2 -12 416.705 84.2424   1
   5   2 -12 471.499 85.6372   2
  -5  -2  11 55.6231 47.4392   4
   5   2 -11 140.644 64.9090   1
   5   2 -10 744.964 102.203   2
  -5  -2  10 632.400 100.858   4
   5   2 -10 673.664 96.1817   1
   5   2  -9 1090.24 115.040   2
  -5  -2   9 971.969 110.765   4
   5   2  -9 1207.26 122.784   1
   5   2  -8 1386.35 122.831   2
   5   2  -8 1419.71 124.268   1
   5   2  -7 742.058 88.8933   2
   5   2  -7 748.399 88.1661   1
   5   2  -6 3.65336 27.7878   1
   5   2  -6-45.5910 36.7259   2
   5   2  -5 2088.86 132.054   2
   5   2  -5 2105.10 131.015   1
   5   2  -4 2152.73 129.899   2
   5   2  -4 2408.12 135.208   1
   5   2  -3 558.120 61.7197   2
   5   2  -3 647.340 67.9013   1
   5   2  -2 6790.81 208.193   2
   5   2  -2 6229.33 133.401   3
   5   2  -2 6870.60 208.613   1
   5   2  -1 5000.81 169.919   2
   5   2  -1 5038.71 128.874   3
   5   2  -1 5261.38 178.617   1
   5   2   0 1899.77 84.0440   3
   5   2   0 1956.37 103.380   2
  -5  -2  -1 756.944 37.6439   4
   5   2   1 818.307 62.7625   3
   5   2   1 669.092 62.3065   2
   5   2   2 6821.23 180.729   3
   5   2   2 7094.21 187.077   2
   5   2   3 13774.2 265.031   3
   5   2   3 13898.1 255.809   2
   5   2   4 7086.04 180.378   2
   5   2   4 6889.58 194.973   3
  -5  -2  -5 1529.33 94.8472   1
   5   2   5 1659.30 90.5011   2
   5   2   5 1564.72 99.3065   3
   5   2   6 220.012 48.6901   3
  -5  -2  -6 237.742 43.0592   1
   5   2   6 261.388 40.6241   2
  -5  -2  -7 135.409 33.7194   1
   5   2   7 134.324 41.2704   3
   5   2   7 101.953 29.8647   2
   5   2   8 226.079 47.6631   3
  -5  -2  -8 126.767 34.2181   1
  -5  -2  -9 190.538 44.8048   1
   5   2   9 299.813 58.2597   3
  -5  -2 -10 30.7899 25.2124   1
   5   2  10 22.1292 34.9148   3
   5   2  11 57.7962 41.5510   3
  -5  -2 -11 90.2957 36.5837   1
   5   2  12 537.248 75.4647   3
  -5  -2 -12 645.510 79.6954   1
  -5  -2 -12 565.063 77.8786   5
   5   2  13 2907.68 170.431   3
  -5  -2 -13 2738.21 166.783   1
  -5  -2 -13 2838.59 171.029   5
   5   2  14 2963.03 177.412   3
  -5  -2 -14 3316.68 191.700   1
  -5  -2 -14 2702.25 177.361   5
  -5  -2 -15 66.8501 36.3209   1
  -5  -2 -15 130.581 53.1571   5
  -5  -2 -16 460.927 92.1355   5
  -5  -2 -17 248.858 74.4154   5
  -5  -2 -18 40.5771 58.1350   5
  -5  -2 -19-94.8418 65.2578   5
  -5  -3  13 408.527 99.5562   4
   5   3 -13 405.011 87.1985   2
   5   3 -12 363.506 81.1046   1
  -5  -3  12 181.345 66.3988   4
   5   3 -12 360.311 79.9362   2
   5   3 -11 339.755 71.5511   1
  -5  -3  11 415.127 85.5590   4
   5   3 -11 476.236 85.9842   2
   5   3 -10 84.9100 47.3055   1
  -5  -3  10 110.392 54.5415   4
   5   3 -10 102.877 53.6899   2
  -5  -3   9 1023.26 118.163   4
   5   3  -9 1077.95 120.184   2
   5   3  -9 1099.28 114.388   1
  -5  -3   8 935.337 110.325   4
   5   3  -8 813.891 102.255   2
   5   3  -8 1049.92 109.029   1
   5   3  -7 118.685 43.6702   1
  -5  -3   7 220.953 55.4140   4
   5   3  -7 155.048 57.5606   2
   5   3  -6 42.2322 31.9878   1
  -5  -3   6 65.2251 42.4616   4
   5   3  -6 13.1553 33.4275   2
   5   3  -5 1675.13 123.528   2
  -5  -3   5 1949.81 125.503   4
   5   3  -5 1769.26 120.231   1
   5   3  -4 2313.40 137.060   2
  -5  -3   4 2235.99 127.077   4
   5   3  -4 2456.87 137.216   1
   5   3  -3 1587.77 110.262   2
  -5  -3   3 1509.56 97.1284   4
   5   3  -3 1584.77 107.835   1
   5   3  -2 450.387 59.5855   2
  -5  -3   2 554.062 56.8175   4
   5   3  -2 447.041 38.1849   3
   5   3  -2 473.193 60.2428   1
   5   3  -1 4905.49 177.377   2
  -5  -3   1 4687.68 140.583   4
   5   3  -1 4742.15 126.083   3
  -5  -3   0 85.0560 23.7172   4
   5   3   0 68.8252 27.8147   2
   5   3   0 71.7141 23.0746   3
  -5  -3  -1 1389.42 59.6842   4
   5   3   1 1395.71 76.9664   3
   5   3   1 1441.97 90.0713   2
   5   3   2 7518.35 183.698   3
   5   3   2 7833.99 197.613   2
  -5  -3  -2 6872.28 108.913   4
   5   3   3 6865.17 185.695   3
   5   3   3 7545.33 190.819   2
   5   3   4 187.997 34.4328   2
   5   3   4 225.666 42.7164   3
  -5  -3  -5 5102.40 178.684   1
   5   3   5 4598.38 163.909   3
   5   3   5 4800.81 147.406   2
   5   3   6 202.492 45.5457   3
   5   3   6 300.376 41.3072   2
  -5  -3  -6 269.942 45.7202   1
   5   3   7 617.514 56.7128   2
  -5  -3  -7 581.329 65.3570   1
   5   3   7 546.257 66.8700   3
   5   3   8 265.383 49.6186   3
  -5  -3  -8 243.762 45.0608   1
   5   3   9 137.339 44.1254   3
  -5  -3  -9 143.073 36.6687   1
  -5  -3 -10 196.004 49.4735   1
   5   3  10 141.750 50.8660   3
  -5  -3 -11 7.86820 31.0200   1
   5   3  11 44.2659 36.3372   3
   5   3  12 12.0584 41.3834   3
  -5  -3 -12 100.548 39.9639   5
  -5  -3 -12 67.0622 37.1640   1
   5   3  13 1970.67 143.775   3
  -5  -3 -13 2066.13 145.833   1
  -5  -3 -13 2021.19 144.799   5
   5   3  14 649.406 89.4245   3
  -5  -3 -14 870.267 104.515   1
  -5  -3 -14 878.665 102.416   5
   5   3  15 817.950 102.103   3
  -5  -3 -15 1078.03 118.920   1
  -5  -3 -15 1099.74 119.555   5
  -5  -3 -16 180.241 57.2128   1
  -5  -3 -16 331.732 74.0635   5
  -5  -3 -17-28.8911 45.3581   5
  -5  -3 -18 254.828 76.7983   5
  -5  -3 -19 148.149 67.6355   5
   5   4 -13 460.762 92.4368   2
  -5  -4  12 171.000 65.6224   4
   5   4 -12 121.539 59.8462   2
  -5  -4  11 389.892 90.1517   4
   5   4 -11 188.224 63.8314   2
   5   4 -10 190.006 53.8034   1
  -5  -4  10 331.284 86.2123   4
   5   4 -10 425.143 87.8504   2
   5   4  -9 251.768 54.8028   1
  -5  -4   9 150.630 60.1061   4
   5   4  -9 188.249 62.9672   2
  -5  -4   8 1021.85 114.780   4
   5   4  -8 766.417 99.7187   2
   5   4  -8 1031.80 106.053   1
   5   4  -7 47.9017 41.3110   1
  -5  -4   7 61.8498 49.9622   4
   5   4  -7 39.6943 39.6566   2
   5   4  -6 67.6335 34.3751   1
  -5  -4   6 113.281 45.8529   4
   5   4  -6 107.720 47.4016   2
   5   4  -5 338.192 53.1857   1
  -5  -4   5 386.661 63.8471   4
   5   4  -5 156.925 53.4595   2
  -5  -4   4 2795.38 145.189   4
   5   4  -4 2948.79 162.419   2
   5   4  -4 3130.55 157.164   1
  -5  -4   3 2344.76 127.214   4
   5   4  -3 2048.08 132.353   2
   5   4  -3 2506.74 136.550   1
  -5  -4   2 319.768 51.1982   4
   5   4  -2 262.461 50.2688   2
  -5  -4   1 13.0872 21.7248   4
   5   4  -1-1.38817 24.3892   2
   5   4  -1 29.9088 18.9615   3
   5   4   0 555.610 62.1155   2
  -5  -4   0 565.243 50.1284   4
   5   4   0 414.124 43.3049   3
  -5  -4  -1 83.4725 21.4553   4
   5   4   1 129.126 33.8009   2
   5   4   1 130.917 29.3518   3
   5   4   2 11578.5 234.123   3
   5   4   2 11844.1 249.139   2
  -5  -4  -2 11313.9 166.599   4
   5   4   3 2541.90 111.729   2
   5   4   3 2711.74 120.318   3
  -5  -4  -3 2295.31 64.6808   4
   5   4   4 561.989 60.9165   3
   5   4   4 455.459 49.8373   2
  -5  -4  -5 229.873 46.7183   1
   5   4   5 271.672 48.9991   3
   5   4   5 325.220 43.7854   2
  -5  -4  -6 20.3853 26.5048   1
   5   4   6-3.38829 29.1835   3
   5   4   6 9.52272 18.1953   2
   5   4   7 980.427 89.0564   3
  -5  -4  -7 966.629 82.9508   1
   5   4   7 1034.74 69.9807   2
  -5  -4  -8 1268.75 96.7189   1
   5   4   8 1084.82 94.2703   3
   5   4   8 1283.31 78.4016   2
  -5  -4  -9 414.615 65.4787   1
   5   4   9 303.859 59.0281   3
  -5  -4 -10 82.4412 32.9800   1
   5   4  10 70.4909 45.0745   3
  -5  -4 -11 64.8396 31.4000   1
   5   4  11 185.506 55.3510   3
   5   4  12 613.367 84.6113   3
  -5  -4 -12 493.885 74.9122   1
   5   4  13 1265.67 120.211   3
  -5  -4 -13 1341.49 124.924   1
  -5  -4 -13 1428.36 118.651   5
   5   4  14 477.491 82.5237   3
  -5  -4 -14 450.878 80.9220   1
  -5  -4 -14 565.083 81.6100   5
  -5  -4 -15 577.880 88.0718   5
  -5  -4 -15 685.246 96.3608   1
   5   4  15 552.452 90.0933   3
  -5  -4 -16 626.449 100.359   1
  -5  -4 -16 324.783 77.0336   5
  -5  -4 -17 191.253 64.6947   1
  -5  -4 -17 85.4550 54.7366   5
  -5  -4 -18 15.9283 38.8103   1
  -5  -4 -18-4.41031 47.3981   5
  -5  -4 -19 186.400 70.7142   5
  -5  -4 -20-42.9696 56.0742   5
  -5  -5  12 736.918 119.171   4
   5   5 -12 226.691 74.2998   2
  -5  -5  11 60.2420 44.8693   4
   5   5 -11 112.550 63.5465   2
  -5  -5  10-11.5514 43.9530   4
   5   5 -10 57.0529 47.9858   2
   5   5  -9 94.6026 42.9530   1
  -5  -5   9 51.0399 57.6100   4
   5   5  -9 71.8598 43.7195   2
  -5  -5   8 191.684 61.7209   4
   5   5  -8 196.303 53.0246   1
   5   5  -8 150.942 59.0012   2
   5   5  -7-12.4342 30.1570   1
   5   5  -7 82.5413 46.4845   2
   5   5  -6 500.208 84.0620   2
  -5  -5   6 512.197 78.2162   4
   5   5  -6 475.710 71.2393   1
  -5  -5   5 601.046 78.4266   4
   5   5  -5 457.882 76.8039   2
   5   5  -5 515.014 71.1468   1
  -5  -5   4 2473.11 143.245   4
   5   5  -4 2287.70 147.020   2
   5   5  -4 2501.65 143.637   1
  -5  -5   3 891.954 82.8970   4
   5   5  -3 880.986 90.4174   2
   5   5  -3 896.764 84.4534   1
  -5  -5   2-0.32607 25.0871   4
   5   5  -2 8.11232 31.7051   2
  -5  -5   1 35.4314 21.6372   4
   5   5  -1 36.5540 43.9225   2
  -5  -5   0 18.5159 21.2243   4
   5   5   0 7.27225 31.5527   2
   5   5   0 8.30520 17.3108   3
  -5  -5  -1 2322.17 97.5378   4
   5   5   1 2524.02 126.397   2
   5   5   1 2396.55 105.132   3
   5   5   2 4118.82 153.933   2
   5   5   2 4025.59 139.955   3
   5   5   3 526.347 57.7446   3
  -5  -5  -3 412.791 35.4356   4
   5   5   3 454.621 52.4574   2
   5   5   4 10.4147 18.7482   2
   5   5   4-13.2993 28.9291   3
  -5  -5  -4 4.79493 10.4744   4
  -5  -5  -5 563.391 66.1241   1
   5   5   5 609.557 65.1490   3
  -5  -5  -5 556.326 34.8304   4
   5   5   5 580.402 54.8358   2
   5   5   6 38.8503 19.3911   2
  -5  -5  -6 89.4741 35.2514   1
   5   5   6 67.2824 34.7145   3
  -5  -5  -7 229.621 43.8138   1
   5   5   7 148.429 41.5439   3
   5   5   7 209.495 35.1866   2
  -5  -5  -8 97.5105 33.3480   1
   5   5   8 72.3866 41.8621   3
   5   5   8 100.984 27.1045   2
  -5  -5  -9 563.167 70.4534   1
   5   5   9 639.362 80.4751   3
  -5  -5 -10 0.00000 32.0076   1
   5   5  10 33.4396 40.2632   3
  -5  -5 -11 30.4046 36.4861   1
   5   5  11 80.7117 46.2285   3
  -5  -5 -12 1579.64 126.010   1
   5   5  12 1712.32 131.120   3
  -5  -5 -13 1181.94 117.520   1
   5   5  13 1384.67 122.790   3
  -5  -5 -13 1473.81 117.598   5
   5   5  14 1384.00 126.005   3
  -5  -5 -14 1276.36 127.411   1
  -5  -5 -14 1141.92 109.775   5
   5   5  15 742.336 102.544   3
  -5  -5 -15 1001.18 121.141   1
  -5  -5 -15 936.630 107.381   5
  -5  -5 -16 186.851 68.0487   1
   5   5  16 71.1348 50.6467   3
  -5  -5 -16 123.348 52.9313   5
  -5  -5 -17 114.535 59.9218   1
  -5  -5 -17 2.88197 39.3254   5
  -5  -5 -18 79.8904 55.5933   5
  -5  -5 -18 20.7825 41.3767   1
  -5  -5 -19 83.7473 59.1244   1
  -5  -5 -19-16.1185 52.3449   5
  -5  -5 -20-10.9663 50.8197   5
  -5  -6  11 36.1973 50.4859   4
   5   6 -11 62.9846 60.9700   2
  -5  -6  10-38.8146 46.1156   4
   5   6 -10 223.923 71.1130   2
  -5  -6   9 102.659 53.3907   4
   5   6  -9 84.3872 58.8980   2
  -5  -6   8-28.4196 43.3323   4
   5   6  -8 75.3795 54.0443   2
  -5  -6   7 200.882 62.5711   4
   5   6  -7 174.344 58.0841   2
   5   6  -7 113.997 41.6797   1
  -5  -6   6 459.159 79.5769   4
   5   6  -6 446.021 78.4782   2
   5   6  -6 536.474 75.4810   1
  -5  -6   5 1524.96 124.452   4
   5   6  -5 1230.07 119.047   2
   5   6  -5 1685.89 125.697   1
  -5  -6   4 4078.64 192.658   4
   5   6  -4 3537.59 186.423   2
   5   6  -3 511.147 77.9112   2
  -5  -6   3 488.677 70.3791   4
  -5  -6   2 676.133 71.7868   4
   5   6  -2 657.353 79.6302   2
  -5  -6   1 800.332 72.7312   4
   5   6  -1 886.430 87.9525   2
  -5  -6   0 712.922 66.0660   4
   5   6   0 674.936 75.0760   2
   5   6   0 781.680 59.4868   3
  -5  -6  -1 998.568 73.7351   4
   5   6   1 994.403 86.4641   2
   5   6   1 637.869 57.8260   3
   5   6   2 825.921 72.9755   2
   5   6   2 630.725 59.6915   3
  -5  -6  -2 760.777 57.5223   4
   5   6   3 396.032 52.4350   2
   5   6   3 398.757 50.5684   3
  -5  -6  -3 252.185 32.6048   4
   5   6   4 1287.56 91.0673   3
  -5  -6  -4 1090.61 61.2592   4
   5   6   4 1257.81 83.1656   2
  -5  -6  -5 504.234 66.8448   1
   5   6   5 466.876 58.9151   3
   5   6   5 518.322 53.6196   2
  -5  -6  -5 488.008 39.2188   4
   5   6   6 1287.36 95.8690   3
  -5  -6  -6 1395.11 101.705   1
   5   6   6 1347.30 79.4622   2
   5   6   7 372.515 43.8730   2
  -5  -6  -7 295.787 51.6268   1
   5   6   7 361.065 60.6540   3
  -5  -6  -8 1985.45 124.622   1
   5   6   8 1983.02 128.013   3
   5   6   8 1681.93 84.5628   2
  -5  -6  -9 572.398 74.4504   1
   5   6   9 614.337 77.9359   3
  -5  -6 -10 138.576 50.5619   1
   5   6  10 143.609 45.6835   3
   5   6  11 967.430 102.668   3
  -5  -6 -11 1000.62 101.904   1
   5   6  12 3247.86 183.339   3
  -5  -6 -12 2889.85 174.921   1
  -5  -6 -13 1784.58 141.493   1
   5   6  13 1709.39 137.291   3
  -5  -6 -13 1795.65 126.379   5
   5   6  14 1605.25 137.378   3
  -5  -6 -14 1657.59 145.530   1
  -5  -6 -14 1698.51 130.499   5
   5   6  15 220.274 63.9971   3
  -5  -6 -15 240.292 67.3166   1
  -5  -6 -15 164.683 53.8003   5
  -5  -6 -16 59.3984 54.9278   1
   5   6  16 58.2912 41.9113   3
  -5  -6 -16 84.2771 48.2414   5
  -5  -6 -17 122.979 56.8665   1
   5   6  17 53.6031 50.9698   3
  -5  -6 -17 158.939 63.9929   5
  -5  -6 -18 53.6552 50.7362   1
  -5  -6 -18-24.7152 45.1814   5
  -5  -6 -19 218.714 78.9466   1
  -5  -6 -19 342.109 88.6784   5
  -5  -6 -20 98.1540 54.2690   5
  -5  -7  10 67.8210 53.2813   4
   5   7 -10 70.7633 63.9706   2
  -5  -7   9 132.151 59.8296   4
   5   7  -9 171.686 64.4401   2
  -5  -7   8-34.5281 46.0020   4
   5   7  -8 24.8165 44.0343   2
  -5  -7   7 288.994 71.1479   4
   5   7  -7 330.996 76.6905   2
  -5  -7   6 332.695 71.7376   4
   5   7  -6 351.969 77.3913   2
  -5  -7   5 2299.55 159.962   4
   5   7  -5 2058.79 159.568   2
  -5  -7   4 1340.97 119.117   4
   5   7  -4 1315.33 122.741   2
  -5  -7   3 1447.25 115.206   4
   5   7  -3 1400.70 119.216   2
  -5  -7   2 732.158 81.6585   4
   5   7  -2 662.806 83.9302   2
  -5  -7   1 680.589 70.2140   4
   5   7  -1 534.743 74.4775   2
  -5  -7   0 640.385 68.2252   4
   5   7   0 767.185 82.5574   2
   5   7   1 2321.04 134.947   2
  -5  -7  -1 2484.35 122.647   4
  -5  -7  -2 164.201 32.1592   4
   5   7   2 200.905 37.9643   2
   5   7   2 123.460 33.5155   3
   5   7   3 567.410 65.2285   2
   5   7   3 478.392 60.4815   3
  -5  -7  -3 555.206 54.4084   4
  -5  -7  -4 12.4071 16.6150   4
   5   7   4 6.69192 21.0092   2
  -5  -7  -4-3.65292 26.2654   1
   5   7   4 22.8377 28.1888   3
  -5  -7  -5 361.095 59.0308   1
   5   7   5 445.815 61.5956   3
  -5  -7  -5 488.562 44.7722   4
   5   7   5 369.014 46.3521   2
   5   7   6 1204.02 96.9619   3
  -5  -7  -6 1255.63 99.8827   1
  -5  -7  -6 1284.55 71.7493   4
   5   7   6 1207.75 76.9717   2
   5   7   7 4798.50 190.855   3
  -5  -7  -7 4618.99 188.953   1
  -5  -7  -8 2557.45 143.338   1
   5   7   8 2649.22 148.785   3
  -5  -7  -9 710.283 82.5266   1
   5   7   9 809.021 88.8006   3
   5   7  10 24.9789 38.9524   3
  -5  -7 -10 43.8080 33.7100   1
  -5  -7 -11 1883.40 137.676   1
   5   7  11 1978.52 142.569   3
  -5  -7 -12 577.853 80.0228   1
   5   7  12 587.816 88.5995   3
   5   7  13 1611.69 137.728   3
  -5  -7 -13 1620.47 117.459   5
  -5  -7 -13 1432.21 131.864   1
   5   7  14 800.377 107.796   3
  -5  -7 -14 945.723 98.5374   5
  -5  -7 -14 635.915 94.9306   1
  -5  -7 -15 47.8890 33.5741   5
  -5  -7 -15 36.3820 53.1114   1
  -5  -7 -16 39.6879 45.9721   5
  -5  -7 -16 46.6071 50.2300   1
   5   7  16 39.9445 56.1815   3
  -5  -7 -17 112.220 55.6543   1
   5   7  17 57.1185 43.3977   3
  -5  -7 -17 122.864 60.2474   5
  -5  -7 -18 58.4758 43.6809   1
  -5  -7 -18 41.5972 46.8737   5
  -5  -7 -19 595.159 108.756   1
  -5  -7 -19 559.430 97.5789   5
  -5  -7 -20 108.500 59.2479   5
   5   8  -9 68.9779 49.1082   2
  -5  -8   9 63.6396 49.5484   4
  -5  -8   8-52.8293 51.4361   4
   5   8  -8-10.8993 43.6967   2
  -5  -8   7 175.063 65.4070   4
   5   8  -7 219.068 62.7672   2
  -5  -8   6 104.147 50.9024   4
   5   8  -6 225.279 72.3451   2
  -5  -8   5 811.799 100.113   4
   5   8  -5 640.870 95.8634   2
  -5  -8   4 941.485 102.900   4
   5   8  -4 761.829 99.0533   2
  -5  -8   3 1215.82 109.558   4
   5   8  -3 1267.43 118.562   2
  -5  -8   2 2227.64 138.792   4
   5   8  -2 2179.79 149.247   2
  -5  -8   1 77.1315 34.2321   4
   5   8  -1 179.670 49.9071   2
  -5  -8   0 689.071 73.7716   4
   5   8   0 870.943 93.3675   2
  -5  -8  -1 376.478 54.2444   4
   5   8   1 305.960 54.0529   2
   5   8   1 320.444 48.0445   3
   5   8   2 429.633 62.9179   2
   5   8   2 322.795 48.9442   3
  -5  -8  -2 434.640 57.3745   4
  -5  -8  -3 194.758 39.3789   4
   5   8   3 146.286 38.5304   2
   5   8   3 227.345 48.3853   3
   5   8   4 605.892 62.5595   2
  -5  -8  -4 594.312 72.4089   1
   5   8   4 532.886 65.4545   3
  -5  -8  -4 547.810 55.0895   4
  -5  -8  -5 903.560 88.2717   1
   5   8   5 833.515 83.8058   3
  -5  -8  -5 607.189 56.8458   4
   5   8   5 761.288 67.1680   2
   5   8   6 2775.24 146.390   3
  -5  -8  -6 2621.62 143.266   1
  -5  -8  -6 2356.67 104.655   4
   5   8   6 2452.28 109.914   2
   5   8   7 3822.07 173.928   3
  -5  -8  -7 3726.55 173.007   1
  -5  -8  -8 8009.05 254.763   1
   5   8   8 8033.83 258.596   3
   5   8   9 194.152 53.0181   3
  -5  -8  -9 246.860 54.4446   1
   5   8  10 326.187 63.5204   3
  -5  -8 -10 359.967 67.2789   1
  -5  -8 -11 1190.00 112.476   1
   5   8  11 1273.36 116.270   3
  -5  -8 -12 69.2207 51.2681   1
   5   8  12 60.8023 43.1484   3
   5   8  13 1079.54 115.454   3
  -5  -8 -13 1017.03 91.2372   5
  -5  -8 -13 1075.68 115.406   1
   5   8  14 271.501 71.1098   3
  -5  -8 -14 223.808 48.7536   5
  -5  -8 -14 344.189 72.5703   1
   5   8  15-7.21379 43.3471   3
  -5  -8 -15-6.02909 27.2647   5
  -5  -8 -15 30.8219 52.8860   1
  -5  -8 -16 0.73209 43.7299   1
   5   8  16-1.66808 43.1615   3
  -5  -8 -16 99.1136 50.7227   5
  -5  -8 -17 129.605 54.9767   1
   5   8  17 66.0191 47.3070   3
  -5  -8 -17 145.238 57.3202   5
  -5  -8 -18 285.007 76.3612   1
  -5  -8 -18 450.514 82.5666   5
   5   8  18 400.930 86.6031   3
  -5  -8 -19 214.173 79.0249   1
  -5  -8 -19 105.751 54.5699   5
  -5  -8 -20-35.2783 47.0927   5
  -5  -9   8 140.586 59.7361   4
   5   9  -8 327.692 85.4033   2
  -5  -9   7 156.208 58.9527   4
   5   9  -7 131.303 62.1522   2
  -5  -9   6 597.006 98.1145   4
   5   9  -6 680.621 108.398   2
  -5  -9   5 1059.97 117.718   4
   5   9  -5 1079.71 123.767   2
  -5  -9   4 604.998 89.7925   4
   5   9  -4 634.878 97.7743   2
  -5  -9   3 1004.86 104.894   4
   5   9  -3 938.425 109.469   2
  -5  -9   2 296.404 61.0736   4
   5   9  -2 199.015 57.9547   2
  -5  -9   1 8.45526 42.6553   4
   5   9  -1-18.3903 30.8086   2
  -5  -9   0-28.2406 31.7722   4
   5   9   0 23.2183 31.0637   2
  -5  -9  -1 197.629 47.6759   4
   5   9   1 117.427 45.7686   2
  -5  -9  -2 9.50934 29.3560   4
   5   9   2 48.7206 35.8376   3
   5   9   2 5.84834 28.5773   2
  -5  -9  -3 44.7406 24.2567   4
   5   9   3 17.3735 28.5053   3
   5   9   3 79.5462 27.7001   2
   5   9   4 1017.33 83.4446   2
  -5  -9  -4 995.803 92.9618   1
   5   9   4 1079.53 93.6799   3
  -5  -9  -4 1123.80 84.2098   4
   5   9   5 2434.21 121.547   2
   5   9   5 2685.73 146.969   3
  -5  -9  -5 2410.36 117.373   4
  -5  -9  -5 2572.67 146.435   1
   5   9   6 3964.70 179.492   3
  -5  -9  -6 3882.99 177.134   1
  -5  -9  -7 8102.22 257.063   1
   5   9   7 8093.39 259.573   3
  -5  -9  -8 2544.89 148.696   1
   5   9   8 2465.64 147.678   3
  -5  -9  -9 674.186 87.9249   1
   5   9   9 515.311 78.8823   3
  -5  -9 -10 2753.55 164.724   1
   5   9  10 2706.81 166.244   3
  -5  -9 -11 0.00000 33.9849   1
   5   9  11 133.672 53.1767   3
  -5  -9 -12 212.492 56.0526   1
   5   9  12 241.752 63.5204   3
  -5  -9 -13 369.256 73.3274   1
   5   9  13 432.859 71.1943   3
   5   9  14-21.0674 44.5316   3
  -5  -9 -14-2.28623 47.4849   1
   5   9  15 228.884 71.7020   3
  -5  -9 -15 205.964 72.8396   1
   5   9  16 201.119 65.8854   3
  -5  -9 -16 122.575 53.7640   1
  -5  -9 -16 136.964 49.7354   5
  -5  -9 -17 475.445 78.2640   5
  -5  -9 -17 596.886 106.200   1
   5   9  17 474.997 92.6863   3
  -5  -9 -18 482.374 97.0749   1
   5   9  18 627.344 105.756   3
  -5  -9 -18 666.044 95.7836   5
  -5  -9 -19 156.802 74.9155   1
  -5  -9 -19 273.083 75.2346   5
  -5  -9 -20 227.224 70.0759   5
  -5 -10   7 262.685 75.2402   4
   5  10  -7 340.545 81.7604   2
  -5 -10   6 977.288 127.258   4
   5  10  -6 1042.88 132.103   2
  -5 -10   5 784.585 113.430   4
   5  10  -5 614.729 102.832   2
  -5 -10   4 1035.01 120.285   4
   5  10  -4 1124.38 131.586   2
  -5 -10   3 789.226 102.604   4
   5  10  -3 772.209 102.416   2
  -5 -10   2 184.305 56.0973   4
   5  10  -2 159.061 56.0734   2
  -5 -10   1 88.8524 37.7172   4
   5  10  -1 115.737 58.3204   2
  -5 -10   0 399.882 67.3975   4
   5  10   0 388.483 68.6759   2
  -5 -10  -1 24.4341 31.1512   4
   5  10   1 6.40772 30.0559   2
  -5 -10  -2 85.2918 35.3123   4
   5  10   2 93.5448 47.2896   2
  -5 -10  -3-20.0750 31.1225   1
  -5 -10  -3 12.9924 29.1982   4
   5  10   3 4.04730 26.8473   2
   5  10   3 59.2420 30.5618   3
   5  10   4 1310.81 101.236   2
  -5 -10  -4 1409.90 112.836   1
   5  10   4 1271.02 104.765   3
  -5 -10  -4 1235.43 97.6503   4
   5  10   5 2627.57 131.602   2
   5  10   5 2738.18 152.226   3
  -5 -10  -5 2516.88 145.595   1
  -5 -10  -5 2496.08 129.213   4
   5  10   6 3189.20 167.932   3
  -5 -10  -6 2938.45 158.695   1
  -5 -10  -7 2189.22 138.992   1
   5  10   7 2377.13 146.931   3
  -5 -10  -8 111.562 48.6385   1
   5  10   8 102.117 48.0726   3
   5  10   9 117.365 54.9806   3
  -5 -10  -9 63.9950 39.9444   1
  -5 -10 -10 3166.85 178.593   1
   5  10  10 3140.82 178.833   3
   5  10  11 355.449 69.5658   3
  -5 -10 -11 393.484 72.0451   1
  -5 -10 -12 8.88151 37.6353   1
   5  10  12 23.0778 48.5656   3
  -5 -10 -13 41.6466 38.3652   1
   5  10  13-28.1883 44.3628   3
   5  10  14 53.0174 52.3562   3
  -5 -10 -14 38.7658 42.9533   1
  -5 -10 -15 64.4446 50.2457   1
   5  10  15 2.35700 50.5623   3
   5  10  16 576.411 101.033   3
  -5 -10 -16 653.596 107.102   1
  -5 -10 -17 388.388 86.2066   1
   5  10  17 585.376 104.234   3
  -5 -10 -18 673.776 112.567   1
   5  10  18 822.490 115.960   3
  -5 -10 -19 53.0292 54.0731   1
   5  10  19 27.8946 48.8552   3
  -5 -11   6 322.557 81.6748   4
   5  11  -6 353.262 86.9728   2
  -5 -11   5 578.790 99.5648   4
   5  11  -5 442.100 88.7710   2
  -5 -11   4 254.930 64.0345   4
   5  11  -4 506.983 98.5945   2
  -5 -11   3 241.771 72.8428   4
   5  11  -3 371.944 81.6548   2
  -5 -11   2 92.4277 53.9776   4
   5  11  -2 139.007 49.3692   2
  -5 -11   1 55.4626 43.6835   4
   5  11  -1 40.6612 38.8896   2
  -5 -11   0 120.504 50.6615   4
   5  11   0 344.995 67.8053   2
  -5 -11  -1 301.261 65.1340   4
   5  11   1 143.438 51.2556   2
  -5 -11  -2-7.51472 31.4691   4
  -5 -11  -2-6.67523 28.7217   1
   5  11   2 39.3529 42.3044   2
  -5 -11  -3 112.865 40.0833   4
   5  11   3 89.3353 41.8630   2
   5  11   3 34.7875 28.5436   3
  -5 -11  -3 134.225 40.9760   1
   5  11   4 412.269 66.5579   2
  -5 -11  -4 487.725 68.7360   1
   5  11   4 449.094 65.6414   3
  -5 -11  -4 515.571 67.5587   4
   5  11   5 1737.51 124.063   3
  -5 -11  -5 1517.25 117.162   1
  -5 -11  -5 1630.88 113.711   4
   5  11   6 1860.17 131.396   3
  -5 -11  -6 1829.76 128.370   1
  -5 -11  -7 2399.43 146.945   1
   5  11   7 2905.16 167.695   3
  -5 -11  -8 4.88043 30.3120   1
   5  11   8-30.4019 34.7430   3
  -5 -11  -9 744.501 91.5810   1
   5  11   9 745.434 93.8890   3
  -5 -11 -10 65.9594 40.3531   1
   5  11  10-65.6140 41.9623   3
  -5 -11 -11 96.9203 49.2918   1
   5  11  11 113.815 55.5387   3
   5  11  12 477.998 81.3255   3
  -5 -11 -12 567.611 85.6358   1
  -5 -11 -13 12.3597 46.4006   1
   5  11  13 37.8586 48.9005   3
  -5 -11 -14 90.7118 60.3719   1
   5  11  14 42.0055 51.3429   3
   5  11  15-121.324 58.8571   3
  -5 -11 -15-39.6230 55.7772   1
   5  11  16 169.796 70.3359   3
  -5 -11 -16 299.632 75.3622   1
   5  11  17 877.804 120.403   3
  -5 -11 -17 865.164 122.591   1
  -5 -11 -18 526.242 103.912   1
   5  11  18 403.039 97.9783   3
   5  11  19 411.880 94.1596   3
  -5 -12   5-64.3356 55.7647   4
   5  12  -5-11.2948 46.3854   2
  -5 -12   4 3.02994 41.4445   4
   5  12  -4 5.49086 36.7434   2
  -5 -12   3 14.4346 44.7441   4
   5  12  -3 114.320 58.4167   2
  -5 -12   2 37.6597 37.4932   4
   5  12  -2 67.7087 47.4709   2
  -5 -12   1 378.519 75.5040   4
   5  12  -1 468.315 86.4038   2
  -5 -12   0 156.364 65.0071   4
   5  12   0 143.535 58.2602   2
  -5 -12  -1 1.58140 36.5517   4
   5  12   1 88.0619 51.9676   2
   5  12   2 400.560 71.8449   2
  -5 -12  -2 512.692 84.0611   4
  -5 -12  -3 307.120 63.7318   4
   5  12   3 265.900 57.9758   2
   5  12   4 681.413 81.2312   2
   5  12   4 760.703 88.1358   3
  -5 -12  -4 734.531 83.1907   1
  -5 -12  -4 713.303 83.8402   4
   5  12   5 1388.79 116.576   3
  -5 -12  -5 1296.02 109.985   1
  -5 -12  -5 1456.20 112.172   4
  -5 -12  -6 1065.56 100.989   1
   5  12   6 1020.17 104.144   3
  -5 -12  -7 279.125 59.1311   1
   5  12   7 246.968 59.4363   3
  -5 -12  -8 61.9929 37.6481   1
   5  12   8 91.4920 48.1928   3
   5  12   9 119.443 53.8532   3
  -5 -12  -9 35.4171 38.2413   1
  -5 -12 -10-12.0219 33.6634   1
   5  12  10 58.3880 42.5502   3
  -5 -12 -11 157.624 46.8112   1
   5  12  11 145.882 65.9328   3
  -5 -12 -12 60.0020 42.0120   1
   5  12  12-22.2333 45.0433   3
  -5 -12 -13 73.1752 50.6322   1
   5  12  13 158.392 69.7886   3
  -5 -12 -14 15.7168 42.1892   1
   5  12  14 172.361 70.9960   3
   5  12  15 684.022 105.609   3
  -5 -12 -15 659.755 104.338   1
   5  12  16 632.318 102.652   3
  -5 -12 -16 629.579 109.269   1
  -5 -12 -17 247.024 78.7388   1
   5  12  17 284.736 74.0828   3
  -5 -12 -18 218.147 77.3368   1
   5  12  18 288.970 81.6308   3
   5  12  19 400.066 95.5683   3
  -5 -13   4 96.9247 61.6823   4
  -5 -13   3-18.9277 48.4895   4
   5  13  -3-27.3983 43.2241   2
  -5 -13   2 102.521 53.2993   4
   5  13  -2 169.484 65.3054   2
   5  13  -1 1025.91 122.921   2
  -5 -13   1 765.887 112.018   4
  -5 -13   0 437.428 79.9465   4
   5  13   0 565.243 92.4629   2
  -5 -13  -1 455.335 83.1284   4
   5  13   1 588.284 89.2009   2
   5  13   2 1035.23 107.871   2
  -5 -13  -2 1062.52 113.514   4
   5  13   3 936.901 101.440   2
  -5 -13  -3 1149.00 113.780   4
  -5 -13  -4 316.498 66.1531   4
   5  13   5 107.374 42.8293   3
  -5 -13  -6 662.620 82.2192   1
   5  13   6 693.968 90.6003   3
  -5 -13  -7 162.424 44.4506   1
   5  13   7 287.914 62.0160   3
  -5 -13  -8 885.624 99.6320   1
   5  13   8 834.035 102.520   3
   5  13   9 54.1457 53.8097   3
  -5 -13  -9 34.9682 38.1587   1
   5  13  10 293.329 69.6009   3
  -5 -13 -10 232.811 58.1210   1
  -5 -13 -11-14.1030 40.5770   1
   5  13  11 180.929 66.0360   3
  -5 -13 -12 19.0185 42.5615   1
   5  13  12-5.66193 43.2338   3
  -5 -13 -13 439.173 86.2934   1
   5  13  13 604.770 105.221   3
  -5 -13 -14 72.4294 51.3373   1
   5  13  14 236.123 76.5749   3
   5  13  15 264.377 74.0819   3
  -5 -13 -15 125.722 57.5100   1
   5  13  16 1007.78 128.657   3
  -5 -13 -16 1594.26 161.376   1
  -5 -13 -17 197.385 69.8574   1
   5  13  17 217.795 75.0274   3
  -5 -13 -18 267.914 86.1136   1
   5  13  18 173.406 71.0573   3
  -5 -14   3 49.8611 53.3449   4
  -5 -14   2 479.531 102.896   4
   5  14  -2 562.607 104.280   2
   5  14  -1 960.644 122.124   2
  -5 -14   1 884.923 121.167   4
  -5 -14   0 250.499 77.0343   4
   5  14   0 231.557 64.9232   2
  -5 -14  -1 273.406 67.7933   4
   5  14   1 375.576 75.9048   2
  -5 -14  -2 562.609 91.6639   4
   5  14   2 669.780 96.8456   2
  -5 -14  -3 423.403 75.2566   4
   5  14   6 140.520 49.5305   3
   5  14   7 122.382 48.8111   3
   5  14   8 348.817 77.1964   3
  -5 -14  -8 392.629 73.8752   1
  -5 -14  -9 404.513 70.8745   1
   5  14   9 618.325 94.3871   3
   5  14  10 581.323 96.5196   3
  -5 -14 -10 645.893 90.8198   1
  -5 -14 -11 348.879 75.2990   1
   5  14  11 466.744 92.5924   3
  -5 -14 -12 233.215 61.8119   1
   5  14  12 350.072 83.6739   3
  -5 -14 -13 126.801 48.7159   1
   5  14  13 213.513 70.5240   3
   5  14  14 355.191 85.7388   3
  -5 -14 -14 413.044 87.8671   1
   5  14  15 196.022 65.0306   3
  -5 -14 -15 189.476 71.3172   1
  -5 -14 -16 693.855 116.484   1
   5  14  16 503.240 99.9110   3
  -5 -14 -17 285.608 81.0242   1
   5  14  17 379.790 94.1577   3
  -5 -15   1 585.006 104.326   4
   5  15  -1 714.980 111.281   2
  -5 -15   0 409.307 88.5852   4
   5  15   0 346.160 82.6856   2
  -5 -15  -1 5.74719 40.0098   4
  -5 -15  -2 220.060 73.0276   4
   5  15   6 204.751 60.6098   3
   5  15   7 70.7173 48.4325   3
   5  15   8 326.439 74.9319   3
   5  15   9 138.299 53.2644   3
  -5 -15 -10 242.766 65.5566   1
   5  15  10 176.081 64.4085   3
  -5 -15 -11 230.138 56.8737   1
   5  15  11 250.208 73.9149   3
  -5 -15 -12 152.956 51.7171   1
   5  15  12 268.542 75.4402   3
  -5 -15 -13 186.393 67.3355   1
   5  15  13 306.741 82.0823   3
   5  15  14 473.105 100.272   3
  -5 -15 -14 398.460 79.6774   1
   5  15  15 416.507 96.2687   3
  -5 -15 -15 463.194 97.7375   1
   5  15  16 360.917 93.8419   3
  -5 -15 -16 145.032 58.4936   1
  -5 -15 -17 149.510 69.5402   1
   5  16   7-9.52011 40.5816   3
   5  16   8 381.716 80.0018   3
   5  16   9 89.4211 46.2013   3
   5  16  10 223.537 67.0773   3
   5  16  11 518.533 103.046   3
  -5 -16 -12 297.687 71.5116   1
   5  16  12 260.364 79.0660   3
  -5 -16 -13 212.599 68.6863   1
   5  16  13 262.218 79.2300   3
   5  16  14 299.688 89.8952   3
  -5 -16 -14 175.364 62.0158   1
   5  16  15 640.857 113.298   3
  -5 -16 -15 507.266 94.9384   1
  -5 -16 -16 112.895 59.7408   1
   5  17   8 512.116 96.5262   3
   5  17   9 49.6303 38.4417   3
   5  17  10 199.325 75.8898   3
   5  17  11 308.533 79.5144   3
   5  17  12 116.644 70.4310   3
   5  17  13 188.467 72.2884   3
   5  17  14 336.652 84.9966   3
  -5 -17 -14 237.471 71.5933   1
  -5 -17 -15 218.698 68.2759   1
   5  18   9 332.863 79.7455   3
   5  18  10 439.672 99.4541   3
   5  18  11 297.926 83.1585   3
   6 -17  -9 135.177 66.8378   4
   6 -17  -8 135.422 53.7669   4
   6 -17  -7 142.681 73.9671   4
   6 -17  -6 138.924 77.7024   3
   6 -17  -6-65.6101 53.8518   4
   6 -17  -5 111.928 59.1982   4
   6 -17  -4 60.3115 50.7332   4
   6 -16 -12 207.392 76.8697   4
   6 -16 -11 184.197 81.7039   4
   6 -16 -10 257.526 77.9355   4
   6 -16  -9 2.77873 43.4615   4
   6 -16  -8 174.002 65.2805   4
   6 -16  -7 108.595 73.8448   3
   6 -16  -7 90.4391 56.9049   4
   6 -16  -6 17.1448 57.4186   3
   6 -16  -6 20.5991 50.1032   4
   6 -16  -5 83.7743 65.8982   3
   6 -16  -5 46.6765 44.4492   4
   6 -16  -4-28.1827 51.0901   3
   6 -16  -4 14.3354 51.6614   4
   6 -16  -3 445.175 97.8665   3
   6 -16  -3 357.539 86.0816   4
   6 -16  -2 268.398 81.3649   3
   6 -16  -2 217.792 71.0257   4
   6 -16  -1 283.312 80.4373   3
   6 -16  -1 198.445 67.5319   4
  -6  16   0 130.854 70.2589   2
   6 -16   0 106.148 56.4745   4
   6 -15 -13 604.675 112.806   4
   6 -15 -12 130.145 71.6299   4
   6 -15 -11 240.171 82.0036   4
   6 -15 -10-1.44961 53.9031   4
   6 -15  -9 97.5742 53.9885   4
   6 -15  -8 75.5136 49.8833   4
   6 -15  -7 37.3993 56.9877   3
   6 -15  -7 62.4762 60.5471   4
   6 -15  -6 74.0108 63.8410   3
   6 -15  -6 39.9163 52.4238   4
   6 -15  -5-72.3012 56.9322   3
   6 -15  -5 109.258 61.2258   4
   6 -15  -4 169.084 66.5852   3
   6 -15  -4 166.617 64.2916   4
   6 -15  -3 390.754 86.0761   3
   6 -15  -3 408.203 84.8708   4
   6 -15  -2 686.140 112.317   3
   6 -15  -2 884.826 123.915   4
   6 -15  -1 456.878 91.1287   3
  -6  15   1 522.648 92.5827   2
   6 -15  -1 676.338 107.968   4
   6 -15   0 265.491 75.1014   3
  -6  15   0 111.937 55.7751   2
   6 -15   0 256.384 71.0920   4
   6 -15   1 555.479 108.248   4
   6 -15   1 661.654 112.074   3
  -6  15  -1 409.903 90.1052   2
   6 -15   2 255.172 77.7266   4
   6 -15   2 301.544 85.9074   3
  -6  15  -2 111.164 61.2313   2
   6 -14 -14 419.859 99.4617   4
   6 -14 -13 191.406 77.2355   4
   6 -14 -12 338.388 88.6148   4
   6 -14 -11 407.622 88.2270   4
   6 -14 -10 201.173 67.7953   4
   6 -14  -9 50.3419 56.9530   4
   6 -14  -8 121.451 68.0119   3
   6 -14  -8 41.2536 46.0367   4
   6 -14  -7-35.7835 59.0868   3
   6 -14  -7-13.5667 41.7286   4
   6 -14  -6 86.7129 66.7388   3
   6 -14  -6 121.917 56.4915   4
   6 -14  -5 17.8002 49.8443   3
   6 -14  -5-24.1325 40.6027   4
   6 -14  -4 685.045 109.553   3
   6 -14  -4 608.769 99.1805   4
   6 -14  -3 374.441 87.7597   3
   6 -14  -3 310.866 71.4657   4
   6 -14  -2 1023.45 130.801   3
   6 -14  -2 947.455 119.560   4
   6 -14  -1 369.232 93.2948   3
   6 -14  -1 299.476 78.3661   4
   6 -14   0 555.929 104.151   3
   6 -14   0 506.131 95.5311   4
   6 -14   1 88.0826 51.7411   4
  -6  14  -1 136.239 55.2619   2
   6 -14   2 81.0692 49.2778   4
   6 -14   2 193.765 71.0257   3
  -6  14  -2 126.725 60.4800   2
   6 -14   3 54.7900 52.1656   4
   6 -14   3 266.863 78.9391   3
  -6  14  -3 225.434 81.0585   2
   6 -14   4 81.4805 56.5113   4
   6 -14   4 183.139 73.5321   3
   6 -13 -15 26.3737 56.5632   1
   6 -13 -15 77.2638 65.1231   4
   6 -13 -14 473.859 96.9473   1
   6 -13 -14 474.611 102.705   4
   6 -13 -13 907.170 129.349   4
   6 -13 -12 158.500 70.2726   4
   6 -13 -11 45.0482 53.4558   4
   6 -13 -10 96.1184 64.2924   4
   6 -13  -9 54.4712 51.5039   4
   6 -13  -8-39.4637 48.3559   3
   6 -13  -8 6.01013 39.6608   4
   6 -13  -7-82.8462 63.6764   3
   6 -13  -7 99.2502 45.8566   4
   6 -13  -6 619.027 97.5732   3
   6 -13  -6 473.688 86.5359   4
   6 -13  -5 505.785 89.2989   3
   6 -13  -5 404.661 83.7207   4
   6 -13  -4 432.619 85.2393   3
   6 -13  -4 356.702 72.9079   4
   6 -13  -3 1598.22 154.378   3
   6 -13  -3 1522.79 140.787   4
   6 -13  -2 1186.95 131.885   3
   6 -13  -2 1293.25 133.681   4
   6 -13  -1 572.672 100.084   3
   6 -13  -1 472.663 82.7884   4
   6 -13   0 185.154 75.3673   3
   6 -13   0 134.631 56.0141   4
   6 -13   1 275.230 73.7660   4
   6 -13   1 152.474 66.2009   3
   6 -13   2-12.0130 32.2688   4
   6 -13   2-20.5066 50.2248   3
  -6  13  -2 27.2337 49.3867   2
   6 -13   3 118.087 59.1604   4
   6 -13   3 162.475 68.2411   3
  -6  13  -3 72.0145 54.6412   2
   6 -13   4 112.326 63.2628   4
   6 -13   4 42.6473 53.8418   3
  -6  13  -4 10.6449 43.6150   2
   6 -13   5-7.97025 41.8238   4
  -6  13  -5-9.00065 55.2183   2
   6 -13   6 148.699 72.3152   4
   6 -12 -16 171.142 66.3970   1
   6 -12 -15 224.408 70.6291   1
   6 -12 -15 143.484 63.7351   4
   6 -12 -14 283.744 76.4523   1
   6 -12 -14 434.289 94.1129   4
   6 -12 -13 82.9704 47.2023   1
   6 -12 -13 150.325 68.5305   4
   6 -12 -12 295.830 71.2927   1
   6 -12 -12 514.361 101.554   4
   6 -12 -11 9.16832 46.3785   4
   6 -12 -10-3.42989 43.6370   4
   6 -12  -9 177.511 62.4145   3
   6 -12  -9 179.680 66.6134   4
   6 -12  -8 101.925 58.6995   3
   6 -12  -8 255.993 70.5397   4
   6 -12  -7 503.298 85.4245   3
   6 -12  -7 549.478 91.2242   4
   6 -12  -6 286.253 70.4878   3
   6 -12  -6 273.930 64.1534   4
   6 -12  -5 802.596 104.738   3
   6 -12  -5 626.696 94.3581   4
   6 -12  -4 2826.75 192.707   3
   6 -12  -4 2879.08 182.887   4
   6 -12  -3 2489.62 184.622   3
   6 -12  -3 2272.46 165.077   4
   6 -12  -2 590.663 102.983   3
   6 -12  -2 561.761 80.9788   4
   6 -12  -1 845.771 114.842   3
   6 -12  -1 659.045 96.5682   4
   6 -12   0 540.053 87.2473   4
   6 -12   0 553.584 94.9924   3
   6 -12   1 136.666 57.8092   4
   6 -12   1-0.36296 51.6830   3
   6 -12   2 32.4335 36.1072   4
   6 -12   2 78.7715 63.7775   3
   6 -12   3 26.3315 41.9235   4
   6 -12   3 1.71816 46.2821   3
   6 -12   4 60.4830 38.6661   4
   6 -12   4-10.4242 39.1970   3
  -6  12  -4 26.6336 49.2721   2
   6 -12   5 137.523 64.0500   4
  -6  12  -5 54.1871 52.7817   2
   6 -12   5 5.93744 45.5396   3
   6 -12   6 38.6258 42.3646   4
  -6  12  -6 154.310 78.7384   2
   6 -11 -16 312.446 86.9211   1
   6 -11 -15 328.384 89.2954   1
   6 -11 -15 226.106 92.8360   4
   6 -11 -14 256.461 79.2998   1
   6 -11 -14 305.740 84.7387   4
   6 -11 -13 122.825 64.5403   1
   6 -11 -13 90.1708 58.0866   4
   6 -11 -12 26.3843 36.3854   1
   6 -11 -12 56.7926 47.2479   4
   6 -11 -11 26.1005 35.3204   1
   6 -11 -11-41.7554 44.3632   4
   6 -11 -10 544.641 83.3374   1
   6 -11 -10 683.058 96.7727   4
   6 -11  -9 303.986 70.7534   3
   6 -11  -9 227.726 70.8926   4
   6 -11  -8 37.4180 38.7599   4
   6 -11  -8 123.206 60.1938   3
   6 -11  -7 171.070 54.9728   3
   6 -11  -7 144.692 49.4361   4
   6 -11  -6 24.8418 42.5290   3
   6 -11  -6 79.6407 46.1394   4
   6 -11  -5 550.771 88.5018   3
   6 -11  -5 454.422 77.1431   4
   6 -11  -4 1866.89 156.947   3
   6 -11  -4 1622.14 137.255   4
   6 -11  -3 4784.11 245.928   3
   6 -11  -3 4513.97 217.428   4
   6 -11  -2 757.227 99.8874   3
   6 -11  -2 669.352 87.8107   4
   6 -11  -1 218.022 76.6832   3
   6 -11  -1 126.221 49.9402   4
   6 -11   0 479.464 89.3578   3
   6 -11   0 494.053 80.6925   4
   6 -11   1 60.2277 44.7183   4
   6 -11   1 31.3721 45.1827   3
   6 -11   2-54.5290 44.6718   4
   6 -11   2 68.3331 53.1191   3
   6 -11   3-36.1598 36.2921   4
   6 -11   3 28.6165 53.5609   3
   6 -11   4 24.6290 38.2008   4
   6 -11   4 188.499 67.6031   3
   6 -11   5 275.881 71.3320   3
   6 -11   5 239.792 63.1918   4
  -6  11  -5 254.075 75.9016   2
   6 -11   6-20.4845 39.5177   4
   6 -11   6 128.508 55.8869   3
  -6  11  -6-10.1347 55.2667   2
  -6  11  -7 641.368 111.901   2
   6 -10 -16 203.048 76.6899   1
   6 -10 -15 402.359 97.5610   1
   6 -10 -14 356.413 80.7098   1
   6 -10 -14 198.029 64.7496   4
   6 -10 -13-40.4416 58.5622   4
   6 -10 -13 49.1987 44.3825   1
   6 -10 -12 26.9761 39.4694   1
   6 -10 -12 3.83252 43.8811   4
   6 -10 -11 30.1736 49.8828   4
   6 -10 -11 18.1931 45.0668   1
   6 -10 -10 169.242 56.9801   1
   6 -10 -10 64.3628 47.0804   4
   6 -10  -9 266.769 62.7802   3
   6 -10  -9 325.895 66.6317   1
   6 -10  -9 269.717 63.8988   4
   6 -10  -8 794.326 103.143   3
   6 -10  -8 737.051 94.4577   4
   6 -10  -8 585.966 76.6469   1
   6 -10  -7 121.223 53.5063   3
   6 -10  -7-1.63773 34.8370   4
   6 -10  -6 188.543 62.2391   3
   6 -10  -6 190.289 56.8036   4
   6 -10  -5 92.4424 53.5647   3
   6 -10  -5 19.0004 35.4194   4
   6 -10  -4 1878.95 151.703   3
   6 -10  -4 1711.38 131.657   4
   6 -10  -3 2294.17 162.462   3
   6 -10  -3 2125.10 145.194   4
   6 -10  -2 1340.91 130.296   3
   6 -10  -2 1183.68 105.025   4
   6 -10  -1-19.9889 41.2851   3
   6 -10  -1 30.0482 30.5112   4
   6 -10   0-24.2667 40.6609   3
   6 -10   0 2.77454 31.2913   4
   6 -10   1 97.5664 44.0590   4
   6 -10   1-14.4771 43.6743   3
   6 -10   2 94.5755 46.2682   4
   6 -10   2 164.538 61.3116   3
   6 -10   3 24.7241 32.9462   4
   6 -10   3 29.5779 51.4781   3
   6 -10   4 39.9548 40.1402   4
   6 -10   4 20.8080 44.2047   3
   6 -10   5 32.6355 37.0503   4
   6 -10   5-33.9271 42.5398   3
   6 -10   6 237.549 63.6477   4
   6 -10   6 190.101 66.0546   3
  -6  10  -6 290.315 96.4397   2
   6 -10   7 739.761 106.344   3
  -6  10  -7 657.011 116.589   2
  -6  10  -8 1489.32 171.106   2
   6  -9 -16 90.2423 58.9634   1
   6  -9 -15 109.843 56.1575   1
   6  -9 -14 5.40279 45.2642   1
   6  -9 -13 8.65976 44.7003   1
   6  -9 -13 72.3777 59.7563   4
   6  -9 -12 171.832 62.9641   4
   6  -9 -12 167.109 59.1111   1
   6  -9 -11 193.533 66.5888   1
   6  -9 -11 162.161 58.9522   4
   6  -9 -10 888.291 106.695   4
   6  -9 -10 904.276 108.414   1
   6  -9  -9 316.643 64.2468   3
   6  -9  -9 450.052 78.2978   1
   6  -9  -9 349.530 70.5272   4
   6  -9  -8 1450.63 121.637   3
   6  -9  -8 1412.47 125.880   4
   6  -9  -8 1392.19 117.893   1
   6  -9  -7 1025.14 103.303   3
   6  -9  -7 1204.00 113.679   4
   6  -9  -7 1236.67 106.358   1
   6  -9  -6 723.388 90.6686   3
   6  -9  -6 686.477 75.8569   2
   6  -9  -6 727.586 87.5828   4
   6  -9  -6 568.644 71.8477   1
   6  -9  -5 560.347 77.6027   3
   6  -9  -5 651.742 73.0819   2
   6  -9  -5 545.370 75.6333   4
   6  -9  -4 178.798 55.9408   3
   6  -9  -4 193.982 48.1316   4
   6  -9  -3 717.933 90.7037   3
   6  -9  -3 592.997 75.0235   4
   6  -9  -2 993.669 107.761   3
   6  -9  -2 1061.95 97.5583   4
   6  -9  -1 2.13391 40.0940   3
   6  -9  -1-2.56866 30.2352   4
   6  -9   0 236.614 56.5281   3
   6  -9   0 69.5318 35.7410   4
   6  -9   1 11.9816 34.1360   4
   6  -9   1-15.8643 39.0207   3
   6  -9   2-10.0537 33.7774   4
   6  -9   2 49.9614 41.8502   3
   6  -9   3 57.4764 35.4313   4
   6  -9   3-51.7273 43.0406   3
   6  -9   4 134.146 43.2026   4
   6  -9   4 232.930 65.4624   3
   6  -9   5 932.188 114.802   3
   6  -9   5 544.428 87.7816   4
   6  -9   6 807.687 108.174   3
   6  -9   6 709.928 94.6917   4
   6  -9   7 556.669 91.0493   3
  -6   9  -7 728.227 113.086   2
  -6   9  -8 1545.32 167.438   2
  -6   9  -9 398.848 88.3754   2
  -6   9 -10 109.677 58.9132   2
   6  -8 -16 60.7575 71.5032   1
   6  -8 -15 50.4805 55.3676   1
   6  -8 -14 52.4600 46.2904   1
   6  -8 -13 59.1352 44.9127   1
   6  -8 -12 188.567 64.8346   1
   6  -8 -12 200.779 66.1248   4
   6  -8 -11 1615.39 144.288   4
   6  -8 -11 1607.41 145.994   1
   6  -8 -10 782.216 96.9560   4
   6  -8 -10 730.276 97.2700   1
   6  -8  -9 1743.57 127.802   3
   6  -8  -9 1634.52 137.449   4
   6  -8  -9 1603.65 133.393   1
   6  -8  -8 1794.85 131.995   3
   6  -8  -8 1713.49 134.607   4
   6  -8  -8 1557.38 127.019   1
   6  -8  -7 475.738 76.0823   3
   6  -8  -7 535.437 66.8012   2
   6  -8  -7 407.497 70.6802   4
   6  -8  -7 483.092 72.4242   1
   6  -8  -6 252.445 56.9198   3
   6  -8  -6 315.633 54.3468   1
   6  -8  -6 375.091 62.7908   4
   6  -8  -6 330.387 56.4764   2
   6  -8  -5 1707.87 126.448   3
   6  -8  -5 1492.52 103.877   2
   6  -8  -5 1435.72 114.475   4
   6  -8  -5 1423.21 105.484   1
   6  -8  -4 1002.69 101.680   3
   6  -8  -4 812.690 80.6731   2
   6  -8  -4 891.057 88.0253   4
   6  -8  -4 793.309 76.2155   1
   6  -8  -3 556.075 83.9813   3
   6  -8  -3 611.973 72.7155   2
   6  -8  -3 578.876 71.8031   4
   6  -8  -2 435.134 73.2671   3
   6  -8  -2 324.866 58.2196   4
   6  -8  -1 115.998 51.8532   3
   6  -8  -1 164.748 48.0288   4
   6  -8   0 434.784 71.9167   3
   6  -8   0 366.054 60.4044   4
   6  -8   1 665.519 88.2409   3
   6  -8   1 707.013 79.4067   4
   6  -8   2 1921.06 141.726   3
   6  -8   2 1957.67 128.192   4
   6  -8   3 1480.81 131.427   3
   6  -8   3 1498.33 115.009   4
   6  -8   4 289.588 62.3354   4
   6  -8   4 212.882 63.5695   3
   6  -8   5 377.114 67.5504   4
   6  -8   5 485.271 84.0834   3
   6  -8   6 1032.26 114.266   3
   6  -8   6 936.704 100.451   4
  -6   8  -7 1435.72 118.460   5
   6  -8   7 1420.42 132.666   3
   6  -8   8 809.383 103.441   3
  -6   8  -8 1202.58 141.363   2
  -6   8  -8 1242.17 114.942   5
  -6   8  -9 556.046 84.2798   5
  -6   8  -9 499.915 99.2470   2
  -6   8 -10-1.11581 42.1949   5
  -6   8 -10-31.8558 49.3936   2
  -6   8 -11 84.4901 53.1919   5
  -6   8 -11 2.92962 49.9672   2
  -6   8 -12-66.7537 43.2449   5
  -6   8 -13-33.5091 37.2453   5
   6  -7 -16-73.5136 55.5746   1
   6  -7 -15 199.674 80.6219   1
   6  -7 -14 116.536 64.9145   1
   6  -7 -13-56.2406 48.5517   1
   6  -7 -12 333.490 83.0222   1
   6  -7 -11 1641.18 147.278   4
   6  -7 -11 1887.85 159.355   1
   6  -7 -10 1336.88 124.460   4
   6  -7 -10 1309.38 128.149   1
   6  -7  -9 917.620 101.386   4
   6  -7  -9 1037.36 108.639   1
   6  -7  -8 563.641 75.5058   3
   6  -7  -8 435.019 65.5270   2
   6  -7  -8 509.200 74.7659   4
   6  -7  -8 460.653 76.2816   1
   6  -7  -7 517.973 73.6061   4
   6  -7  -7 525.036 73.1089   3
   6  -7  -7 481.514 63.6128   2
   6  -7  -7 516.283 72.4899   1
   6  -7  -6 187.849 43.5026   1
   6  -7  -6 247.853 55.7686   3
   6  -7  -6 202.916 49.5831   4
   6  -7  -6 169.070 39.7733   2
   6  -7  -5 1767.97 129.047   3
   6  -7  -5 1624.10 117.258   4
   6  -7  -5 1655.34 112.045   2
   6  -7  -5 1585.09 111.630   1
   6  -7  -4 172.940 40.5872   1
   6  -7  -4 242.947 52.8984   3
   6  -7  -4 178.577 48.3877   4
   6  -7  -4 265.866 49.7127   2
   6  -7  -3 103.793 27.1936   1
   6  -7  -3 163.623 48.3621   3
   6  -7  -3 171.871 41.9840   2
   6  -7  -3 149.824 41.5632   4
   6  -7  -2 205.268 35.1169   1
   6  -7  -2 232.132 55.7995   3
   6  -7  -2 247.093 49.8962   2
   6  -7  -2 232.122 46.5485   4
   6  -7  -1 101.230 44.3116   3
   6  -7  -1 71.6483 30.9100   4
   6  -7   0 444.478 70.8963   3
   6  -7   0 571.565 66.2227   4
   6  -7   1 3137.27 170.137   3
   6  -7   1 3010.53 147.723   4
   6  -7   2 5947.98 237.413   3
   6  -7   2 5804.98 204.408   4
   6  -7   3 1799.13 133.691   3
   6  -7   3 1776.48 116.875   4
   6  -7   4 334.778 59.9503   4
   6  -7   4 359.663 66.4036   3
   6  -7   5 385.480 68.2875   4
   6  -7   5 364.957 70.2710   3
   6  -7   6 665.231 91.2599   3
   6  -7   6 500.139 72.1694   4
   6  -7   7 1361.14 131.775   3
   6  -7   8 415.526 77.4124   3
  -6   7  -8 303.696 63.4647   5
  -6   7  -9 310.604 90.4643   2
   6  -7   9 262.976 67.5785   3
  -6   7  -9 381.070 71.9273   5
  -6   7 -10 80.4973 64.5226   2
  -6   7 -10 102.422 48.7743   5
  -6   7 -11 65.0391 45.0940   5
  -6   7 -11 92.7383 59.4956   2
  -6   7 -12 200.161 61.0521   5
  -6   7 -12 293.579 86.3574   2
  -6   7 -13 326.653 86.0464   5
  -6   7 -14 181.367 67.8637   5
  -6   7 -15 29.2276 42.8319   5
   6  -6 -16 21.7528 44.8251   1
   6  -6 -15-6.40493 54.0430   1
   6  -6 -14-27.9811 50.5381   1
   6  -6 -13 155.165 56.7673   1
   6  -6 -12 474.815 90.6213   1
   6  -6 -11 1971.52 160.408   1
   6  -6 -10 1186.11 124.641   4
   6  -6 -10 1597.41 140.333   1
   6  -6  -9 1051.82 106.323   4
   6  -6  -9 1057.68 94.1805   2
   6  -6  -9 1082.62 111.947   1
   6  -6  -8 124.739 43.1555   2
   6  -6  -8 145.260 47.3957   1
   6  -6  -8 213.946 54.6531   4
   6  -6  -7 94.8878 40.2350   2
   6  -6  -7 66.6746 35.7713   3
   6  -6  -7 42.5734 35.5448   1
   6  -6  -7 101.596 36.9063   4
   6  -6  -6 647.626 72.7406   3
   6  -6  -6 662.730 76.2935   4
   6  -6  -6 595.803 67.6873   2
   6  -6  -6 522.276 68.0698   1
   6  -6  -5 386.204 59.9867   1
   6  -6  -5 356.903 59.9411   3
   6  -6  -5 351.891 55.2074   4
   6  -6  -5 298.353 49.3210   2
   6  -6  -4 993.602 91.2447   3
   6  -6  -4 946.422 85.1697   4
   6  -6  -4 829.909 78.0247   2
   6  -6  -4 985.633 85.3747   1
   6  -6  -3-3.74866 22.5213   1
   6  -6  -3 6.51800 35.0129   3
   6  -6  -3 6.47060 25.7835   4
   6  -6  -3 10.3456 28.3896   2
   6  -6  -2 1004.22 91.8805   3
   6  -6  -2 832.432 75.5047   4
   6  -6  -2 872.441 82.0348   2
   6  -6  -2 546.495 56.2596   1
   6  -6  -1 2468.77 142.004   3
   6  -6  -1 2247.65 104.691   1
   6  -6  -1 2403.18 134.289   2
   6  -6  -1 2389.26 122.168   4
   6  -6   0 3059.95 163.788   3
   6  -6   0 2929.15 136.562   4
   6  -6   0 3049.05 155.340   2
   6  -6   1 5681.65 222.615   3
   6  -6   1 5376.96 178.988   4
   6  -6   2 3511.82 173.866   3
   6  -6   2 2560.67 127.341   4
   6  -6   3 1035.42 99.7729   3
   6  -6   3 945.557 84.9167   4
   6  -6   4 318.156 55.9173   4
   6  -6   4 374.410 64.9695   3
   6  -6   5 88.4773 40.6583   4
   6  -6   5 87.5029 38.9408   3
   6  -6   6 1174.12 113.198   3
   6  -6   6 941.777 90.3644   4
   6  -6   7 1144.01 112.373   3
   6  -6   8 550.023 85.9953   3
   6  -6   9-46.1713 42.5617   3
  -6   6  -9 101.865 42.7016   5
   6  -6  10-13.4276 34.1607   3
  -6   6 -10-1.46157 35.7734   5
  -6   6 -10 29.3177 54.7152   2
  -6   6 -11 94.8700 51.9698   5
  -6   6 -11 118.333 52.6478   2
  -6   6 -12 132.885 67.3043   2
  -6   6 -12 148.138 59.7803   5
  -6   6 -13 415.537 97.3770   2
  -6   6 -13 350.104 83.8071   5
  -6   6 -14 224.967 66.3007   5
  -6   6 -15-38.7956 49.4572   5
   6  -5 -15 95.0041 57.3900   1
   6  -5 -14 324.815 81.4570   1
   6  -5 -13 466.030 94.8223   1
   6  -5 -12 696.128 106.359   1
   6  -5 -11 1095.16 123.532   1
   6  -5 -10 2819.95 184.951   1
   6  -5  -9 1407.94 107.997   2
   6  -5  -9 1264.37 120.715   1
   6  -5  -8 437.803 60.3209   2
   6  -5  -8 447.168 74.1087   4
   6  -5  -8 534.396 82.7601   1
   6  -5  -7 63.3533 31.7962   2
   6  -5  -7 90.4592 44.2614   4
   6  -5  -7 137.606 36.5032   3
   6  -5  -7 76.1830 42.7159   1
   6  -5  -6-11.0089 27.3160   2
   6  -5  -6-9.78935 32.3715   1
   6  -5  -6-11.1604 22.9452   3
   6  -5  -6-6.92508 28.8574   4
   6  -5  -5 456.263 61.7717   3
   6  -5  -5 425.482 64.2640   1
   6  -5  -5 454.290 59.9674   4
   6  -5  -5 522.374 61.7642   2
   6  -5  -4 10.3484 26.1309   2
   6  -5  -4-2.38399 24.3835   1
   6  -5  -4 34.3691 31.2457   3
   6  -5  -4 24.0077 30.8143   4
   6  -5  -3 9.66640 23.7845   1
   6  -5  -3 58.9480 31.3157   4
   6  -5  -3-9.74259 32.4659   3
   6  -5  -3-4.03406 27.7397   2
   6  -5  -2 1227.96 96.9962   3
   6  -5  -2 1052.34 78.9144   4
   6  -5  -2 1190.30 92.6429   2
   6  -5  -2 942.439 75.7135   1
   6  -5  -1 21.1761 29.6091   3
   6  -5  -1 150.437 41.6576   2
   6  -5  -1 96.7879 30.9910   4
   6  -5  -1 108.984 25.1813   1
   6  -5   0 5336.28 201.723   3
   6  -5   0 5527.60 199.193   2
   6  -5   0 4672.28 155.174   4
   6  -5   1 12355.0 303.904   3
   6  -5   1 12493.0 305.315   2
   6  -5   2 5110.97 198.356   3
   6  -5   2 3323.12 133.467   4
   6  -5   3 19.0050 19.5976   4
   6  -5   3 15.9947 30.6521   3
   6  -5   4 295.951 61.2502   3
   6  -5   4 378.875 57.5782   4
   6  -5   5 1181.66 108.540   3
   6  -5   5 1328.33 96.9897   4
   6  -5   6 232.150 47.3066   4
   6  -5   6 191.434 48.2956   3
   6  -5   7 311.782 62.5893   3
   6  -5   8 100.552 46.7380   3
   6  -5   9-7.92838 39.0374   3
  -6   5  -9-12.5958 38.3038   5
   6  -5  10 72.1181 43.1213   3
  -6   5 -10 163.108 60.2080   5
  -6   5 -11 134.047 53.0209   5
  -6   5 -11 196.934 63.1655   2
  -6   5 -12 240.465 66.3038   5
  -6   5 -12 325.452 84.7616   2
  -6   5 -13 280.213 73.0079   5
  -6   5 -13 102.094 53.4094   2
  -6   5 -14 219.304 82.4313   2
  -6   5 -14 206.604 75.6498   5
  -6   5 -15-37.8280 58.7908   5
  -6   5 -16 33.0620 50.1622   5
   6  -4 -15 174.635 73.5973   1
   6  -4 -14 127.997 56.4801   1
   6  -4 -13 674.504 106.956   1
   6  -4 -12 781.351 111.518   1
   6  -4 -11 2095.11 169.347   1
   6  -4 -10 1804.12 149.685   1
   6  -4 -10 1840.98 127.866   2
   6  -4  -9 593.567 84.6179   1
   6  -4  -9 637.882 75.8684   2
   6  -4  -8 438.008 63.9545   2
   6  -4  -8 387.966 69.8738   1
   6  -4  -7 36.1012 29.7506   2
   6  -4  -7 64.4393 40.4406   1
   6  -4  -7-26.0683 32.9028   4
   6  -4  -6 81.6324 35.0034   2
   6  -4  -6-12.3912 33.9173   1
   6  -4  -6 31.6184 24.5142   3
   6  -4  -6 20.8282 28.2894   4
   6  -4  -5 397.770 54.5278   3
   6  -4  -5 627.252 69.4181   4
   6  -4  -5 639.992 70.5953   2
   6  -4  -5 672.725 82.0315   1
   6  -4  -4 444.002 55.5833   3
   6  -4  -4 449.524 56.3668   4
   6  -4  -4 463.447 61.2732   2
   6  -4  -4 454.254 63.1871   1
   6  -4  -3 337.127 51.7944   2
   6  -4  -3 300.025 49.8692   1
   6  -4  -3 427.226 58.2222   3
   6  -4  -3 382.811 49.4157   4
   6  -4  -2 340.785 54.3588   3
   6  -4  -2 377.556 47.0420   4
   6  -4  -2 467.029 59.9307   2
   6  -4  -2 405.744 55.0644   1
   6  -4  -1 617.550 65.3397   3
   6  -4  -1 482.454 50.8105   4
   6  -4  -1 498.650 55.6124   1
   6  -4  -1 641.671 69.1620   2
   6  -4   0 2454.97 132.920   3
   6  -4   0 2459.78 130.495   2
   6  -4   1 8806.99 246.043   3
   6  -4   1 9014.47 251.280   2
   6  -4   2 1872.25 113.926   3
   6  -4   2 1780.13 116.739   2
   6  -4   3 987.687 89.2783   3
   6  -4   3 816.679 63.8352   4
   6  -4   4 246.010 40.7335   4
   6  -4   4 315.981 58.0514   3
   6  -4   5 542.912 70.8821   3
   6  -4   5 458.794 55.7842   4
   6  -4   6 2078.35 136.292   3
   6  -4   7 34.3466 35.1958   3
   6  -4   8 78.3647 48.6000   3
   6  -4   9 360.173 70.4467   3
   6  -4  10 538.321 83.2122   3
  -6   4 -10 450.956 79.6902   5
   6  -4  11 324.728 66.2757   3
  -6   4 -11 276.592 67.8949   5
  -6   4 -11 358.667 80.4920   2
  -6   4 -12 74.0551 46.1625   2
  -6   4 -12 214.705 65.0984   5
  -6   4 -13 351.817 79.0899   2
  -6   4 -13 473.260 87.8492   5
  -6   4 -14 33.6791 54.5274   2
  -6   4 -14 190.438 65.6094   5
  -6   4 -15 244.016 80.8636   5
  -6   4 -15 79.1569 56.4735   2
  -6   4 -16 283.738 84.1873   5
  -6   4 -17 98.8172 66.2380   5
   6  -3 -15-11.9479 51.6542   1
   6  -3 -14 183.513 62.6829   1
   6  -3 -13 430.552 90.1588   1
   6  -3 -12 895.343 118.447   1
   6  -3 -11 298.133 60.2563   2
   6  -3 -11 313.871 71.8629   1
   6  -3 -10 197.267 53.8937   2
   6  -3 -10 167.421 53.7878   1
   6  -3  -9 723.142 96.1210   1
   6  -3  -9 677.591 78.3667   2
   6  -3  -8 222.138 50.9420   2
   6  -3  -8-24.2065 33.0575   1
   6  -3  -7-2.64755 25.6384   2
   6  -3  -7-0.74194 32.6818   1
   6  -3  -6 483.290 73.7558   1
   6  -3  -6 453.637 63.2417   2
   6  -3  -5 52.3691 25.0469   2
   6  -3  -5-8.72238 38.0782   1
   6  -3  -5 33.8090 24.7021   3
   6  -3  -5-2.27938 24.9769   4
   6  -3  -4 75.4810 31.6790   2
   6  -3  -4 100.248 39.6409   1
   6  -3  -4 86.0035 29.5039   3
   6  -3  -4 132.606 32.9921   4
   6  -3  -3-22.3966 32.0269   2
   6  -3  -3-12.1216 23.5105   1
   6  -3  -3 6.71439 23.4194   3
   6  -3  -3 17.7466 21.0496   4
   6  -3  -2 989.902 80.8912   3
   6  -3  -2 1051.61 70.1437   4
   6  -3  -2 1035.42 81.8710   1
   6  -3  -2 1105.93 86.8213   2
   6  -3  -1 730.060 70.9568   3
   6  -3  -1 767.472 68.9118   1
   6  -3  -1 469.394 46.0636   4
   6  -3  -1 717.779 69.7457   2
   6  -3   0 1122.24 87.1868   3
   6  -3   0 1049.74 83.8558   2
   6  -3   0 777.115 54.9646   4
   6  -3   1 2790.45 136.600   3
   6  -3   1 2795.07 136.510   2
   6  -3   1 2765.00 100.074   4
   6  -3   2 477.138 63.1806   3
   6  -3   2 592.405 67.8031   2
   6  -3   2 535.407 45.5898   4
   6  -3   3 404.744 58.6554   3
   6  -3   3 512.265 64.9435   2
   6  -3   3 469.923 44.1994   4
  -6   3  -4 529.993 51.0414   1
   6  -3   4 451.804 63.1697   3
   6  -3   4 420.062 45.7338   4
   6  -3   5 386.168 60.4065   3
  -6   3  -5 293.827 38.6626   1
   6  -3   6 7.43888 31.6372   3
   6  -3   7 990.037 93.6957   3
   6  -3   8 32.7751 42.7892   3
   6  -3   9 47.8185 39.8139   3
   6  -3  10 297.618 66.9415   3
   6  -3  11 644.503 88.0260   3
  -6   3 -11 710.425 89.2287   5
   6  -3  12 440.816 75.9780   3
  -6   3 -12 682.643 98.0416   5
  -6   3 -12 666.519 102.119   2
  -6   3 -13 743.880 107.470   2
  -6   3 -13 758.705 106.610   5
  -6   3 -14 60.6134 52.5659   2
  -6   3 -14 39.9526 52.6158   5
  -6   3 -15 197.767 70.7539   5
  -6   3 -16 148.422 77.0326   5
  -6   3 -17 100.918 66.6941   5
  -6   3 -18 46.3165 50.1082   5
   6  -2 -15 54.3602 46.0743   1
   6  -2 -14 61.8865 49.6212   1
   6  -2 -13 63.1343 47.0251   1
   6  -2 -12 491.847 81.2998   2
   6  -2 -12 349.277 77.3888   1
   6  -2 -11 1342.40 120.069   2
   6  -2 -11 1670.60 153.104   1
   6  -2 -10 68.8570 38.2949   2
   6  -2 -10-1.74728 44.3373   1
   6  -2  -9-10.4342 33.3269   2
   6  -2  -9 6.51262 37.3993   1
   6  -2  -8 24.5908 29.4809   2
   6  -2  -8-39.5255 33.5620   1
   6  -2  -7 420.164 62.4667   2
   6  -2  -7 466.283 75.8857   1
   6  -2  -6 802.856 90.8782   1
   6  -2  -6 687.236 76.8869   2
   6  -2  -5 111.378 40.1904   2
   6  -2  -5 97.2706 40.4997   1
   6  -2  -4 28.3153 31.3508   2
   6  -2  -4 14.0809 30.4341   1
   6  -2  -4 4.11531 17.6088   3
   6  -2  -3 1313.20 82.7443   3
   6  -2  -3 1319.24 80.7073   4
   6  -2  -3 1360.76 100.358   1
   6  -2  -3 1407.27 99.2222   2
   6  -2  -2 1459.39 86.7278   3
   6  -2  -2 1206.29 72.8212   4
   6  -2  -2 1290.28 94.4617   1
   6  -2  -2 1328.24 94.6152   2
   6  -2  -1 3047.77 128.099   3
   6  -2  -1 3127.70 137.373   1
   6  -2  -1 3022.91 141.057   2
   6  -2   0 4274.01 158.874   3
   6  -2   0 4439.56 117.759   4
   6  -2   0 4304.03 163.247   2
   6  -2   1 853.836 77.5765   3
   6  -2   1 759.546 47.9889   4
   6  -2   1 846.840 77.7518   2
   6  -2   2 2125.89 118.374   3
   6  -2   2 2120.74 117.408   2
   6  -2   2 1946.30 73.5859   4
   6  -2   3 459.246 59.3383   3
   6  -2   3 576.280 68.2609   2
   6  -2   3 554.912 41.6937   4
  -6   2  -4 199.202 35.2369   1
   6  -2   4 229.646 45.3347   2
   6  -2   4 166.734 43.5966   3
  -6   2  -5 14.8249 19.9588   1
   6  -2   5-12.3282 32.9082   3
   6  -2   6 754.020 81.3735   3
  -6   2  -6 818.420 67.5136   1
   6  -2   7 38.2383 41.3401   3
  -6   2  -7 41.9658 29.2404   1
   6  -2   8 853.483 91.3707   3
   6  -2   9 55.7000 39.9141   3
   6  -2  10 1613.32 128.121   3
   6  -2  11 685.265 91.8851   3
  -6   2 -11 804.434 97.0509   5
   6  -2  12 1075.79 112.809   3
  -6   2 -12 1261.57 126.436   5
  -6   2 -13 520.289 93.1481   2
  -6   2 -13 607.713 93.8443   5
  -6   2 -14 185.981 72.3764   2
  -6   2 -14 128.085 65.1189   5
  -6   2 -15 85.9501 57.5800   5
  -6   2 -16 112.123 59.5075   5
  -6   2 -17 116.510 68.5074   5
  -6   2 -18 57.8436 70.0880   5
   6  -1 -14 99.8314 47.2302   1
   6  -1 -13 4.44543 43.1087   1
   6  -1 -12 34.2191 44.6650   1
   6  -1 -12 3.15368 35.5798   2
   6  -1 -11 6.20162 41.6199   1
   6  -1 -11-48.4025 41.9987   2
   6  -1 -10 9.46032 44.5923   1
   6  -1 -10-6.54960 39.3539   2
   6  -1  -9 204.664 67.1904   1
   6  -1  -9 82.0369 36.0998   2
   6  -1  -8 91.7897 38.5436   1
   6  -1  -8 13.7639 30.1995   2
   6  -1  -7 726.585 93.6004   1
   6  -1  -7 850.376 92.8912   2
   6  -1  -6 4211.96 199.644   1
   6  -1  -6 4262.79 186.287   2
   6  -1  -5 34.0747 36.7674   1
   6  -1  -5 108.091 43.5467   2
   6  -1  -4 664.417 55.4681   3
   6  -1  -4 772.840 83.5620   1
   6  -1  -4 784.826 78.2466   2
   6  -1  -3 342.913 41.7408   3
   6  -1  -3 494.019 63.2307   1
   6  -1  -3 459.592 59.4711   2
   6  -1  -2 3602.28 130.370   3
   6  -1  -2 3901.78 160.156   1
   6  -1  -2 3829.65 160.910   2
   6  -1  -1 3257.45 144.045   1
   6  -1  -1 3121.29 126.640   3
   6  -1  -1 3088.44 140.633   2
   6  -1   0 1335.57 89.4915   3
   6  -1   0 1349.47 61.2233   4
   6  -1   0 1544.90 99.3107   2
   6  -1   1 1081.62 80.4307   3
   6  -1   1 1060.50 49.1497   4
   6  -1   1 1166.33 85.4385   2
   6  -1   2 411.824 55.3081   3
   6  -1   2 414.983 29.8112   4
   6  -1   2 480.243 58.0627   2
   6  -1   3 839.253 76.9497   2
   6  -1   3 830.348 77.8520   3
   6  -1   4 250.657 49.6169   3
   6  -1   4 378.492 56.3830   2
   6  -1   5 240.523 52.1020   3
  -6   1  -5 186.212 38.0031   1
   6  -1   5 209.230 42.5605   2
   6  -1   6 309.218 60.8225   3
  -6   1  -6 464.692 54.9174   1
  -6   1  -7 586.331 62.5250   1
   6  -1   7 629.123 72.3797   3
  -6   1  -8 1134.49 86.1071   1
   6  -1   8 1409.09 113.088   3
  -6   1  -9 13.9296 28.1972   1
   6  -1   9-26.4558 39.7177   3
   6  -1  10 1613.14 126.637   3
   6  -1  11 3732.76 194.637   3
   6  -1  12 2111.91 152.196   3
  -6   1 -12 2285.74 161.775   5
   6  -1  13 135.324 46.3218   3
  -6   1 -13 189.489 59.2466   5
  -6   1 -13 135.080 48.0060   2
  -6   1 -14 244.395 74.4219   5
  -6   1 -15 81.6118 53.2161   5
  -6   1 -16 196.221 71.0930   5
  -6   1 -17 15.6709 54.7918   5
  -6   1 -18 102.576 71.2188   5
  -6   1 -19 43.4752 57.1113   5
  -6   0  14 245.213 81.0255   4
   6   0 -14 389.007 91.6754   1
   6   0 -13 230.576 69.1620   1
   6   0 -13 98.5133 46.5918   2
   6   0 -12 206.784 75.0150   1
   6   0 -12 140.318 47.6772   2
   6   0 -11 47.0937 46.0146   1
   6   0 -11-27.5016 41.9863   2
   6   0 -10 34.6381 42.5624   1
   6   0 -10-5.10776 35.3162   2
   6   0  -9 220.578 63.4285   1
   6   0  -9 169.780 49.7291   2
   6   0  -8 80.7782 42.5246   1
   6   0  -8 52.3346 31.5626   2
   6   0  -7 1968.81 136.539   2
   6   0  -7 2042.52 148.140   1
   6   0  -6 585.778 70.5494   2
   6   0  -6 573.295 76.7335   1
   6   0  -5 221.558 48.4353   1
   6   0  -5 290.227 55.1984   2
   6   0  -4 360.593 60.0505   1
   6   0  -4 368.504 59.3202   2
   6   0  -3 541.387 47.7007   3
   6   0  -3 504.786 64.4226   1
   6   0  -3 698.407 74.2938   2
   6   0  -2 341.895 54.9971   1
   6   0  -2 287.287 49.5592   2
   6   0  -2 173.081 31.8167   3
   6   0  -1 3398.62 124.513   3
   6   0  -1 3317.13 147.225   1
   6   0  -1 3291.38 149.006   2
   6   0   0 8771.86 206.767   3
   6   0   0 9112.40 238.691   2
   6   0   1 493.823 56.4365   3
   6   0   1 494.702 59.9668   2
   6   0   2 35.9681 29.6184   2
   6   0   2-17.2609 26.4016   3
   6   0   3 24.4908 25.9446   3
   6   0   3 21.8057 29.7716   2
   6   0   4 255.346 48.8404   3
   6   0   4 304.930 50.0949   2
  -6   0  -5 1701.94 103.527   1
   6   0   5 1439.75 105.401   3
   6   0   5 1748.34 106.988   2
   6   0   6 351.924 51.1986   2
   6   0   6 361.819 59.6985   3
  -6   0  -6 370.199 49.8777   1
   6   0   7 2198.66 133.229   3
  -6   0  -7 2040.78 112.260   1
  -6   0  -8 1255.60 92.8969   1
   6   0   8 1244.19 103.788   3
  -6   0  -9 491.050 61.5698   1
   6   0   9 525.304 78.9419   3
   6   0  10 2539.80 156.979   3
  -6   0 -10 2732.25 145.741   1
   6   0  11 2584.53 161.336   3
  -6   0 -11 2415.28 144.929   1
   6   0  12 2067.32 149.876   3
  -6   0 -12 2075.70 150.892   5
   6   0  13 299.754 64.2953   3
  -6   0 -13 286.435 70.7173   5
   6   0  14 108.080 49.8813   3
  -6   0 -14-16.6227 44.6602   5
  -6   0 -15 36.5673 48.2238   5
  -6   0 -16 49.4221 48.7335   5
  -6   0 -17 23.1572 55.2223   5
  -6   0 -18 40.6816 64.2763   5
  -6   0 -19 66.8880 71.7483   5
   6   1 -14 111.653 63.3867   1
   6   1 -13 334.930 79.7101   1
  -6  -1  13 145.802 61.0303   4
   6   1 -13 241.042 69.7341   2
   6   1 -12 31.0099 53.9748   1
  -6  -1  12-66.4922 57.7838   4
   6   1 -12-35.0548 39.8072   2
   6   1 -11 48.8042 45.4366   1
   6   1 -11 51.7087 44.7383   2
   6   1 -10-3.53968 40.3170   1
   6   1 -10-49.6213 48.2780   2
   6   1  -9 120.980 50.6105   1
   6   1  -9 46.6314 35.5243   2
   6   1  -8 628.666 86.5393   2
   6   1  -8 782.629 96.3187   1
   6   1  -7 674.066 84.5937   2
   6   1  -7 699.596 86.9120   1
   6   1  -6 4778.37 211.319   2
   6   1  -6 4958.22 217.357   1
   6   1  -5 2976.65 160.030   2
   6   1  -5 2908.40 161.545   1
   6   1  -4-12.8540 28.2167   1
   6   1  -4 23.2388 28.3889   2
   6   1  -3 1354.04 103.986   1
   6   1  -3 1198.61 97.4880   2
   6   1  -2 1692.47 83.0167   3
   6   1  -2 1830.73 115.742   1
   6   1  -2 1915.70 115.600   2
   6   1  -1 309.546 51.3223   2
   6   1  -1 347.166 41.7453   3
   6   1   0 1790.35 95.7957   3
   6   1   0 1865.15 111.381   2
   6   1   1 4202.76 148.868   3
   6   1   1 4391.37 163.600   2
   6   1   2 606.189 63.9946   3
   6   1   2 619.782 67.6744   2
   6   1   3 72.2802 35.0625   2
   6   1   3 102.981 38.3909   3
   6   1   4 614.365 68.9820   3
   6   1   4 677.387 65.0686   2
   6   1   5 117.856 45.9834   3
  -6  -1  -5 31.5325 28.8545   1
   6   1   5 65.6469 32.6626   2
  -6  -1  -6 267.062 48.0319   1
   6   1   6 252.248 57.6055   3
   6   1   6 238.997 45.6596   2
  -6  -1  -7 180.598 38.3746   1
   6   1   7 246.506 52.3735   3
  -6  -1  -8 2795.99 141.301   1
   6   1   8 2737.07 151.530   3
  -6  -1  -9 3498.60 161.515   1
   6   1   9 3535.04 177.352   3
   6   1  10 1156.99 108.231   3
  -6  -1 -10 1265.48 104.623   1
   6   1  11 5865.21 240.530   3
  -6  -1 -11 5725.79 221.983   1
   6   1  12 166.335 56.0153   3
  -6  -1 -12 149.242 48.3111   1
  -6  -1 -13 239.620 63.5325   5
   6   1  13 181.583 58.4973   3
  -6  -1 -13 200.975 52.8551   1
   6   1  14 51.1087 42.9816   3
  -6  -1 -14-57.4121 47.9405   5
  -6  -1 -15 44.9721 43.4679   5
  -6  -1 -16-34.5502 48.2548   5
  -6  -1 -17 96.9226 63.4725   5
  -6  -1 -18-55.1305 49.5868   5
  -6  -1 -19 134.382 72.6174   5
  -6  -1 -20 53.4237 63.9241   5
   6   2 -13 53.4027 43.9560   1
  -6  -2  13 84.9410 61.0779   4
   6   2 -13-62.7424 45.3073   2
   6   2 -12 73.1452 44.6540   1
  -6  -2  12-48.5341 46.8877   4
   6   2 -12 17.5718 42.9607   2
   6   2 -11 48.8231 43.1812   1
  -6  -2  11-4.62323 43.8284   4
   6   2 -11-47.1219 42.1268   2
   6   2 -10 23.7311 43.2264   1
   6   2 -10-11.9635 39.9261   2
   6   2  -9 264.705 59.3660   1
  -6  -2   9 273.450 68.7815   4
   6   2  -9 227.050 60.7451   2
   6   2  -8 845.944 101.333   2
  -6  -2   8 963.988 111.411   4
   6   2  -8 999.852 111.150   1
   6   2  -7 798.876 94.2794   2
   6   2  -7 663.210 88.9020   1
   6   2  -6 1143.31 107.715   2
   6   2  -6 1075.60 105.187   1
   6   2  -5 7228.39 256.483   2
   6   2  -5 7150.05 252.377   1
   6   2  -4 3885.91 183.982   2
   6   2  -4 4036.39 182.846   1
   6   2  -3 1912.51 126.745   2
   6   2  -3 1945.78 125.768   1
   6   2  -2 2013.95 87.2865   3
   6   2  -2 2254.61 132.110   1
   6   2  -2 2040.64 126.670   2
  -6  -2   1-32.1792 22.1630   4
   6   2  -1-22.1276 29.2574   2
   6   2  -1 3.10119 15.8449   3
  -6  -2   0 901.291 53.3307   4
   6   2   0 989.058 69.6481   3
   6   2   0 1040.12 86.9390   2
  -6  -2  -1 14.3448 10.0705   4
   6   2   1-15.7512 23.9072   3
   6   2   2 413.854 53.7930   2
   6   2   2 409.648 55.8298   3
   6   2   3 2133.55 114.666   3
   6   2   3 2158.56 114.154   2
   6   2   4 56.3292 24.8262   2
   6   2   4 69.5814 31.0279   3
  -6  -2  -5 243.812 48.5877   1
   6   2   5 267.809 52.5800   3
   6   2   5 220.816 42.3546   2
  -6  -2  -6 259.248 44.0660   1
   6   2   6 308.607 57.3272   3
   6   2   6 279.023 44.8413   2
   6   2   7 782.101 70.8672   2
   6   2   7 926.211 88.0511   3
  -6  -2  -7 779.090 74.2201   1
  -6  -2  -8 2355.20 131.439   1
   6   2   8 2547.47 146.611   3
  -6  -2  -9 4175.26 179.495   1
   6   2   9 4245.30 192.791   3
  -6  -2 -10 442.362 66.7830   1
   6   2  10 443.723 74.2948   3
   6   2  11 583.145 88.2552   3
  -6  -2 -11 485.885 76.3026   1
   6   2  12 2022.06 150.522   3
  -6  -2 -12 1927.33 138.954   1
   6   2  13 125.870 62.0956   3
  -6  -2 -13 72.5676 39.4910   1
  -6  -2 -13 75.5483 46.9458   5
   6   2  14 224.495 61.9623   3
  -6  -2 -14 255.424 66.6337   1
  -6  -2 -14 121.590 53.3796   5
   6   2  15-59.8474 41.1011   3
  -6  -2 -15 42.0106 44.8884   5
  -6  -2 -16 50.2041 54.3315   5
  -6  -2 -17 60.6275 57.9199   5
  -6  -2 -18-63.5532 63.2928   5
  -6  -2 -19 156.297 77.3251   5
  -6  -2 -20 367.905 97.8735   5
   6   3 -13-9.25201 49.9137   2
   6   3 -12 28.5427 36.5751   1
  -6  -3  12-7.62201 43.5552   4
   6   3 -12-7.85834 41.3734   2
   6   3 -11 13.2395 32.9890   1
  -6  -3  11 6.80979 43.9952   4
   6   3 -11 18.4061 48.2673   2
   6   3 -10 26.8965 42.0310   1
  -6  -3  10 36.9271 52.4805   4
   6   3 -10 25.1700 39.9134   2
   6   3  -9 253.501 64.0701   1
  -6  -3   9 284.487 77.7944   4
   6   3  -9 53.2149 49.4090   2
   6   3  -8 1799.88 150.769   2
  -6  -3   8 1911.31 150.350   4
   6   3  -8 1936.57 147.596   1
   6   3  -7 1350.70 127.801   2
  -6  -3   7 1302.01 123.078   4
   6   3  -7 1279.65 118.132   1
   6   3  -6 2004.11 146.138   2
  -6  -3   6 2163.91 146.347   4
   6   3  -6 2248.48 153.059   1
   6   3  -5 636.575 84.0943   2
  -6  -3   5 764.497 82.9886   4
   6   3  -5 961.111 96.7146   1
   6   3  -4 2551.00 153.284   2
  -6  -3   4 2472.46 136.103   4
   6   3  -4 2554.60 148.325   1
   6   3  -3 3345.90 168.644   2
  -6  -3   3 3393.68 147.721   4
   6   3  -3 3499.18 168.539   1
   6   3  -2 2098.79 130.742   2
  -6  -3   2 2360.81 113.829   4
   6   3  -2 2349.79 136.988   1
  -6  -3   1 347.160 41.9340   4
   6   3  -1 375.999 58.8559   2
   6   3  -1 339.339 41.5730   3
  -6  -3   0 71.5245 25.3330   4
   6   3   0 18.0594 26.5314   2
   6   3   0 75.9662 26.3661   3
  -6  -3  -1 131.553 23.7653   4
   6   3   1 86.7297 31.5240   2
   6   3   1 138.455 35.0450   3
   6   3   2 681.038 65.3779   3
   6   3   2 708.390 70.2983   2
   6   3   3 3637.76 148.809   3
   6   3   3 3592.80 146.544   2
   6   3   4 5494.60 186.404   3
   6   3   4 5721.99 182.674   2
  -6  -3  -5 3957.92 165.722   1
   6   3   5 3885.59 164.434   3
   6   3   5 4071.22 151.346   2
   6   3   6 2136.75 128.965   3
   6   3   6 2119.72 110.705   2
  -6  -3  -6 2216.15 128.752   1
   6   3   7 217.744 48.4161   3
   6   3   7 321.516 47.5804   2
  -6  -3  -7 374.653 56.6471   1
  -6  -3  -8 2652.67 141.413   1
   6   3   8 2625.85 151.976   3
   6   3   8 2796.46 131.717   2
  -6  -3  -9 4695.18 192.826   1
   6   3   9 4780.59 210.384   3
  -6  -3 -10 1324.10 112.733   1
   6   3  10 1598.62 130.100   3
  -6  -3 -11 74.8969 38.9353   1
   6   3  11 179.238 54.3669   3
   6   3  12 959.859 105.468   3
  -6  -3 -12 914.323 98.4495   1
  -6  -3 -13 56.5403 37.0715   5
   6   3  13 38.0907 48.9618   3
  -6  -3 -13-18.2261 41.0221   1
  -6  -3 -14 154.038 56.6159   5
   6   3  14 188.399 63.5635   3
  -6  -3 -14 202.239 56.5913   1
  -6  -3 -15 38.7342 33.5835   1
   6   3  15 113.604 49.0092   3
  -6  -3 -15 20.2473 38.6105   5
  -6  -3 -16 70.2306 47.2055   1
   6   3  16 106.227 55.8985   3
  -6  -3 -16 55.7928 51.2552   5
  -6  -3 -17 132.573 66.9106   5
  -6  -3 -18-16.7074 54.2485   5
  -6  -3 -19 331.096 91.0283   5
  -6  -3 -20 484.618 106.066   5
  -6  -3 -21 267.997 90.2942   5
  -6  -4  12 47.4656 55.5055   4
   6   4 -12-73.6173 51.6301   2
   6   4 -11 19.7154 40.7636   1
  -6  -4  11 55.4455 45.4877   4
   6   4 -11-26.2047 49.4819   2
   6   4 -10 1.70684 33.3846   1
  -6  -4  10 43.9812 51.2286   4
   6   4 -10-4.03724 42.6475   2
   6   4  -9 490.852 82.2091   1
  -6  -4   9 462.000 86.4588   4
   6   4  -9 447.517 83.3951   2
  -6  -4   8 1210.03 130.648   4
   6   4  -8 1196.01 130.221   2
   6   4  -8 1217.95 120.569   1
   6   4  -7 1511.68 138.475   2
  -6  -4   7 1611.18 137.565   4
   6   4  -7 1465.42 129.130   1
  -6  -4   6 708.908 90.6171   4
   6   4  -6 561.313 86.5344   2
   6   4  -6 472.179 77.6684   1
   6   4  -5 705.757 91.7515   2
  -6  -4   5 681.654 83.8055   4
   6   4  -5 721.537 88.0653   1
   6   4  -4 2029.21 144.704   2
  -6  -4   4 2160.22 132.932   4
   6   4  -4 2176.98 141.628   1
   6   4  -3 601.054 78.9641   2
  -6  -4   3 719.233 75.7445   4
   6   4  -3 647.356 81.7524   1
  -6  -4   2 117.571 36.0420   4
   6   4  -2 93.6206 37.5237   2
  -6  -4   1 32.8612 24.1361   4
   6   4  -1-70.2035 43.7901   2
  -6  -4   0 333.103 42.2133   4
   6   4   0 255.463 49.7899   2
   6   4   0 222.930 35.3204   3
  -6  -4  -1 10.0198 14.0197   4
   6   4   1 8.19049 24.1585   2
   6   4   1 24.9291 21.1916   3
   6   4   2 365.136 51.8150   2
   6   4   2 405.479 50.3891   3
   6   4   3 3550.49 145.146   3
   6   4   3 3664.04 148.948   2
   6   4   4 4123.28 163.270   3
   6   4   4 4358.70 160.312   2
  -6  -4  -5 3519.58 161.662   1
   6   4   5 3567.07 156.503   3
   6   4   5 3755.73 145.748   2
  -6  -4  -6 3528.84 163.960   1
   6   4   6 3414.03 160.183   3
   6   4   6 3635.86 141.716   2
   6   4   7 1559.20 114.565   3
  -6  -4  -7 1722.66 114.613   1
   6   4   7 1691.55 98.1503   2
   6   4   8 1026.82 99.2164   3
  -6  -4  -8 1041.48 93.9855   1
   6   4   8 1256.54 87.1692   2
  -6  -4  -9 820.471 85.7819   1
   6   4   9 680.703 82.2092   3
  -6  -4 -10 739.170 86.7335   1
   6   4  10 796.256 93.0002   3
  -6  -4 -11 3.41358 31.3141   1
   6   4  11 66.3013 44.4930   3
   6   4  12 1101.75 115.028   3
  -6  -4 -12 1059.31 107.146   1
   6   4  13 108.965 49.8635   3
  -6  -4 -13 238.161 63.6185   1
   6   4  14 223.167 65.6216   3
  -6  -4 -14 177.649 56.4979   5
  -6  -4 -14 167.964 53.4019   1
   6   4  15 299.949 67.3100   3
  -6  -4 -15 238.372 69.2816   1
  -6  -4 -15 71.4573 48.3684   5
  -6  -4 -16 147.530 52.1181   1
  -6  -4 -16 171.236 57.8752   5
   6   4  16 133.924 52.1587   3
  -6  -4 -17 179.304 57.2076   1
  -6  -4 -17 114.288 59.6295   5
  -6  -4 -18 142.747 59.7036   5
  -6  -4 -19-34.7047 51.2727   5
  -6  -4 -20 305.965 91.5704   5
  -6  -4 -21 346.745 99.1627   5
  -6  -5  11 231.324 73.7882   4
   6   5 -11 215.262 68.0523   2
  -6  -5  10 230.554 76.0977   4
   6   5 -10 317.557 85.5306   2
   6   5  -9 511.782 86.7985   1
  -6  -5   9 668.068 104.914   4
   6   5  -9 518.912 95.2124   2
  -6  -5   8 1075.30 123.884   4
   6   5  -8 1141.96 130.823   2
   6   5  -8 961.292 110.101   1
  -6  -5   7 1512.43 139.516   4
   6   5  -7 1264.54 136.238   2
   6   5  -7 1500.47 132.305   1
  -6  -5   6 340.443 65.1903   4
   6   5  -6 348.318 76.3060   2
   6   5  -6 356.776 69.0118   1
  -6  -5   5 69.0890 39.9262   4
   6   5  -5 44.1701 35.4740   2
   6   5  -5 69.0681 39.9471   1
  -6  -5   4 583.517 75.4951   4
   6   5  -4 466.750 77.0562   2
   6   5  -4 531.871 78.1738   1
  -6  -5   3 606.516 72.5901   4
   6   5  -3 458.483 69.9271   2
  -6  -5   2-33.1189 28.6484   4
   6   5  -2 1.27304 32.8900   2
  -6  -5   1 406.884 53.5762   4
   6   5  -1 329.954 58.8596   2
  -6  -5   0 166.488 33.9322   4
   6   5   0 102.675 32.2065   2
   6   5   0 212.188 38.7277   3
  -6  -5  -1 173.412 31.6561   4
   6   5   1 159.142 42.2755   2
   6   5   1 132.063 30.7627   3
   6   5   2 1855.93 104.762   3
   6   5   2 1854.25 113.460   2
   6   5   3 2137.16 116.863   3
   6   5   3 2045.96 115.934   2
   6   5   4 3415.83 152.420   3
   6   5   4 3432.62 144.098   2
  -6  -5  -5 1843.39 122.370   1
   6   5   5 1799.81 102.398   2
   6   5   5 1993.36 119.654   3
  -6  -5  -6 626.734 74.5281   1
   6   5   6 750.008 81.6224   3
   6   5   6 607.672 59.8762   2
   6   5   7 582.170 75.1093   3
  -6  -5  -7 645.838 75.6517   1
   6   5   7 553.395 57.9688   2
  -6  -5  -8 337.157 55.8446   1
   6   5   8 322.500 60.2571   3
   6   5   8 339.388 46.7394   2
  -6  -5  -9 2063.38 132.761   1
   6   5   9 2061.13 138.342   3
   6   5   9 1993.11 106.130   2
   6   5  10 244.403 61.6899   3
  -6  -5 -10 327.633 61.5248   1
  -6  -5 -11 977.301 102.601   1
   6   5  11 1071.62 109.117   3
  -6  -5 -12 133.735 51.8869   1
   6   5  12 100.463 47.1734   3
  -6  -5 -13 492.362 84.3646   1
   6   5  13 575.653 90.3415   3
   6   5  14 527.496 87.9404   3
  -6  -5 -14 455.932 76.2316   5
  -6  -5 -14 452.568 79.1184   1
  -6  -5 -15 167.847 56.1376   5
   6   5  15 99.0002 56.6057   3
  -6  -5 -15 123.494 55.6032   1
  -6  -5 -16 199.449 66.2021   5
  -6  -5 -16 385.852 81.5895   1
   6   5  16 257.661 66.9436   3
  -6  -5 -17 139.629 52.8558   1
   6   5  17 214.751 69.4120   3
  -6  -5 -17 271.323 73.4825   5
  -6  -5 -18 125.540 56.1237   1
  -6  -5 -18-100.433 59.0684   5
  -6  -5 -19 71.0377 54.2950   1
  -6  -5 -19-35.1993 54.2638   5
  -6  -5 -20 252.873 85.9708   5
  -6  -5 -21 324.052 98.2697   5
  -6  -6  10 319.749 82.8359   4
   6   6 -10 319.647 87.3892   2
  -6  -6   9 458.338 94.3987   4
   6   6  -9 529.680 104.050   2
  -6  -6   8 636.986 99.0782   4
   6   6  -8 617.031 107.372   2
  -6  -6   7 520.512 88.3887   4
   6   6  -7 363.433 69.4239   1
  -6  -6   6 218.270 66.3622   4
   6   6  -6 194.843 63.6369   2
   6   6  -6 252.006 63.4054   1
  -6  -6   5 101.436 42.0476   4
   6   6  -5 125.167 63.7187   2
  -6  -6   4 10.5841 33.5395   4
   6   6  -4 21.6301 42.1068   2
  -6  -6   3 547.942 73.7582   4
   6   6  -3 495.112 80.6993   2
  -6  -6   2 1142.67 96.8130   4
   6   6  -2 1224.51 115.011   2
  -6  -6   1 66.6746 28.9887   4
   6   6  -1 58.7639 36.2804   2
  -6  -6   0 14.8804 27.2623   4
   6   6   0 76.5845 34.7923   2
   6   6   1 1384.69 106.614   2
   6   6   1 1210.45 83.2180   3
   6   6   2 1793.88 114.504   2
   6   6   2 1693.38 103.621   3
   6   6   3 2170.87 121.345   3
   6   6   3 2223.27 122.988   2
   6   6   4 3240.42 149.503   3
   6   6   4 3218.52 141.813   2
  -6  -6  -5 1372.54 108.436   1
   6   6   5 1501.84 108.463   3
   6   6   5 1526.52 98.1090   2
   6   6   6 313.595 56.5788   3
  -6  -6  -6 385.779 65.4775   1
   6   6   6 364.646 49.9137   2
  -6  -6  -7 312.547 60.7696   1
   6   6   7 200.787 39.0114   2
   6   6   7 248.232 53.9312   3
  -6  -6  -8 20.2808 29.5518   1
   6   6   8 106.440 46.5361   3
   6   6   8 92.0608 28.6960   2
  -6  -6  -9 259.689 55.7413   1
   6   6   9 323.054 62.9144   3
  -6  -6 -10 69.5425 47.3441   1
   6   6  10 106.722 48.1142   3
  -6  -6 -11 0.00000 34.6373   1
   6   6  11-21.3871 38.7192   3
   6   6  12 1515.32 133.879   3
  -6  -6 -12 1511.94 129.740   1
   6   6  13 2027.90 152.584   3
  -6  -6 -13 1642.50 141.869   1
   6   6  14 1522.70 138.121   3
  -6  -6 -14 1254.19 115.557   5
  -6  -6 -14 1444.14 136.001   1
   6   6  15 592.520 93.3871   3
  -6  -6 -15 578.278 87.2167   5
  -6  -6 -15 588.374 97.1477   1
   6   6  16 355.955 80.9074   3
  -6  -6 -16 354.709 77.1078   1
  -6  -6 -16 480.774 82.2834   5
  -6  -6 -17 365.463 81.2441   1
   6   6  17 289.388 77.3311   3
  -6  -6 -17 297.932 79.2033   5
  -6  -6 -18 146.261 66.0184   5
  -6  -6 -18 100.280 56.6420   1
  -6  -6 -19 122.600 53.1955   1
  -6  -6 -19 164.489 66.4737   5
  -6  -6 -20 71.7227 52.5342   5
  -6  -6 -21 350.183 91.6876   5
  -6  -7   9 182.169 74.3264   4
   6   7  -9 155.916 70.3480   2
  -6  -7   8 199.055 65.2538   4
   6   7  -8 227.032 77.5036   2
  -6  -7   7 159.174 61.2064   4
   6   7  -7 205.690 78.0127   2
  -6  -7   6 100.641 50.5681   4
   6   7  -6 89.0218 57.9230   2
  -6  -7   5-3.51853 35.8513   4
   6   7  -5 81.5048 57.7704   2
  -6  -7   4 81.5594 37.7683   4
   6   7  -4 98.7766 53.9498   2
  -6  -7   3 811.222 91.5518   4
   6   7  -3 922.008 108.776   2
  -6  -7   2 1042.44 95.0111   4
   6   7  -2 1050.12 107.725   2
  -6  -7   1 46.5011 31.7581   4
   6   7  -1-8.03358 32.9490   2
  -6  -7   0 224.274 44.5356   4
   6   7   0 184.301 51.1270   2
   6   7   1 1792.33 123.859   2
  -6  -7  -1 1589.47 97.5654   4
   6   7   2 1443.26 108.449   2
   6   7   2 1141.01 87.5149   3
   6   7   3 1430.64 102.149   2
   6   7   3 1278.02 94.1894   3
   6   7   4 421.615 59.0281   3
   6   7   4 464.681 59.2942   2
  -6  -7  -5 1465.99 113.433   1
   6   7   5 1580.09 114.235   3
   6   7   5 1232.00 90.3640   2
  -6  -7  -6 747.230 87.3166   1
   6   7   6 708.139 81.5790   3
   6   7   6 615.885 63.6756   2
  -6  -7  -7 24.0395 35.5608   1
   6   7   7 8.35959 20.7279   2
   6   7   7 28.0834 33.3321   3
  -6  -7  -8 562.926 76.9730   1
   6   7   8 550.104 74.6588   3
  -6  -7  -9 315.990 57.7361   1
   6   7   9 398.813 68.1523   3
   6   7  10 41.5050 42.5938   3
  -6  -7 -10-35.6804 33.7824   1
   6   7  11 370.293 73.9182   3
  -6  -7 -11 299.947 63.2547   1
  -6  -7 -12 2043.93 151.600   1
   6   7  12 2298.75 161.791   3
   6   7  13 1187.85 124.822   3
  -6  -7 -13 917.522 105.813   1
   6   7  14 674.781 100.235   3
  -6  -7 -14 998.693 102.749   5
  -6  -7 -14 986.772 115.614   1
  -6  -7 -15 725.734 108.925   1
   6   7  15 806.624 110.286   3
  -6  -7 -15 818.472 99.8452   5
   6   7  16 556.925 94.5418   3
  -6  -7 -16 534.247 84.3836   5
  -6  -7 -16 673.491 102.335   1
  -6  -7 -17 174.656 69.7858   1
   6   7  17 67.2630 47.8701   3
  -6  -7 -17 125.350 52.3033   5
  -6  -7 -18 52.9718 42.3493   1
  -6  -7 -18 15.0105 44.6380   5
  -6  -7 -19 163.247 61.1939   5
  -6  -7 -19 82.0204 42.7879   1
  -6  -7 -20 203.559 72.9566   5
  -6  -7 -21 115.622 69.4740   5
  -6  -8   9 89.9652 61.4024   4
  -6  -8   8 36.4224 53.9836   4
   6   8  -8 47.9595 63.2723   2
  -6  -8   7 106.057 54.3263   4
   6   8  -7 140.507 66.7956   2
  -6  -8   6 49.2294 40.2118   4
   6   8  -6 82.0244 49.4557   2
  -6  -8   5 100.562 51.1431   4
   6   8  -5 117.047 61.5850   2
  -6  -8   4 77.6422 46.7279   4
   6   8  -4 57.4579 44.1891   2
  -6  -8   3 335.111 63.3229   4
   6   8  -3 295.552 70.7155   2
  -6  -8   2 749.086 87.2800   4
   6   8  -2 653.280 91.7592   2
  -6  -8   1 715.227 82.9834   4
   6   8  -1 801.490 94.9317   2
  -6  -8   0 472.079 66.7522   4
   6   8   0 515.751 76.0089   2
   6   8   1 2062.06 141.279   2
  -6  -8  -1 2153.45 123.527   4
   6   8   2 1615.40 117.042   2
   6   8   2 1284.36 93.0598   3
   6   8   3 2418.06 138.413   2
   6   8   3 2536.49 133.222   3
   6   8   4 584.906 71.7483   3
   6   8   4 583.726 68.5994   2
   6   8   5 166.873 44.0073   2
  -6  -8  -5 232.380 52.5606   1
   6   8   5 87.7263 37.2091   3
   6   8   6 1114.98 103.219   3
   6   8   6 894.517 76.6869   2
  -6  -8  -6 981.901 99.6735   1
   6   8   7 101.241 32.0005   2
   6   8   7 136.785 49.0339   3
  -6  -8  -7 65.1012 36.3409   1
  -6  -8  -8-10.3786 33.3103   1
   6   8   8-7.72150 41.2734   3
  -6  -8  -9 63.3722 41.6952   1
   6   8   9 51.6677 45.0575   3
   6   8  10 457.767 77.9879   3
  -6  -8 -10 446.926 73.0428   1
   6   8  11 258.778 68.7259   3
  -6  -8 -11 133.598 54.2411   1
  -6  -8 -12 354.237 70.0206   1
   6   8  12 375.067 79.4805   3
   6   8  13 1433.92 134.585   3
  -6  -8 -13 1606.50 144.165   1
   6   8  14 821.781 108.248   3
  -6  -8 -14 705.365 84.4257   5
  -6  -8 -14 845.729 111.165   1
   6   8  15 529.388 98.7930   3
  -6  -8 -15 438.832 74.2188   5
  -6  -8 -15 514.263 96.1315   1
   6   8  16 447.488 88.1945   3
  -6  -8 -16 390.768 74.8099   5
  -6  -8 -16 453.409 90.2724   1
  -6  -8 -17 175.364 61.9611   1
   6   8  17 167.671 64.9864   3
  -6  -8 -17 161.281 56.8496   5
  -6  -8 -18 141.733 64.8499   1
   6   8  18 143.924 69.2939   3
  -6  -8 -18 143.680 52.5792   5
  -6  -8 -19 82.6453 53.0943   5
  -6  -8 -19 43.5598 54.7296   1
   6   8  19 80.6957 61.1067   3
  -6  -8 -20 95.2545 52.6547   5
  -6  -8 -21 48.9509 46.7402   5
  -6  -9   8 277.229 76.5331   4
  -6  -9   7 59.9901 55.9165   4
   6   9  -7 181.481 74.9811   2
  -6  -9   6 21.1699 36.8700   4
   6   9  -6 8.04800 45.8620   2
  -6  -9   5 95.9252 41.1745   4
   6   9  -5 150.441 66.7171   2
  -6  -9   4 408.414 76.4882   4
   6   9  -4 528.089 98.1638   2
  -6  -9   3 840.130 99.7706   4
   6   9  -3 863.335 115.644   2
  -6  -9   2 402.346 74.3574   4
   6   9  -2 312.124 73.2758   2
  -6  -9   1 662.264 84.0427   4
   6   9  -1 810.485 101.455   2
   6   9   0 1315.74 121.439   2
  -6  -9   0 1354.04 110.903   4
   6   9   1 577.538 81.8297   2
  -6  -9  -1 772.180 81.1769   4
   6   9   2 2137.86 142.636   2
   6   9   3 1531.63 114.829   2
   6   9   3 1713.57 114.824   3
   6   9   4 435.461 59.8460   2
  -6  -9  -4 474.873 75.9072   1
   6   9   4 546.375 69.9287   3
   6   9   5 185.265 50.7493   3
   6   9   5 110.300 37.6218   2
  -6  -9  -5 171.543 54.7638   1
   6   9   6 87.5430 35.2962   2
  -6  -9  -6 73.2174 36.0320   1
   6   9   6 80.0973 46.2341   3
   6   9   7 186.411 60.4448   3
  -6  -9  -7 48.2702 31.6927   1
  -6  -9  -8 8.26899 36.2891   1
   6   9   8 8.44140 36.0695   3
  -6  -9  -9 218.381 54.5002   1
   6   9   9 293.706 71.1746   3
  -6  -9 -10 695.879 94.5626   1
   6   9  10 697.395 91.9486   3
   6   9  11 57.1725 48.7191   3
  -6  -9 -11-17.7314 39.2587   1
  -6  -9 -12 276.976 67.5158   1
   6   9  12 205.783 60.5603   3
   6   9  13 1678.27 146.632   3
  -6  -9 -13 1517.09 143.209   1
   6   9  14 1022.89 116.162   3
  -6  -9 -14 945.356 115.098   1
   6   9  15 701.119 105.136   3
  -6  -9 -15 543.505 91.6951   1
   6   9  16 353.611 82.5123   3
  -6  -9 -16 395.163 73.1037   5
  -6  -9 -16 203.610 64.6561   1
   6   9  17 159.665 67.7087   3
  -6  -9 -17 61.2926 43.4961   1
  -6  -9 -17 222.419 59.4619   5
  -6  -9 -18 33.2827 41.3539   1
   6   9  18 119.190 61.1028   3
  -6  -9 -18 54.6392 47.7854   5
  -6  -9 -19-21.5134 50.7762   5
   6   9  19-96.8378 62.5198   3
  -6  -9 -20 120.505 49.7758   5
  -6  -9 -21 45.9635 50.5716   5
  -6 -10   7 138.161 60.0543   4
  -6 -10   6 147.500 64.9044   4
   6  10  -6 322.741 86.8266   2
  -6 -10   5 285.903 73.0439   4
   6  10  -5 354.999 83.2117   2
  -6 -10   4 394.825 75.5840   4
   6  10  -4 651.962 109.784   2
  -6 -10   3 545.659 89.7963   4
   6  10  -3 726.383 106.933   2
  -6 -10   2 882.038 102.880   4
   6  10  -2 814.205 114.167   2
  -6 -10   1 359.921 71.0912   4
   6  10  -1 358.816 73.9023   2
   6  10   0 694.226 93.8393   2
  -6 -10   0 753.833 91.6517   4
   6  10   1 738.917 91.1205   2
  -6 -10  -1 803.754 89.4723   4
   6  10   2 1727.36 133.365   2
   6  10   3 825.425 90.5736   2
   6  10   4 46.9901 33.3911   2
  -6 -10  -4 104.026 45.8856   1
   6  10   5 24.0870 26.9085   2
   6  10   5 47.5727 38.7884   3
  -6 -10  -5 34.7746 38.6311   1
  -6 -10  -6-29.5668 34.4708   1
   6  10   6 78.1798 43.5815   3
   6  10   7 577.713 81.4683   3
  -6 -10  -7 455.511 71.2420   1
  -6 -10  -8 1690.95 131.061   1
   6  10   8 1606.54 131.785   3
  -6 -10  -9 197.665 56.4585   1
   6  10   9 229.774 58.5409   3
  -6 -10 -10 1357.16 123.771   1
   6  10  10 1401.26 127.301   3
  -6 -10 -11 631.933 91.7904   1
   6  10  11 646.846 90.0676   3
  -6 -10 -12 199.779 60.3288   1
   6  10  12 38.9776 41.8627   3
   6  10  13 1270.59 132.595   3
  -6 -10 -13 1329.24 136.224   1
   6  10  14 1285.76 140.781   3
  -6 -10 -14 1336.71 143.409   1
  -6 -10 -15 496.317 92.4185   1
   6  10  15 525.541 100.063   3
   6  10  16 99.6380 60.4249   3
  -6 -10 -16 27.1558 47.7491   1
   6  10  17 107.856 66.4609   3
  -6 -10 -17 111.745 57.9403   1
  -6 -10 -18 43.9545 44.7198   1
   6  10  18 49.0877 50.9637   3
   6  10  19 9.32862 47.5095   3
  -6 -11   6 296.058 77.6456   4
  -6 -11   5 392.426 94.2451   4
   6  11  -5 490.502 100.502   2
  -6 -11   4 705.001 103.811   4
   6  11  -4 543.695 100.173   2
  -6 -11   3 1202.62 134.813   4
   6  11  -3 1071.57 132.364   2
  -6 -11   2 407.875 77.8630   4
   6  11  -2 711.270 105.994   2
  -6 -11   1 106.966 47.5421   4
   6  11  -1 134.941 62.3318   2
  -6 -11   0 23.6837 34.1798   4
   6  11   0 164.578 57.2045   2
   6  11   1 56.2039 36.8611   2
   6  11   2 1366.29 123.540   2
   6  11   3 632.016 77.1063   2
  -6 -11  -3 525.049 75.0717   1
   6  11   4 229.213 50.5246   2
  -6 -11  -4 309.893 61.5126   1
   6  11   4 262.904 54.3344   3
  -6 -11  -5 68.3494 37.4883   1
   6  11   5 67.6017 45.5462   3
  -6 -11  -6 74.1035 37.8209   1
   6  11   6 59.8899 34.4663   3
  -6 -11  -7 355.543 66.8554   1
   6  11   7 478.893 80.9225   3
  -6 -11  -8 993.089 104.432   1
   6  11   8 1251.48 121.911   3
  -6 -11  -9 584.239 82.4822   1
   6  11   9 595.283 88.8476   3
   6  11  10 177.623 66.9555   3
  -6 -11 -10 116.824 47.7629   1
   6  11  11 98.3550 53.6482   3
  -6 -11 -11 38.6311 39.2604   1
  -6 -11 -12 1668.26 145.583   1
   6  11  12 1777.16 153.179   3
  -6 -11 -13 299.196 67.8320   1
   6  11  13 216.282 61.8516   3
   6  11  14 683.682 108.892   3
  -6 -11 -14 750.196 110.805   1
  -6 -11 -15 502.076 95.5784   1
   6  11  15 539.979 101.612   3
   6  11  16 59.5727 60.2810   3
  -6 -11 -16 58.9971 51.0491   1
   6  11  17 135.511 65.3951   3
  -6 -11 -17 150.195 67.4910   1
  -6 -11 -18 204.906 71.1746   1
   6  11  18 53.2347 47.6304   3
   6  11  19 57.2456 72.8996   3
  -6 -12   5 496.430 102.067   4
   6  12  -4 875.198 130.733   2
  -6 -12   4 798.399 116.428   4
   6  12  -3 873.356 121.922   2
  -6 -12   3 1178.10 136.277   4
  -6 -12   2 441.045 83.7680   4
   6  12  -2 542.832 101.585   2
  -6 -12   1 132.055 52.6838   4
   6  12  -1 124.849 58.5743   2
   6  12   0 152.980 59.6803   2
   6  12   1 350.265 72.5095   2
   6  12   2-41.5261 41.7431   2
   6  12   3 376.967 74.2483   2
  -6 -12  -4 182.120 53.9367   1
  -6 -12  -5 176.139 50.8461   1
   6  12   5 380.668 73.8252   3
   6  12   6 367.986 71.1429   3
  -6 -12  -6 448.021 76.4954   1
  -6 -12  -7 204.804 51.6752   1
   6  12   7 222.795 66.2830   3
  -6 -12  -8 70.3994 35.5197   1
   6  12   8 47.3551 48.9744   3
  -6 -12  -9 402.476 73.6705   1
   6  12   9 449.237 86.3378   3
   6  12  10 48.3655 46.3732   3
  -6 -12 -10 81.9087 46.2083   1
  -6 -12 -11 255.361 63.3400   1
   6  12  11 206.911 62.8246   3
  -6 -12 -12 493.457 86.2217   1
   6  12  12 583.066 99.2841   3
   6  12  13 713.386 107.413   3
  -6 -12 -13 639.196 102.220   1
  -6 -12 -14 399.438 82.2351   1
   6  12  14 406.480 87.6133   3
  -6 -12 -15 73.5333 50.8174   1
   6  12  15-6.51840 44.8896   3
   6  12  16 50.5416 53.0901   3
  -6 -12 -16 58.4344 53.5613   1
   6  12  17 57.6790 54.1719   3
  -6 -12 -17 156.676 75.5294   1
  -6 -12 -18 159.725 85.2282   1
   6  12  18 92.0926 65.2330   3
  -6 -13   3 415.300 93.3525   4
   6  13  -3 450.353 102.071   2
   6  13  -2 386.147 90.3054   2
   6  13  -1 13.9818 50.8520   2
   6  13   0 3.99198 33.1328   2
   6  13   1 168.011 53.8389   2
   6  13   2-19.1208 39.0435   2
   6  13   6 866.722 102.460   3
  -6 -13  -6 715.380 88.8664   1
  -6 -13  -7 129.739 42.5086   1
   6  13   7 348.481 74.7230   3
  -6 -13  -8 453.362 78.3733   1
   6  13   8 510.033 91.1064   3
  -6 -13  -9 754.629 96.1332   1
   6  13   9 754.779 106.343   3
   6  13  10-35.1454 47.5012   3
  -6 -13 -10 83.3028 54.6800   1
  -6 -13 -11 292.082 67.0625   1
   6  13  11 229.772 75.0917   3
  -6 -13 -12 160.514 60.7794   1
   6  13  12 276.769 77.8694   3
  -6 -13 -13 67.2136 50.2189   1
   6  13  13 77.5079 49.5735   3
  -6 -13 -14 218.573 65.2416   1
   6  13  14 411.163 94.1421   3
  -6 -13 -15 149.308 63.0039   1
   6  13  15 137.637 68.9244   3
   6  13  16 67.1450 57.9111   3
  -6 -13 -16 262.848 81.5191   1
  -6 -13 -17 108.171 56.0628   1
   6  13  17 49.0212 49.7874   3
   6  14  -1 59.4751 54.7725   2
   6  14   0 36.1479 55.0713   2
   6  14   1 91.5725 54.8649   2
   6  14   6 911.247 111.277   3
  -6 -14  -7 732.907 95.9036   1
   6  14   7 582.068 90.8949   3
  -6 -14  -8 610.842 87.7529   1
   6  14   8 1195.76 129.368   3
   6  14   9 343.315 80.7175   3
  -6 -14  -9 268.507 64.2096   1
  -6 -14 -10 33.1800 42.6834   1
   6  14  10-33.1335 56.4055   3
  -6 -14 -11 262.866 67.3498   1
   6  14  11 391.758 84.1889   3
  -6 -14 -12 249.839 68.3252   1
   6  14  12 420.936 90.6586   3
  -6 -14 -13 170.092 61.4408   1
   6  14  13 193.376 75.3029   3
  -6 -14 -14-13.6639 39.0245   1
   6  14  14 84.4997 57.7973   3
  -6 -14 -15-49.1811 51.3931   1
   6  14  15-84.7121 59.0285   3
   6  14  16 31.3441 52.3153   3
  -6 -14 -16 258.661 76.5226   1
   6  14  17 101.622 70.9127   3
  -6 -14 -17 159.061 66.9140   1
   6  15   0 107.349 51.1056   2
   6  15   7 747.075 104.559   3
   6  15   8 1373.02 139.869   3
   6  15   9 563.359 96.0856   3
  -6 -15  -9 483.941 85.6143   1
  -6 -15 -10 112.661 41.6904   1
   6  15  10 212.207 74.3154   3
  -6 -15 -11 13.3634 32.0992   1
   6  15  11 20.8969 49.6674   3
  -6 -15 -12 125.392 54.6886   1
   6  15  12 342.666 83.9516   3
  -6 -15 -13 107.306 55.7683   1
   6  15  13 224.708 73.4904   3
  -6 -15 -14 37.0253 50.9833   1
   6  15  14 109.166 69.0008   3
  -6 -15 -15-30.7057 53.2687   1
   6  15  15-103.082 55.9937   3
   6  15  16 138.362 71.4121   3
  -6 -15 -16 9.02211 43.5254   1
   6  16   8 441.337 86.9258   3
   6  16   9 51.1614 46.1527   3
   6  16  10-27.7954 46.0724   3
   6  16  11 29.0806 54.2835   3
  -6 -16 -12 185.928 72.4721   1
   6  16  12 223.801 80.7295   3
  -6 -16 -13 65.1048 55.2680   1
   6  16  13 141.787 69.4574   3
  -6 -16 -14 83.3719 57.7975   1
   6  16  14 191.268 64.0167   3
  -6 -16 -15 120.359 56.8940   1
   6  17   9-48.5596 52.9156   3
   6  17  10 46.8702 58.2621   3
   6  17  11-3.79514 46.3507   3
   6  17  12 172.634 67.9461   3
  -6 -17 -14 41.2478 53.7578   1
   6  18  10-62.7830 50.0403   3
   7 -16 -10-9.59538 50.4243   4
   7 -16  -9 25.2041 48.3973   4
   7 -16  -8 174.663 77.3011   3
   7 -16  -8 147.917 69.6504   4
   7 -16  -7 167.757 80.6560   3
   7 -16  -7 180.557 75.9904   4
   7 -16  -6 517.568 105.535   3
   7 -16  -6 411.465 93.6189   4
   7 -16  -5 886.306 128.474   4
   7 -16  -5 965.353 145.395   3
   7 -16  -4 509.192 115.635   3
   7 -16  -4 547.522 109.986   4
   7 -16  -3 104.716 62.0117   4
   7 -16  -2 5.49662 41.3609   4
   7 -16  -1 10.7695 49.1397   4
   7 -15 -12 32.3839 54.6299   4
   7 -15 -11 55.5311 49.1559   4
   7 -15 -10 106.774 66.1958   4
   7 -15  -9 124.379 53.5460   4
   7 -15  -8 245.791 82.3886   3
   7 -15  -8 235.924 70.1552   4
   7 -15  -7 478.766 103.776   3
   7 -15  -7 439.571 89.5707   4
   7 -15  -6 654.477 116.344   3
   7 -15  -6 588.371 101.146   4
   7 -15  -5 436.644 98.3456   3
   7 -15  -5 301.296 81.4047   4
   7 -15  -4 99.0523 69.0833   3
   7 -15  -4 95.4259 53.5485   4
   7 -15  -3 116.701 72.9733   3
   7 -15  -3 28.8523 39.8036   4
   7 -15  -2 15.6255 51.3107   3
   7 -15  -2 114.960 61.6421   4
   7 -15  -1 15.6213 55.4324   3
   7 -15  -1 12.1765 47.8080   4
   7 -15   0 86.1248 49.6835   3
   7 -15   0-40.9114 53.3602   4
  -7  15  -1-5.39279 59.9943   2
   7 -15   1 12.0636 50.7072   4
   7 -14 -13 251.205 73.6154   4
   7 -14 -12 279.203 90.1996   4
   7 -14 -11 249.201 70.2016   4
   7 -14 -10 0.80243 43.6498   4
   7 -14  -9 266.761 82.0443   3
   7 -14  -9 255.042 76.7536   4
   7 -14  -8 379.165 87.6769   3
   7 -14  -8 436.228 90.8209   4
   7 -14  -7 184.559 65.6532   3
   7 -14  -7 124.009 60.4293   4
   7 -14  -6 561.819 106.409   3
   7 -14  -6 460.342 88.4247   4
   7 -14  -5 673.595 113.193   3
   7 -14  -5 643.644 102.689   4
   7 -14  -4 20.4815 47.4379   3
   7 -14  -4 50.0705 53.0081   4
   7 -14  -3 116.780 64.8298   3
   7 -14  -3-28.3841 46.3146   4
   7 -14  -2-16.5377 51.8645   3
   7 -14  -2 45.1258 34.6612   4
   7 -14  -1 121.643 57.2756   3
   7 -14  -1 78.3221 49.9202   4
   7 -14   0 23.7379 43.2622   3
   7 -14   0 28.9810 49.9710   4
   7 -14   1 66.7322 50.8844   3
   7 -14   1 163.031 59.9283   4
   7 -14   2 131.395 64.1187   4
  -7  14  -2 107.958 57.0155   2
   7 -14   3 141.443 77.4901   3
   7 -13 -15-65.3171 52.0051   1
   7 -13 -14 237.228 79.8273   4
   7 -13 -13 198.669 79.2474   4
   7 -13 -12 93.8456 53.8135   4
   7 -13 -11 389.282 89.1473   4
   7 -13 -10 207.867 71.8592   4
   7 -13  -9 230.400 74.3951   3
   7 -13  -9 187.806 67.4731   4
   7 -13  -8 276.752 86.4104   3
   7 -13  -8 382.104 83.2533   4
   7 -13  -7 632.546 106.783   3
   7 -13  -7 624.379 99.9728   4
   7 -13  -6 801.515 116.787   3
   7 -13  -6 719.830 105.504   4
   7 -13  -5 59.1331 65.0000   3
   7 -13  -5 131.292 49.7630   4
   7 -13  -4 144.267 64.8805   3
   7 -13  -4 64.2586 41.7835   4
   7 -13  -3 41.5717 51.3160   3
   7 -13  -3 10.9294 44.5971   4
   7 -13  -2 174.589 70.3492   3
   7 -13  -2 116.966 50.7867   4
   7 -13  -1 254.401 91.4536   3
   7 -13  -1 206.652 59.7145   4
   7 -13   0 657.970 108.371   3
   7 -13   0 348.278 80.6959   4
   7 -13   1 44.0311 60.1485   3
   7 -13   1-40.7061 46.3073   4
   7 -13   2-20.8210 39.1635   4
   7 -13   2 83.5734 52.1394   3
   7 -13   3 96.2351 54.8179   3
   7 -13   4 284.457 80.6333   3
  -7  13  -4 188.237 77.1315   2
   7 -13   5 617.336 111.123   3
   7 -12 -15-41.8807 51.4382   1
   7 -12 -14 250.079 79.1860   1
   7 -12 -14 86.0151 60.3417   4
   7 -12 -13 499.733 98.4212   1
   7 -12 -13 523.303 101.831   4
   7 -12 -12 781.376 115.766   4
   7 -12 -11 500.972 98.4318   4
   7 -12 -10 153.898 61.9617   4
   7 -12  -9 719.199 107.135   3
   7 -12  -9 655.552 102.925   4
   7 -12  -8 537.403 88.7092   3
   7 -12  -8 422.901 87.2133   4
   7 -12  -7 586.433 96.7086   3
   7 -12  -7 527.561 88.3329   4
   7 -12  -6 441.419 90.1484   3
   7 -12  -6 339.845 79.2694   4
   7 -12  -5 74.0799 51.7305   3
   7 -12  -5 24.2087 36.6512   4
   7 -12  -4 192.725 70.5198   3
   7 -12  -4 25.4906 49.3389   4
   7 -12  -3 96.2567 58.8896   3
   7 -12  -3 79.3582 50.7138   4
   7 -12  -2 306.079 75.1515   3
   7 -12  -2 369.410 72.6892   4
   7 -12  -1 420.204 90.0618   3
   7 -12  -1 374.993 73.7826   4
   7 -12   0 539.373 96.1566   3
   7 -12   0 273.448 61.1231   4
   7 -12   1 342.441 89.3890   3
   7 -12   1 155.812 54.1881   4
   7 -12   2 222.255 64.0131   4
   7 -12   2 342.261 82.4127   3
   7 -12   3 383.920 86.3396   3
   7 -12   4 792.359 121.065   3
   7 -12   5 525.449 108.961   3
  -7  12  -5 351.356 87.1013   2
   7 -12   6 264.141 82.7727   3
   7 -11 -15 130.041 73.9596   1
   7 -11 -14 317.637 81.2978   1
   7 -11 -14 379.656 90.4070   4
   7 -11 -13 417.231 86.7581   1
   7 -11 -13 863.652 127.638   4
   7 -11 -12 887.198 124.462   4
   7 -11 -12 769.588 111.113   1
   7 -11 -11 344.429 72.3115   1
   7 -11 -11 556.603 102.874   4
   7 -11 -10 287.418 71.8394   1
   7 -11 -10 261.662 77.7484   4
   7 -11  -9 4.94759 35.6672   3
   7 -11  -9-14.9565 48.5443   4
   7 -11  -8 22.9041 48.0265   3
   7 -11  -8 60.4073 47.7506   4
   7 -11  -7 57.0191 45.9899   3
   7 -11  -7 92.0607 50.3372   4
   7 -11  -6 363.594 74.5547   3
   7 -11  -6 412.752 77.1831   4
   7 -11  -5-48.5166 43.7120   3
   7 -11  -5-20.1022 34.3921   4
   7 -11  -4 191.355 67.4383   3
   7 -11  -4 183.771 54.1736   4
   7 -11  -3 988.586 120.056   3
   7 -11  -3 743.397 95.9013   4
   7 -11  -2 1335.68 138.422   3
   7 -11  -2 1301.85 125.864   4
   7 -11  -1 697.604 106.577   3
   7 -11  -1 369.485 71.1642   4
   7 -11   0 1692.92 153.936   3
   7 -11   0 1136.84 118.602   4
   7 -11   1 532.863 92.6295   3
   7 -11   1 321.633 68.8561   4
   7 -11   2 129.535 52.1540   4
   7 -11   2 285.000 77.2356   3
   7 -11   3 564.903 101.249   3
   7 -11   4 1025.36 133.310   3
   7 -11   5 162.236 73.8039   3
   7 -11   6 488.745 99.6829   3
  -7  11  -6 264.833 86.7682   2
   7 -11   7 3.71682 44.7638   3
  -7  11  -7-74.3126 53.7888   2
   7 -10 -15 20.7776 43.8377   1
   7 -10 -14 223.018 78.0516   1
   7 -10 -14 332.839 86.9344   4
   7 -10 -13 824.243 118.238   4
   7 -10 -13 669.263 113.433   1
   7 -10 -12 423.580 86.6260   4
   7 -10 -12 512.687 95.2563   1
   7 -10 -11 50.3183 40.2944   1
   7 -10 -11 24.7574 41.4053   4
   7 -10 -10 310.266 68.8438   1
   7 -10 -10 491.609 89.5046   4
   7 -10  -9 627.896 91.3575   3
   7 -10  -9 421.065 73.9176   1
   7 -10  -9 389.555 76.7197   4
   7 -10  -8 136.933 58.2578   3
   7 -10  -8 119.900 44.3894   1
   7 -10  -8 195.934 65.1263   4
   7 -10  -7 356.607 74.8047   3
   7 -10  -7 275.163 64.7478   4
   7 -10  -6-26.7863 46.2088   3
   7 -10  -6 35.3392 35.5974   4
   7 -10  -5 9.36894 44.3629   3
   7 -10  -5 53.6993 48.3453   4
   7 -10  -4 2.30316 42.5252   3
   7 -10  -4 58.4905 43.0451   4
   7 -10  -3 1041.12 120.024   3
   7 -10  -3 726.566 91.9136   4
   7 -10  -2 1001.56 119.024   3
   7 -10  -2 750.367 94.1257   4
   7 -10  -1 866.436 111.183   3
   7 -10  -1 648.013 85.8050   4
   7 -10   0 124.886 53.4254   3
   7 -10   0 117.706 41.0867   4
   7 -10   1 515.552 90.0725   3
   7 -10   1 563.953 78.7231   4
   7 -10   2 30.9897 33.4296   4
   7 -10   2 79.9427 49.9261   3
   7 -10   3 809.991 110.010   3
   7 -10   4 546.540 95.9926   3
   7 -10   5 335.878 76.7905   3
   7 -10   6 223.077 66.8710   3
   7 -10   7 57.2659 53.4764   3
  -7  10  -7-4.13835 54.5605   2
  -7  10  -8 192.518 69.9625   2
   7  -9 -15 321.714 94.9910   1
   7  -9 -14 364.939 90.4282   1
   7  -9 -13 450.820 93.2691   1
   7  -9 -13 491.398 95.1902   4
   7  -9 -12 83.0261 56.2338   1
   7  -9 -12 33.0626 53.6899   4
   7  -9 -11-23.9448 39.0638   1
   7  -9 -11 41.9780 40.2916   4
   7  -9 -10 372.881 77.4401   1
   7  -9 -10 377.196 83.0950   4
   7  -9  -9 150.333 50.5648   1
   7  -9  -9 100.828 48.0174   4
   7  -9  -8-30.5578 38.5904   3
   7  -9  -8 14.4021 33.3546   1
   7  -9  -8 17.4453 47.7756   4
   7  -9  -7 9.08305 32.1531   1
   7  -9  -7-58.1588 35.9989   3
   7  -9  -6 136.719 51.9460   3
   7  -9  -6 192.472 52.2997   4
   7  -9  -6 239.811 53.5278   2
   7  -9  -5-30.5656 40.1275   3
   7  -9  -5 3.79789 30.4398   2
   7  -9  -5 80.8854 51.0523   4
   7  -9  -4 912.547 110.386   3
   7  -9  -4 835.962 92.6146   2
   7  -9  -4 935.157 97.0984   4
   7  -9  -3 1634.86 141.422   3
   7  -9  -3 1512.07 120.838   4
   7  -9  -2 1343.66 125.516   3
   7  -9  -2 1394.96 114.928   4
   7  -9  -1 59.8716 50.6134   3
   7  -9  -1 54.9258 29.5148   4
   7  -9   0 295.689 68.4485   3
   7  -9   0 225.435 55.1822   4
   7  -9   1 126.372 61.4252   3
   7  -9   1 98.9399 42.1863   4
   7  -9   2 164.731 51.5211   4
   7  -9   2 93.1259 53.7523   3
   7  -9   3 509.713 87.7599   3
   7  -9   4 270.671 71.2519   3
   7  -9   5 402.504 85.0211   3
   7  -9   6 43.8039 48.7882   3
   7  -9   7 7.97756 40.4008   3
   7  -9   8 859.739 122.783   3
  -7   9  -8 808.084 124.916   2
  -7   9  -9 257.211 80.2954   2
   7  -8 -15 177.404 71.3261   1
   7  -8 -14 161.075 65.2339   1
   7  -8 -13 645.007 110.444   1
   7  -8 -12-23.9160 44.6368   1
   7  -8 -11 23.1688 43.5668   1
   7  -8 -11 147.746 55.7832   4
   7  -8 -10 70.2627 48.6959   1
   7  -8 -10-4.85331 37.0325   4
   7  -8  -9-40.3189 34.4801   1
   7  -8  -9 42.0039 44.6580   4
   7  -8  -8 262.187 59.1448   3
   7  -8  -8 297.828 62.9792   1
   7  -8  -8 364.010 71.8941   4
   7  -8  -7 20.5116 34.0923   1
   7  -8  -7 49.0814 37.7375   3
   7  -8  -7 67.6886 31.7903   4
   7  -8  -7 65.4659 38.5241   2
   7  -8  -6 176.801 52.1744   1
   7  -8  -6 143.763 55.0567   3
   7  -8  -6 164.576 46.1122   4
   7  -8  -6 176.541 47.7869   2
   7  -8  -5 112.808 38.3863   1
   7  -8  -5 165.913 55.7548   3
   7  -8  -5 126.719 45.8947   4
   7  -8  -5 163.408 46.9545   2
   7  -8  -4 293.453 63.8485   3
   7  -8  -4 295.858 57.4276   2
   7  -8  -4 294.442 57.3784   4
   7  -8  -3 886.550 102.233   3
   7  -8  -3 829.859 90.8996   2
   7  -8  -3 818.438 87.7544   4
   7  -8  -2 693.671 93.8553   3
   7  -8  -2 606.924 80.4966   2
   7  -8  -2 593.347 72.3993   4
   7  -8  -1 2107.52 153.200   3
   7  -8  -1 1833.02 126.919   4
   7  -8   0 436.065 74.7510   3
   7  -8   0 470.182 67.1506   4
   7  -8   1 164.024 61.1731   3
   7  -8   1 212.520 50.4394   4
   7  -8   2 369.248 73.5440   3
   7  -8   2 395.823 71.0546   4
   7  -8   3 369.564 74.3095   3
   7  -8   4 56.3293 50.9231   3
   7  -8   5 102.163 53.3358   3
   7  -8   6 36.9132 41.0329   3
   7  -8   7 294.442 72.3337   3
   7  -8   8 372.614 77.9321   3
  -7   8  -8 504.049 82.7976   5
   7  -8   9 1160.39 132.638   3
  -7   8  -9 1218.48 147.431   2
  -7   8  -9 1120.21 121.131   5
  -7   8 -10 360.096 79.0887   5
  -7   8 -10 393.699 99.0372   2
  -7   8 -11 152.486 57.8299   5
  -7   8 -12 59.4682 43.8210   5
  -7   8 -13 92.2833 47.4331   5
   7  -7 -15 128.036 67.0707   1
   7  -7 -14 234.162 77.4629   1
   7  -7 -13 68.3447 53.9656   1
   7  -7 -12 123.839 58.6516   1
   7  -7 -11 75.0575 53.4226   1
   7  -7 -10 101.863 55.6965   1
   7  -7 -10 139.474 54.5404   4
   7  -7  -9 52.8704 46.8583   1
   7  -7  -9 85.4448 43.5902   4
   7  -7  -8 671.443 86.8336   4
   7  -7  -8 622.619 77.3298   2
   7  -7  -8 626.348 87.5315   1
   7  -7  -7 216.150 57.1436   1
   7  -7  -7 169.844 51.9854   3
   7  -7  -7 206.007 51.3304   4
   7  -7  -7 244.051 50.9128   2
   7  -7  -6 80.0372 37.1615   1
   7  -7  -6 5.11715 39.3011   3
   7  -7  -6-17.7503 31.4268   4
   7  -7  -6 45.9900 33.7296   2
   7  -7  -5 615.053 81.2421   3
   7  -7  -5 554.174 77.0312   4
   7  -7  -5 596.719 74.3861   2
   7  -7  -5 496.678 72.5747   1
   7  -7  -4 2522.76 158.438   3
   7  -7  -4 2337.18 139.549   4
   7  -7  -4 2312.66 140.259   2
   7  -7  -4 2085.08 125.868   1
   7  -7  -3 2886.15 166.857   3
   7  -7  -3 2697.28 153.814   2
   7  -7  -3 2612.88 142.201   4
   7  -7  -3 2425.39 129.389   1
   7  -7  -2 1917.06 136.719   3
   7  -7  -2 1696.86 122.715   2
   7  -7  -2 1824.33 119.141   4
   7  -7  -1 111.336 51.7570   3
   7  -7  -1 114.173 40.1873   2
   7  -7  -1 158.073 41.1110   4
   7  -7   0 888.701 97.6103   3
   7  -7   0 913.563 84.3163   4
   7  -7   1 621.230 87.6349   3
   7  -7   1 524.707 66.0902   4
   7  -7   2 822.487 96.5074   3
   7  -7   2 782.307 82.4823   4
   7  -7   3-47.8966 45.3342   3
   7  -7   4 150.749 50.6687   3
   7  -7   5 28.4607 47.2619   3
   7  -7   6 458.310 84.0627   3
   7  -7   7 589.883 93.7261   3
   7  -7   8 637.739 98.5085   3
   7  -7   9 349.743 73.6709   3
  -7   7  -9 462.120 80.2542   5
   7  -7  10 875.351 111.956   3
  -7   7 -10 929.774 134.967   2
  -7   7 -10 962.547 111.081   5
  -7   7 -11 384.403 98.4150   2
  -7   7 -11 292.320 74.7632   5
  -7   7 -12 223.510 64.7417   5
  -7   7 -13 115.333 59.6773   5
  -7   7 -14 210.996 77.2226   5
  -7   7 -15 141.705 62.0048   5
  -7   7 -16-22.0684 53.3840   5
   7  -6 -15 47.4348 55.2551   1
   7  -6 -14 1.54838 64.8787   1
   7  -6 -13 179.810 54.6074   1
   7  -6 -12 88.9904 45.0672   1
   7  -6 -11 123.349 54.2239   1
   7  -6 -10 38.5637 40.1249   1
   7  -6  -9 59.1061 43.2065   2
   7  -6  -9 14.4048 34.6082   1
   7  -6  -9 56.2791 42.4597   4
   7  -6  -8 126.358 43.9845   2
   7  -6  -8 9.91678 39.3794   1
   7  -6  -8 106.241 47.3336   4
   7  -6  -7 27.7143 34.3986   2
   7  -6  -7 3.09652 33.7772   1
   7  -6  -7 59.3426 44.9893   4
   7  -6  -6 11.3985 31.1274   2
   7  -6  -6-19.6293 33.7157   1
   7  -6  -6 9.75993 28.5087   3
   7  -6  -6-6.10283 28.8498   4
   7  -6  -5 554.837 78.9067   3
   7  -6  -5 620.200 73.3105   4
   7  -6  -5 618.741 76.5562   2
   7  -6  -5 626.429 78.2764   1
   7  -6  -4 1112.19 103.194   3
   7  -6  -4 1078.03 90.5784   4
   7  -6  -4 1098.85 96.4870   2
   7  -6  -4 1047.88 90.6113   1
   7  -6  -3 3517.51 174.780   3
   7  -6  -3 3415.44 156.009   4
   7  -6  -3 3280.25 165.073   2
   7  -6  -3 3259.14 150.864   1
   7  -6  -2 3576.92 178.374   3
   7  -6  -2 3294.78 146.670   1
   7  -6  -2 3767.47 174.691   2
   7  -6  -2 3418.04 150.248   4
   7  -6  -1 4062.71 193.677   3
   7  -6  -1 3960.65 183.378   2
   7  -6  -1 3662.95 155.366   4
   7  -6   0 132.188 50.5361   3
   7  -6   0 107.805 37.9220   2
   7  -6   0 87.5521 35.7818   4
   7  -6   1 23.0658 45.4223   3
   7  -6   1-3.98420 24.2503   4
   7  -6   2 1085.13 106.239   3
   7  -6   3 53.5480 42.1825   3
   7  -6   4 42.1720 42.6549   3
   7  -6   5 49.8022 45.3400   3
   7  -6   6 301.449 67.0295   3
   7  -6   7 718.952 99.6632   3
   7  -6   8 335.208 68.4737   3
   7  -6   9 1459.32 137.500   3
   7  -6  10 432.365 80.9674   3
  -7   6 -10 730.235 98.2464   5
  -7   6 -11 130.428 55.7118   2
  -7   6 -11 303.857 74.7839   5
  -7   6 -12 260.040 84.7193   2
  -7   6 -12 293.573 79.1784   5
  -7   6 -13 46.7202 57.9843   5
  -7   6 -14 248.838 82.9129   5
  -7   6 -15 423.410 98.0770   5
  -7   6 -16 137.716 74.7909   5
  -7   6 -17 36.4935 50.7039   5
   7  -5 -14 94.4020 61.1572   1
   7  -5 -13 78.4706 44.7080   1
   7  -5 -12 45.6949 52.0959   1
   7  -5 -11 14.4331 41.9702   1
   7  -5 -10 57.2594 40.4568   1
   7  -5  -9 261.084 59.3707   2
   7  -5  -9 213.050 67.5640   1
   7  -5  -8 784.112 92.0617   4
   7  -5  -8 956.610 95.5830   2
   7  -5  -8 831.297 102.011   1
   7  -5  -7 139.331 41.7897   2
   7  -5  -7 167.721 58.3887   1
   7  -5  -7 157.858 48.7958   4
   7  -5  -6 372.652 60.9390   2
   7  -5  -6 385.252 64.5940   1
   7  -5  -6 532.712 67.9464   3
   7  -5  -6 464.891 69.0419   4
   7  -5  -5 1028.99 92.4278   3
   7  -5  -5 1068.14 93.4337   4
   7  -5  -5 918.783 88.4369   2
   7  -5  -5 835.757 90.5316   1
   7  -5  -4 4346.44 185.768   3
   7  -5  -4 3939.60 166.365   4
   7  -5  -4 3907.17 175.550   2
   7  -5  -4 4121.43 182.913   1
   7  -5  -3 1531.02 110.632   3
   7  -5  -3 1208.31 92.5765   4
   7  -5  -3 1560.41 111.915   2
   7  -5  -3 1474.41 106.326   1
   7  -5  -2 1558.11 117.069   3
   7  -5  -2 1524.76 102.601   1
   7  -5  -2 1595.82 112.367   2
   7  -5  -1 523.149 68.5924   3
   7  -5  -1 534.196 70.0486   2
   7  -5  -1 563.697 62.3846   4
   7  -5   0 770.403 86.3397   3
   7  -5   0 778.272 82.2981   2
   7  -5   0 571.333 60.5210   4
   7  -5   1 59.7665 40.8593   3
   7  -5   1 85.1643 37.3419   2
   7  -5   2-49.1338 44.9508   3
   7  -5   3 65.8097 43.5190   3
   7  -5   4 79.4338 46.4967   3
   7  -5   5 149.057 53.5920   3
   7  -5   6 2089.95 148.190   3
   7  -5   7 2371.02 160.974   3
   7  -5   8 2382.93 166.720   3
   7  -5   9 993.309 111.410   3
   7  -5  10 652.841 96.6830   3
  -7   5 -10 649.651 96.1646   5
   7  -5  11 480.169 84.3631   3
  -7   5 -11 437.212 86.8622   5
  -7   5 -12-19.7595 40.9130   5
  -7   5 -12-10.1249 45.5834   2
  -7   5 -13 42.5917 52.1545   5
  -7   5 -13 54.5071 59.4483   2
  -7   5 -14 39.1348 50.6598   5
  -7   5 -15 133.014 69.8417   5
  -7   5 -16 114.386 69.4608   5
  -7   5 -17-71.5117 65.7092   5
   7  -4 -14 72.3533 56.0106   1
   7  -4 -13-71.7043 67.0020   1
   7  -4 -12-6.57032 48.4872   1
   7  -4 -11 89.6957 55.6948   1
   7  -4 -10 782.805 107.887   1
   7  -4 -10 875.866 99.4644   2
   7  -4  -9 614.728 92.3003   1
   7  -4  -9 737.212 88.1260   2
   7  -4  -8 891.148 112.393   1
   7  -4  -8 1055.86 100.989   2
   7  -4  -7 2258.68 161.730   1
   7  -4  -7 2157.68 137.750   2
   7  -4  -6 676.667 76.4465   4
   7  -4  -6 741.638 88.8380   1
   7  -4  -6 714.246 79.9039   2
   7  -4  -5 1929.45 116.361   3
   7  -4  -5 1794.23 115.322   4
   7  -4  -5 1993.60 136.786   1
   7  -4  -5 1895.50 126.005   2
   7  -4  -4 3077.95 149.254   3
   7  -4  -4 3001.38 142.326   4
   7  -4  -4 2901.56 155.670   1
   7  -4  -4 3203.16 160.394   2
   7  -4  -3 1645.32 108.394   3
   7  -4  -3 1060.54 82.5122   4
   7  -4  -3 1479.08 106.887   1
   7  -4  -3 1568.76 112.563   2
   7  -4  -2 33.7381 27.1958   3
   7  -4  -2 51.2843 26.1559   4
   7  -4  -2 144.817 43.0614   2
   7  -4  -2 93.0665 34.9786   1
   7  -4  -1 103.019 38.9092   3
   7  -4  -1 116.847 32.4394   4
   7  -4  -1 112.849 36.1883   2
   7  -4   0 774.492 101.473   2
   7  -4   0 525.364 60.4035   4
   7  -4   1 47.0952 33.2989   3
   7  -4   1 1.02284 32.2816   2
   7  -4   2 619.846 74.8298   3
   7  -4   2 649.186 77.0743   2
   7  -4   3 115.508 44.7581   3
   7  -4   3 102.146 36.8241   2
   7  -4   4 56.4864 43.7062   3
   7  -4   5 327.841 61.9548   3
   7  -4   6 4860.67 218.143   3
   7  -4   7 3345.46 185.881   3
   7  -4   8 2365.30 161.868   3
   7  -4   9 1861.80 148.684   3
   7  -4  10 517.818 86.3649   3
   7  -4  11 317.084 73.4708   3
  -7   4 -11 349.364 73.7068   5
   7  -4  12 9.67589 37.1661   3
  -7   4 -12-48.2912 39.7831   5
  -7   4 -12 9.95267 48.0315   2
  -7   4 -13-22.8258 42.1215   2
  -7   4 -13 137.733 56.8094   5
  -7   4 -14 239.899 74.2259   5
  -7   4 -14 349.057 88.3647   2
  -7   4 -15 72.2267 58.2038   5
  -7   4 -16 40.7507 55.2294   5
  -7   4 -17 123.531 75.2801   5
  -7   4 -18 393.295 97.2494   5
   7  -3 -14 332.010 85.7373   1
   7  -3 -13-7.84893 45.4684   1
   7  -3 -12 27.3553 51.7281   1
   7  -3 -11 466.590 79.3597   2
   7  -3 -11 461.377 90.4811   1
   7  -3 -10 957.038 123.965   1
   7  -3 -10 671.512 89.3449   2
   7  -3  -9 1892.29 161.397   1
   7  -3  -9 1772.15 135.462   2
   7  -3  -8 768.215 98.9506   1
   7  -3  -8 747.524 88.5319   2
   7  -3  -7 947.114 106.367   1
   7  -3  -7 967.505 94.8281   2
   7  -3  -6 1657.41 132.932   1
   7  -3  -6 1794.97 124.109   2
   7  -3  -5 1383.00 114.669   1
   7  -3  -5 1177.22 103.136   2
   7  -3  -4 1267.69 92.7488   3
   7  -3  -4 1294.25 91.1080   4
   7  -3  -4 1737.93 123.518   1
   7  -3  -4 1793.53 120.017   2
   7  -3  -3 1349.16 93.6744   3
   7  -3  -3 1478.44 109.388   1
   7  -3  -3 1382.38 107.742   2
   7  -3  -2 976.274 87.1544   1
   7  -3  -2 1049.16 90.7241   3
   7  -3  -2 922.932 69.7272   4
   7  -3  -2 960.986 88.0147   2
   7  -3  -1 47.2339 34.9051   2
   7  -3  -1-20.3491 30.9519   3
   7  -3  -1-27.3894 28.9442   1
   7  -3  -1 1.25754 16.3466   4
   7  -3   0 32.3537 31.9959   3
   7  -3   0 62.0791 37.7702   2
   7  -3   1 103.052 40.6199   3
   7  -3   1 96.9653 43.5731   2
   7  -3   2 875.864 85.1480   3
   7  -3   2 1060.68 94.1098   2
   7  -3   3 1548.94 116.235   3
   7  -3   3 1567.63 116.410   2
  -7   3  -4 805.367 69.3934   1
   7  -3   4 735.779 83.0720   3
   7  -3   4 746.475 81.3770   2
  -7   3  -5 68.9227 26.3993   1
   7  -3   5 80.3447 43.5250   3
   7  -3   6 16.7119 36.6913   3
   7  -3   7 1912.53 139.223   3
   7  -3   8 2167.48 149.996   3
   7  -3   9 388.300 70.3830   3
   7  -3  10 476.714 84.1598   3
   7  -3  11 266.482 68.2955   3
   7  -3  12 24.3937 38.9743   3
  -7   3 -12 43.6649 46.8913   5
  -7   3 -13-58.2504 59.5250   2
  -7   3 -13 93.5838 57.6362   5
  -7   3 -14-31.2633 53.0567   2
  -7   3 -14-44.3640 46.5005   5
  -7   3 -15-48.3807 45.8694   5
  -7   3 -16 112.669 67.3680   5
  -7   3 -17 497.837 104.916   5
  -7   3 -18 461.150 113.126   5
  -7   3 -19-26.1933 57.8311   5
   7  -2 -14-7.71219 54.5054   1
   7  -2 -13-66.6187 56.3699   1
   7  -2 -12 82.0359 58.3094   1
   7  -2 -11 177.117 51.1305   2
   7  -2 -11 334.990 74.3666   1
   7  -2 -10 450.226 79.0844   2
   7  -2 -10 365.710 77.2246   1
   7  -2  -9 1461.32 141.786   1
   7  -2  -9 1509.99 128.719   2
   7  -2  -8 972.978 112.195   1
   7  -2  -8 1085.84 107.372   2
   7  -2  -7 1079.12 111.941   1
   7  -2  -7 1026.72 100.613   2
   7  -2  -6 273.897 59.9503   1
   7  -2  -6 346.694 59.8241   2
   7  -2  -5 2128.26 142.543   1
   7  -2  -5 2336.65 143.690   2
   7  -2  -4 971.524 75.5242   3
   7  -2  -4 1070.99 99.8152   1
   7  -2  -4 965.384 93.0367   2
   7  -2  -3 66.8185 43.7555   1
   7  -2  -3 24.2390 30.8637   2
   7  -2  -3-3.56060 18.8998   3
   7  -2  -2 298.296 58.8951   2
   7  -2  -2 352.401 50.8383   3
   7  -2  -2 289.086 41.1591   4
   7  -2  -2 319.449 50.4126   1
   7  -2  -1 120.650 37.8296   2
   7  -2  -1 35.2308 26.6179   3
   7  -2  -1 52.6248 18.7416   4
   7  -2   0 1527.16 103.808   3
   7  -2   0 1351.62 102.721   2
   7  -2   1 2290.44 127.721   3
   7  -2   1 2158.44 128.814   2
   7  -2   2 26.2451 33.3173   3
   7  -2   2 46.2564 40.0520   2
   7  -2   3 913.851 87.5076   3
   7  -2   3 975.015 89.4650   2
   7  -2   4 54.1049 41.2459   3
   7  -2   4 60.8880 33.2085   2
  -7   2  -5 1989.75 112.883   1
   7  -2   5 1887.47 129.436   3
   7  -2   5 2045.78 135.990   2
   7  -2   6 414.444 70.2818   3
  -7   2  -6 518.608 60.1551   1
  -7   2  -7 615.582 66.1859   1
   7  -2   7 612.069 80.7475   3
   7  -2   8 931.433 102.919   3
   7  -2   9 870.526 100.504   3
   7  -2  10-42.3519 42.7553   3
   7  -2  11 194.923 60.5929   3
   7  -2  12 23.5294 41.4204   3
  -7   2 -12 63.1401 52.3823   5
   7  -2  13-57.1977 52.2008   3
  -7   2 -13 107.462 54.4723   5
  -7   2 -14-3.73668 41.2771   2
  -7   2 -14 0.35824 42.7741   5
  -7   2 -15 202.986 72.1686   5
  -7   2 -16 188.823 74.2130   5
  -7   2 -17 474.887 100.212   5
  -7   2 -18 952.470 141.603   5
  -7   2 -19 368.024 105.266   5
   7  -1 -13 86.0814 51.4414   1
   7  -1 -12 72.0440 50.1516   1
   7  -1 -12 155.758 57.0188   2
   7  -1 -11 325.138 79.0855   1
   7  -1 -11 149.932 48.7780   2
   7  -1 -10 1156.07 135.531   1
   7  -1 -10 1080.87 118.885   2
   7  -1  -9 414.356 83.5817   1
   7  -1  -9 478.770 81.7781   2
   7  -1  -8 590.967 90.9331   1
   7  -1  -8 601.297 83.5811   2
   7  -1  -7 154.375 52.5627   1
   7  -1  -7 279.325 61.2403   2
   7  -1  -6 316.945 66.1381   1
   7  -1  -6 249.926 54.3191   2
   7  -1  -5 89.3096 41.1445   1
   7  -1  -5 7.53644 33.3267   2
   7  -1  -4 198.354 48.8507   1
   7  -1  -4 253.507 53.3064   2
   7  -1  -3 24.5328 30.1863   1
   7  -1  -3 23.1991 33.6307   2
   7  -1  -3-15.4496 22.1982   3
   7  -1  -2 34.0839 36.4719   2
   7  -1  -2-6.70799 20.5284   3
   7  -1  -2 8.80819 33.0469   1
   7  -1  -1 264.319 52.0549   2
   7  -1  -1 287.076 45.7978   3
   7  -1   0 1941.73 113.912   3
   7  -1   0 1823.77 117.554   2
   7  -1   1 2750.84 138.844   3
   7  -1   1 2755.42 141.424   2
   7  -1   2 922.103 84.1392   3
   7  -1   2 763.627 77.1445   2
   7  -1   3 2147.50 129.735   3
   7  -1   3 2112.81 126.818   2
   7  -1   4 1998.88 124.840   3
   7  -1   4 2201.68 130.133   2
  -7   1  -5 382.909 53.9781   1
   7  -1   5 309.814 59.9682   3
   7  -1   5 379.813 61.7287   2
   7  -1   6 1321.44 108.842   3
  -7   1  -6 1335.76 96.4402   1
   7  -1   7 2092.49 139.933   3
  -7   1  -7 2145.86 120.734   1
   7  -1   8 157.412 50.4555   3
  -7   1  -8 224.384 47.0063   1
   7  -1   9 135.306 54.1034   3
   7  -1  10 439.047 77.3223   3
   7  -1  11 535.179 81.2690   3
   7  -1  12 361.564 77.2179   3
   7  -1  13 93.8855 47.1484   3
  -7   1 -13 41.4959 47.7438   5
   7  -1  14 263.293 70.5290   3
  -7   1 -14 200.928 67.9881   5
  -7   1 -15 93.6249 58.5650   5
  -7   1 -16 36.2458 55.7405   5
  -7   1 -17 188.443 76.3344   5
  -7   1 -18 301.333 90.4015   5
  -7   1 -19 192.568 81.6571   5
  -7   1 -20 239.266 83.9229   5
   7   0 -13-36.5401 46.5994   1
   7   0 -13-17.4516 39.8206   2
   7   0 -12 509.455 99.1972   1
   7   0 -12 323.272 75.3912   2
   7   0 -11 465.324 91.6884   1
   7   0 -11 449.904 81.0093   2
   7   0 -10 1188.83 124.895   2
   7   0 -10 1476.89 146.890   1
   7   0  -9 1474.99 131.944   2
   7   0  -9 1719.24 151.644   1
   7   0  -8 527.261 84.3997   1
   7   0  -8 528.769 81.7542   2
   7   0  -7-111.229 52.1517   1
   7   0  -7 52.3316 49.2738   2
   7   0  -6-5.04114 32.0626   1
   7   0  -6 61.0667 48.2120   2
   7   0  -5 47.2866 32.5265   1
   7   0  -5 24.2767 33.0966   2
   7   0  -4 58.2027 34.1648   1
   7   0  -4 22.3452 34.9340   2
   7   0  -3 297.455 60.0259   1
   7   0  -3 428.902 64.6892   2
   7   0  -2 44.0254 34.0277   2
   7   0  -2 88.8238 25.4579   3
   7   0  -2 61.4878 30.5297   1
   7   0  -1 125.434 39.0204   2
   7   0  -1 216.759 46.1194   3
   7   0   0 5355.66 177.215   3
   7   0   0 5554.93 203.717   2
   7   0   1 2438.18 125.912   3
   7   0   1 2491.58 135.786   2
   7   0   2 4643.88 178.290   3
   7   0   2 4617.97 180.491   2
   7   0   3 3773.50 164.749   3
   7   0   3 3510.39 159.349   2
   7   0   4 1504.36 109.625   3
   7   0   4 1429.25 103.797   2
  -7   0  -5 409.853 56.1421   1
   7   0   5 339.520 54.0249   3
   7   0   5 451.166 62.5376   2
   7   0   6 1784.09 127.199   3
   7   0   6 1555.79 112.857   2
  -7   0  -6 1785.51 114.142   1
   7   0   7 3605.97 181.039   3
  -7   0  -7 3518.12 157.329   1
  -7   0  -8 700.674 74.2968   1
   7   0   8 600.236 83.5062   3
   7   0   9 76.2986 46.8148   3
  -7   0  -9 197.397 45.6276   1
  -7   0 -10 21.5060 28.6275   1
   7   0  10 71.4715 47.4378   3
   7   0  11 362.381 74.6604   3
   7   0  12 760.312 102.043   3
   7   0  13 322.520 74.9669   3
  -7   0 -13 148.957 58.7572   5
   7   0  14 238.955 65.5082   3
  -7   0 -14 188.600 58.5962   5
  -7   0 -15 552.914 95.4080   5
  -7   0 -16 145.066 71.2004   5
  -7   0 -17 350.519 89.1121   5
  -7   0 -18 400.515 93.8552   5
  -7   0 -19 280.501 91.0139   5
  -7   0 -20 248.582 85.3746   5
   7   1 -13 107.243 60.3291   1
  -7  -1  13 286.823 85.3067   4
   7   1 -13 147.152 58.5457   2
   7   1 -12 232.693 70.2250   1
  -7  -1  12 295.949 82.1822   4
   7   1 -12 209.563 63.7792   2
  -7  -1  11 557.543 103.408   4
   7   1 -11 537.925 92.1508   2
   7   1 -11 680.301 108.676   1
   7   1 -10 897.021 110.082   2
   7   1 -10 977.222 121.477   1
   7   1  -9 237.039 67.9333   1
   7   1  -9 192.624 52.3803   2
   7   1  -8 143.319 53.0139   1
   7   1  -8 82.3645 43.3602   2
   7   1  -7 190.768 56.1227   1
   7   1  -7 147.169 50.6325   2
   7   1  -6 545.110 80.7757   2
   7   1  -6 616.080 84.8895   1
   7   1  -5 365.512 66.2777   1
   7   1  -5 346.602 69.4861   2
   7   1  -4 67.7888 38.7828   1
   7   1  -4 38.6863 33.6244   2
   7   1  -3-6.84071 29.0957   2
   7   1  -3 33.9603 40.3205   1
   7   1  -2-8.74840 33.0959   2
   7   1  -2-20.7943 38.6592   1
   7   1  -1 348.700 42.8354   3
   7   1  -1 593.263 73.5606   2
   7   1   0 3035.19 133.558   3
   7   1   0 3009.50 151.672   2
   7   1   1 4051.38 155.925   3
   7   1   1 3765.39 167.125   2
   7   1   2 3894.36 162.224   3
   7   1   2 3941.42 168.160   2
   7   1   3 1751.19 113.357   3
   7   1   3 1596.77 106.854   2
   7   1   4 1900.62 122.619   3
   7   1   4 1925.75 117.950   2
   7   1   5 75.5767 35.0452   3
  -7  -1  -5 87.4526 31.6200   1
   7   1   5 91.9736 36.1191   2
  -7  -1  -6 937.095 88.3141   1
   7   1   6 844.334 93.2284   3
   7   1   6 997.329 88.4069   2
   7   1   7 710.513 89.8340   3
  -7  -1  -7 725.582 77.3128   1
   7   1   7 843.534 81.2182   2
  -7  -1  -8 518.962 65.6799   1
   7   1   8 419.187 67.0568   3
   7   1   9 259.753 64.6139   3
  -7  -1  -9 166.754 41.6317   1
   7   1  10 594.688 89.4416   3
  -7  -1 -10 472.139 67.4932   1
   7   1  11 1150.49 117.708   3
  -7  -1 -11 1088.55 102.898   1
   7   1  12 938.425 112.136   3
  -7  -1 -12 928.519 99.5046   1
   7   1  13 632.506 93.1467   3
   7   1  14 1295.16 136.615   3
  -7  -1 -14 1224.56 130.257   5
   7   1  15 97.9310 51.9938   3
  -7  -1 -15 132.207 56.7628   5
  -7  -1 -16 253.770 72.7717   5
  -7  -1 -17 177.875 67.4043   5
  -7  -1 -18 290.829 86.1861   5
  -7  -1 -19-31.2137 57.3370   5
  -7  -1 -20 20.9681 58.4998   5
  -7  -1 -21-5.63766 62.3154   5
   7   2 -12 603.618 104.183   1
  -7  -2  12 474.828 99.2916   4
   7   2 -12 567.677 100.290   2
   7   2 -11 697.191 106.621   1
  -7  -2  11 593.518 107.236   4
   7   2 -11 535.315 97.2065   2
   7   2 -10 914.447 117.164   2
  -7  -2  10 773.123 111.853   4
   7   2 -10 879.535 119.437   1
   7   2  -9 1093.52 125.423   2
  -7  -2   9 942.243 116.955   4
   7   2  -9 1003.83 119.682   1
   7   2  -8-3.31458 35.7361   1
  -7  -2   8 99.6197 46.3459   4
   7   2  -8-31.1954 50.7012   2
   7   2  -7 191.769 59.2640   1
  -7  -2   7 300.765 64.2070   4
   7   2  -7 151.008 42.9009   2
   7   2  -6 121.047 43.1557   1
  -7  -2   6 41.4612 32.4408   4
   7   2  -6 63.9622 34.6141   2
   7   2  -5 725.853 87.7541   2
   7   2  -5 681.351 87.8451   1
   7   2  -4 37.1770 35.9385   2
   7   2  -4 126.001 42.8792   1
   7   2  -3 360.029 66.8303   2
   7   2  -3 372.206 62.4399   1
  -7  -2   2 640.546 59.6386   4
   7   2  -2 808.980 87.8413   2
   7   2  -1 1927.23 98.9532   3
   7   2  -1 2057.53 132.040   2
   7   2   0 1519.32 95.4712   3
   7   2   0 2143.53 128.532   2
   7   2   1 8881.27 229.311   3
   7   2   1 8840.33 255.529   2
   7   2   2 6360.52 203.771   3
   7   2   2 6448.41 214.110   2
   7   2   3 2226.10 125.679   3
   7   2   3 2461.09 132.383   2
   7   2   4 37.4896 25.2855   2
   7   2   4 34.6253 31.5371   3
  -7  -2  -5 497.331 61.8938   1
   7   2   5 549.597 71.3166   3
   7   2   5 610.388 67.7044   2
   7   2   6 118.450 45.8355   3
   7   2   6 103.731 40.2026   2
  -7  -2  -6 132.285 44.9971   1
   7   2   7 510.365 75.3801   3
  -7  -2  -7 613.099 74.2749   1
   7   2   7 507.600 67.6558   2
  -7  -2  -8 127.828 40.5801   1
   7   2   8 196.326 56.1370   3
   7   2   8 165.187 44.3375   2
  -7  -2  -9 53.8928 32.4278   1
   7   2   9 107.187 44.2093   3
  -7  -2 -10 1238.03 107.602   1
   7   2  10 1253.17 120.427   3
  -7  -2 -11 2123.01 144.607   1
   7   2  11 2244.72 158.759   3
   7   2  12 2100.44 156.598   3
  -7  -2 -12 2055.41 147.043   1
   7   2  13 822.854 107.927   3
  -7  -2 -13 779.110 97.6942   1
  -7  -2 -14 224.080 61.4608   1
   7   2  14 376.640 86.8329   3
  -7  -2 -14 360.085 75.9311   5
   7   2  15 238.839 67.4645   3
  -7  -2 -15 387.456 86.1289   5
   7   2  16 183.933 64.1637   3
  -7  -2 -16 233.013 74.6683   5
  -7  -2 -17 213.521 71.0655   5
  -7  -2 -18 45.0118 55.0875   5
  -7  -2 -19 15.1968 60.7127   5
  -7  -2 -20 223.388 87.8681   5
  -7  -2 -21 56.5322 65.4086   5
   7   3 -12 191.809 68.7487   1
  -7  -3  12 221.052 73.7710   4
   7   3 -12 188.622 75.2521   2
   7   3 -11 366.434 78.3496   1
  -7  -3  11 499.052 98.1429   4
   7   3 -11 416.438 89.3314   2
  -7  -3  10 523.878 97.0167   4
   7   3 -10 678.470 108.067   2
   7   3 -10 694.912 104.814   1
   7   3  -9 198.253 55.9536   1
  -7  -3   9 238.769 74.2712   4
   7   3  -8 16.3250 42.0706   1
  -7  -3   8 62.9868 46.2387   4
   7   3  -8-15.1519 42.3172   2
  -7  -3   7 422.866 78.0561   4
   7   3  -7 490.641 84.0091   2
   7   3  -7 626.588 92.3521   1
   7   3  -6 740.811 97.7802   2
  -7  -3   6 672.699 87.5250   4
   7   3  -6 664.272 90.4276   1
   7   3  -5 1253.03 120.090   2
  -7  -3   5 1053.96 99.8606   4
   7   3  -5 1190.94 116.471   1
   7   3  -4 1448.43 122.144   2
  -7  -3   4 1210.14 101.691   4
   7   3  -4 1330.37 119.485   1
   7   3  -3 2892.04 167.787   2
  -7  -3   3 3009.91 145.103   4
   7   3  -3 3136.71 177.476   1
  -7  -3   2 1031.72 78.9880   4
   7   3  -2 1026.55 102.196   2
   7   3  -1 1977.15 131.983   2
   7   3   0 582.424 60.4267   3
   7   3   0 1007.19 92.2710   2
   7   3   1 5962.31 187.115   3
   7   3   1 5932.66 213.088   2
   7   3   2 4970.57 180.564   3
   7   3   2 5204.38 194.779   2
   7   3   3 551.526 67.4000   3
   7   3   3 488.630 62.8073   2
   7   3   4 425.941 57.6430   2
   7   3   4 433.977 64.0226   3
   7   3   5 72.1245 33.6350   2
   7   3   5 121.299 42.4451   3
  -7  -3  -6-27.6462 35.8253   1
   7   3   6-32.9650 32.7196   3
   7   3   6-2.21357 29.2054   2
  -7  -3  -7 159.344 47.4289   1
   7   3   7 196.065 58.4270   3
   7   3   7 204.619 46.2194   2
  -7  -3  -8 172.958 49.5358   1
   7   3   8 218.168 61.0518   3
   7   3   8 178.418 46.5076   2
  -7  -3  -9 331.086 60.2307   1
   7   3   9 421.302 72.6652   3
  -7  -3 -10 614.831 79.9905   1
   7   3  10 656.037 90.4249   3
  -7  -3 -11 2024.30 143.016   1
   7   3  11 2006.51 147.827   3
   7   3  12 1685.44 143.631   3
  -7  -3 -12 1987.49 148.574   1
   7   3  13 965.531 115.986   3
  -7  -3 -13 1002.97 109.983   1
   7   3  14 304.318 74.1409   3
  -7  -3 -14 383.484 73.8013   1
  -7  -3 -14 222.670 61.7903   5
   7   3  15 294.555 74.1016   3
  -7  -3 -15 289.323 73.7212   1
  -7  -3 -15 247.276 65.8966   5
   7   3  16 269.701 68.4175   3
  -7  -3 -16 356.973 84.2419   5
  -7  -3 -17 335.085 85.7645   5
  -7  -3 -18 194.594 73.0213   5
  -7  -3 -19-121.357 65.1533   5
  -7  -3 -20 55.3982 62.3077   5
  -7  -3 -21 90.0023 72.8288   5
  -7  -3 -22 106.785 76.4298   5
   7   4 -11 128.789 59.2260   1
  -7  -4  11 254.252 79.0076   4
   7   4 -11 143.022 58.7756   2
   7   4 -10 541.650 96.7129   1
  -7  -4  10 526.938 95.9390   4
   7   4 -10 505.986 100.491   2
   7   4  -9 223.393 65.0417   1
  -7  -4   9 144.330 53.0414   4
   7   4  -9 296.487 73.3990   2
   7   4  -8 46.8300 54.4034   1
  -7  -4   8 83.3885 52.2502   4
   7   4  -8-31.5853 46.8301   2
  -7  -4   7 369.459 74.2940   4
   7   4  -7 399.064 79.9879   2
   7   4  -7 374.700 74.7780   1
   7   4  -6 1326.18 130.742   2
  -7  -4   6 1362.16 123.950   4
   7   4  -6 1235.13 124.534   1
  -7  -4   5 746.495 90.9712   4
   7   4  -5 646.204 91.1608   2
   7   4  -5 617.626 88.2759   1
  -7  -4   4 580.090 75.5429   4
   7   4  -4 416.114 73.2400   2
   7   4  -4 592.624 83.2271   1
  -7  -4   3 204.853 47.8526   4
   7   4  -3 241.299 48.0688   2
   7   4  -2 1396.82 118.374   2
  -7  -4   2 1462.61 97.3743   4
   7   4  -1 1433.33 116.474   2
   7   4   0 2464.85 143.210   2
   7   4   1 1331.28 90.5959   3
   7   4   1 1827.18 123.566   2
   7   4   2 1260.94 94.8795   3
   7   4   2 1181.92 97.2046   2
   7   4   3 123.398 39.0297   2
   7   4   3 130.571 41.8962   3
   7   4   4 17.6645 27.1563   2
   7   4   4 22.5145 32.5176   3
   7   4   5 19.1703 29.8528   2
   7   4   5 19.5119 30.4382   3
  -7  -4  -6 339.416 63.3110   1
   7   4   6 355.324 58.8634   3
   7   4   6 328.893 53.7478   2
  -7  -4  -7 9.73195 27.9800   1
   7   4   7 44.7104 42.0480   3
   7   4   7 1.12722 22.8210   2
   7   4   8 364.452 68.0363   3
  -7  -4  -8 331.541 61.4948   1
   7   4   8 367.015 54.9545   2
  -7  -4  -9 354.024 63.1879   1
   7   4   9 465.639 76.4643   3
   7   4   9 386.137 57.1943   2
   7   4  10 80.7962 40.8351   3
  -7  -4 -10 130.930 44.4549   1
   7   4  11 226.348 59.9682   3
  -7  -4 -11 272.095 62.0297   1
   7   4  12 787.556 103.493   3
  -7  -4 -12 852.410 101.853   1
   7   4  13 1097.94 120.783   3
  -7  -4 -13 1027.70 113.539   1
   7   4  14 284.718 73.0593   3
  -7  -4 -14 331.727 69.0802   1
   7   4  15 209.074 65.1779   3
  -7  -4 -15 348.902 73.5621   5
  -7  -4 -15 244.303 60.3658   1
   7   4  16 47.9113 45.8253   3
  -7  -4 -16 15.3646 46.6247   1
  -7  -4 -16 50.3565 46.9512   5
  -7  -4 -17 168.990 67.1040   1
   7   4  17 231.114 72.1626   3
  -7  -4 -17 157.161 71.8233   5
  -7  -4 -18 218.563 81.7843   5
  -7  -4 -19 94.1159 66.8982   5
  -7  -4 -20 201.523 82.2180   5
  -7  -4 -21 207.089 77.4695   5
  -7  -4 -22-51.0959 61.6924   5
  -7  -5  10 83.0030 54.3176   4
   7   5 -10 17.5600 44.2902   2
  -7  -5   9 126.887 59.6059   4
   7   5  -9-22.5698 51.4969   2
   7   5  -9 77.0713 45.1852   1
  -7  -5   8 77.6912 45.5433   4
   7   5  -8 142.967 65.5674   2
   7   5  -8-10.8273 36.9465   1
   7   5  -7 891.381 117.870   2
  -7  -5   7 815.959 106.221   4
   7   5  -7 949.580 113.454   1
  -7  -5   6 378.130 74.9606   4
   7   5  -6 422.252 86.0627   2
   7   5  -6 387.295 76.6783   1
  -7  -5   5 738.426 90.2277   4
   7   5  -5 470.089 84.2681   2
   7   5  -5 685.762 93.8302   1
  -7  -5   4 324.272 59.0831   4
   7   5  -4 239.337 61.6630   2
  -7  -5   3 108.347 37.6291   4
   7   5  -3 29.0604 36.5511   2
  -7  -5   2 79.2645 31.1982   4
   7   5  -2 14.2984 42.0079   2
   7   5  -1 729.100 88.1951   2
   7   5   0 3663.75 183.235   2
   7   5   1 3207.83 140.629   3
   7   5   1 3175.69 162.176   2
   7   5   2 440.795 62.4446   2
   7   5   2 481.880 63.7475   3
   7   5   3 1641.18 111.283   3
   7   5   3 1723.20 116.887   2
   7   5   4 149.450 42.0090   2
   7   5   4 182.087 45.3067   3
   7   5   5 120.126 39.0135   2
   7   5   5 112.135 42.4964   3
  -7  -5  -6 372.754 63.3422   1
   7   5   6 292.178 63.8237   3
   7   5   6 396.647 58.7149   2
  -7  -5  -7 44.2162 39.6542   1
   7   5   7 110.657 45.1011   3
   7   5   7 111.365 35.7446   2
   7   5   8 69.7042 47.9831   3
  -7  -5  -8 44.7506 40.2334   1
   7   5   8 13.4159 23.2827   2
  -7  -5  -9 107.101 49.4907   1
   7   5   9 48.5361 40.3175   3
   7   5   9 116.040 36.2583   2
   7   5  10 287.321 68.5148   3
  -7  -5 -10 343.522 67.3468   1
  -7  -5 -11 925.093 103.869   1
   7   5  11 821.870 100.588   3
  -7  -5 -12 1522.12 133.702   1
   7   5  12 1414.87 136.977   3
  -7  -5 -13 185.538 56.4463   1
   7   5  13 155.436 55.8204   3
  -7  -5 -14 507.578 83.2582   1
   7   5  14 533.681 96.4118   3
   7   5  15 156.653 63.0264   3
  -7  -5 -15 60.7525 41.2645   5
  -7  -5 -15 41.6096 37.9147   1
   7   5  16 32.8579 44.4952   3
  -7  -5 -16 44.0243 41.0737   1
  -7  -5 -16 93.0188 57.3769   5
  -7  -5 -17 155.632 68.3226   1
   7   5  17 23.1454 49.2324   3
  -7  -5 -17 46.2500 48.8470   5
  -7  -5 -18 373.618 88.0663   1
  -7  -5 -18 220.927 76.7285   5
  -7  -5 -19-48.0527 50.7876   5
  -7  -5 -20-62.4766 60.7373   5
  -7  -5 -21-22.4722 52.8390   5
  -7  -5 -22 163.084 81.6768   5
  -7  -6  10 148.057 68.7519   4
  -7  -6   9 45.4347 45.9658   4
   7   6  -9-16.9936 50.4125   2
  -7  -6   8 93.8436 50.6532   4
   7   6  -8 29.0109 46.5089   2
   7   6  -8 82.8092 50.0347   1
  -7  -6   7 397.531 77.1702   4
   7   6  -7 588.651 105.811   2
  -7  -6   6 773.771 103.234   4
   7   6  -6 1138.26 130.506   2
  -7  -6   5 686.235 90.7071   4
   7   6  -5 474.774 81.2717   2
  -7  -6   4 220.830 55.5412   4
   7   6  -4 132.763 54.1693   2
  -7  -6   3-28.5477 28.8069   4
   7   6  -3-84.7536 55.5673   2
   7   6  -2-22.3517 42.6777   2
   7   6  -1 464.154 73.0372   2
   7   6   0 139.319 47.9359   2
   7   6   1 402.823 67.4762   2
   7   6   2 272.125 55.9984   2
   7   6   2 240.215 45.8687   3
   7   6   3 45.4516 36.1278   2
   7   6   3 27.1642 29.6204   3
   7   6   4 1393.69 106.688   3
   7   6   4 1430.76 106.089   2
   7   6   5 16.9300 30.4005   2
  -7  -6  -5-14.7237 37.6667   1
   7   6   5 70.2885 34.4517   3
   7   6   6 72.4181 33.1653   2
  -7  -6  -6 81.2327 44.1190   1
   7   6   6 27.5057 39.7157   3
  -7  -6  -7 428.839 73.5644   1
   7   6   7 469.616 79.1426   3
   7   6   7 401.656 57.4922   2
   7   6   8 637.836 86.6329   3
  -7  -6  -8 716.631 86.6752   1
   7   6   8 668.485 68.0368   2
  -7  -6  -9 44.6504 34.5396   1
   7   6   9 140.429 51.3814   3
  -7  -6 -10 254.139 57.6582   1
   7   6  10 339.578 68.5989   3
  -7  -6 -11 2102.77 153.903   1
   7   6  11 2176.49 157.464   3
  -7  -6 -12 700.872 95.2344   1
   7   6  12 909.798 112.740   3
  -7  -6 -13 454.517 79.8410   1
   7   6  13 488.142 89.2471   3
  -7  -6 -14 153.611 63.4971   1
   7   6  14 134.191 61.8721   3
   7   6  15 173.473 71.2984   3
  -7  -6 -15 127.561 52.4753   5
  -7  -6 -15 111.292 51.8817   1
   7   6  16-50.4397 57.2965   3
  -7  -6 -16 55.4601 47.9102   5
  -7  -6 -16 10.6302 38.8854   1
   7   6  17 118.893 67.2713   3
  -7  -6 -17 127.700 58.2723   1
  -7  -6 -17 75.0500 58.2845   5
  -7  -6 -18 59.5763 51.2932   1
   7   6  18 2.05122 44.1410   3
  -7  -6 -18 127.609 67.7897   5
  -7  -6 -19-77.6129 60.6068   5
  -7  -6 -20 34.4547 51.1039   5
  -7  -6 -21 139.351 72.1598   5
  -7  -6 -22 77.8197 63.6222   5
  -7  -7   9 121.722 55.4336   4
  -7  -7   8 382.812 87.1192   4
   7   7  -8 451.772 100.474   2
  -7  -7   7 1005.68 123.309   4
   7   7  -7 1070.61 137.042   2
  -7  -7   6 228.295 62.6078   4
   7   7  -6 370.678 86.4700   2
  -7  -7   5 655.607 93.0169   4
   7   7  -5 821.628 113.537   2
  -7  -7   4 242.519 55.5891   4
   7   7  -4 188.673 63.4401   2
  -7  -7   3 3.65355 29.7217   4
   7   7  -3-7.98448 47.0699   2
   7   7  -2 213.775 62.6363   2
   7   7  -1 914.098 105.475   2
   7   7   0 1063.65 105.336   2
   7   7   1 155.316 43.9334   2
   7   7   2 40.5253 34.5644   2
   7   7   2 71.9822 36.7599   3
   7   7   3 374.905 63.0295   2
   7   7   3 346.503 62.1244   3
   7   7   4 360.622 61.8862   2
   7   7   4 355.997 60.7236   3
  -7  -7  -5 1254.88 112.033   1
   7   7   5 1136.76 101.447   3
   7   7   5 1128.08 95.9831   2
   7   7   6 218.096 46.1146   2
  -7  -7  -6 163.259 49.5442   1
   7   7   6 239.001 54.2873   3
  -7  -7  -7 306.449 64.9152   1
   7   7   7 404.334 68.7836   3
   7   7   7 392.983 57.8871   2
  -7  -7  -8 511.125 74.3193   1
   7   7   8 521.483 84.3947   3
  -7  -7  -9 25.1085 38.8292   1
   7   7   9 20.9960 42.8454   3
  -7  -7 -10 851.561 100.191   1
   7   7  10 804.317 100.249   3
  -7  -7 -11 4513.62 224.301   1
   7   7  11 4752.32 235.035   3
  -7  -7 -12 1492.43 137.556   1
   7   7  12 1073.89 122.298   3
  -7  -7 -13 11.8517 39.5355   1
   7   7  13 59.1014 45.3876   3
  -7  -7 -14-36.6310 44.1933   1
   7   7  14-7.52763 44.0833   3
   7   7  15 119.632 50.5843   3
  -7  -7 -15 211.806 61.4975   5
   7   7  16-20.1182 46.7637   3
  -7  -7 -16 44.0839 41.2129   5
  -7  -7 -16 23.9263 43.4258   1
  -7  -7 -17 18.1458 41.5951   5
   7   7  17 73.3708 58.0597   3
  -7  -7 -17-39.9172 40.2306   1
  -7  -7 -18 192.149 75.3292   1
   7   7  18 0.84582 51.3659   3
  -7  -7 -18 97.2726 53.3602   5
   7   7  19 301.364 92.3371   3
  -7  -7 -19 150.119 66.2351   5
  -7  -7 -20 256.481 80.4240   5
  -7  -7 -21 222.018 78.6110   5
  -7  -7 -22 392.652 103.156   5
  -7  -8   8 448.705 91.4932   4
  -7  -8   7 411.535 84.5322   4
   7   8  -7 451.293 102.852   2
  -7  -8   6 372.229 77.9154   4
   7   8  -6 561.040 106.787   2
  -7  -8   5 366.897 73.1225   4
   7   8  -5 294.150 74.4558   2
  -7  -8   4 289.306 65.2905   4
   7   8  -4 386.060 84.1821   2
   7   8  -3 100.927 51.1882   2
   7   8  -2 221.855 64.5075   2
   7   8  -1 662.272 94.6982   2
   7   8   0 397.041 74.1197   2
   7   8   1 145.442 48.8587   2
   7   8   2 13.1718 35.0395   2
   7   8   3 131.293 45.0624   2
   7   8   3 175.322 47.5620   3
   7   8   4 1490.82 114.410   3
   7   8   4 1544.25 113.724   2
  -7  -8  -5 1052.33 105.680   1
   7   8   5 1163.34 105.805   3
   7   8   5 1013.46 89.8162   2
  -7  -8  -6 2754.67 169.240   1
   7   8   6 2836.96 162.954   3
   7   8   6 2520.23 137.344   2
   7   8   7 2281.81 152.884   3
  -7  -8  -7 2085.48 147.490   1
   7   8   7 2038.73 119.120   2
   7   8   8 47.3561 38.7323   3
  -7  -8  -8 1.81225 31.0075   1
  -7  -8  -9 94.3350 45.0210   1
   7   8   9 127.330 51.5952   3
  -7  -8 -10 1161.88 119.919   1
   7   8  10 1268.20 125.246   3
  -7  -8 -11 1360.06 124.918   1
   7   8  11 1394.73 136.166   3
   7   8  12 362.436 78.3856   3
  -7  -8 -12 248.915 66.8582   1
  -7  -8 -13 160.330 58.1105   1
   7   8  13 96.6253 55.3500   3
  -7  -8 -14 24.8407 44.5462   1
   7   8  14-63.9140 51.7915   3
  -7  -8 -15-21.6492 41.9953   1
   7   8  15 48.1869 51.1779   3
  -7  -8 -15-50.4349 39.9788   5
   7   8  16 67.1368 51.9316   3
  -7  -8 -16 104.943 48.6165   5
  -7  -8 -16 25.3477 49.7761   1
   7   8  17 244.394 72.4255   3
  -7  -8 -17 119.972 57.8431   5
  -7  -8 -17 141.637 55.5323   1
   7   8  18 138.350 62.5073   3
  -7  -8 -18 185.419 67.1554   1
  -7  -8 -18 204.391 63.1142   5
   7   8  19 401.088 95.0717   3
  -7  -8 -19 176.940 57.8156   5
  -7  -8 -20 391.355 85.1594   5
  -7  -8 -21 225.181 74.8930   5
  -7  -8 -22 151.016 65.3106   5
  -7  -8 -23 159.841 68.1692   5
  -7  -9   7 381.735 85.1404   4
  -7  -9   6 480.541 90.0571   4
   7   9  -6 428.714 98.8482   2
  -7  -9   5 619.398 97.2636   4
   7   9  -5 342.929 81.2429   2
   7   9  -4 230.607 78.1568   2
   7   9  -3-34.1056 52.6144   2
   7   9  -2 408.328 80.9214   2
   7   9  -1 107.349 54.7423   2
   7   9   0 235.965 54.0198   2
   7   9   1 5.94581 36.0285   2
   7   9   2 17.2762 34.4795   2
   7   9   3 1384.31 116.257   2
   7   9   4 1630.26 121.211   3
   7   9   4 1481.85 116.654   2
  -7  -9  -5 1820.30 139.160   1
   7   9   5 1922.06 135.670   3
   7   9   5 1537.02 114.013   2
  -7  -9  -6 1779.19 142.104   1
   7   9   6 1897.72 138.434   3
   7   9   6 1647.61 113.924   2
   7   9   7 2508.93 160.889   3
  -7  -9  -7 2636.36 166.294   1
   7   9   8 1181.29 117.868   3
  -7  -9  -8 1183.23 114.930   1
  -7  -9  -9-28.2086 34.6926   1
   7   9   9 154.193 54.9610   3
  -7  -9 -10 1851.32 147.383   1
   7   9  10 1760.20 146.736   3
  -7  -9 -11 605.571 95.8180   1
   7   9  11 416.824 83.8973   3
   7   9  12 350.675 80.1247   3
  -7  -9 -12 383.408 80.7769   1
  -7  -9 -13 17.7889 37.0904   1
   7   9  13-20.7363 50.7932   3
  -7  -9 -14 64.5936 47.5171   1
   7   9  14 186.730 66.6325   3
  -7  -9 -15 157.851 63.3799   1
   7   9  15 210.421 68.4300   3
   7   9  16 83.4697 53.3980   3
  -7  -9 -16 20.6760 41.1661   1
   7   9  17 181.372 64.9205   3
  -7  -9 -17 274.302 68.5459   5
  -7  -9 -17 119.150 57.6170   1
   7   9  18 211.574 74.2328   3
  -7  -9 -18 247.655 83.6061   1
  -7  -9 -18 277.561 73.8684   5
  -7  -9 -19 40.6788 45.8206   5
  -7  -9 -20 468.490 94.1948   5
  -7  -9 -21 268.307 82.7692   5
   7  10  -5 262.461 80.0786   2
   7  10  -4 82.5268 49.3458   2
   7  10  -3 79.5812 58.0795   2
   7  10  -2 41.3564 51.6232   2
   7  10  -1 31.0576 45.3026   2
   7  10   0 24.1756 47.4696   2
   7  10   1 125.883 51.2681   2
   7  10   2 283.118 59.8600   2
   7  10   3 1607.33 129.643   2
  -7 -10  -4 2819.52 175.862   1
   7  10   4 3098.55 168.302   3
   7  10   4 2820.22 163.820   2
  -7 -10  -5 1767.28 142.255   1
   7  10   5 2011.30 139.166   3
   7  10   5 1762.07 126.256   2
   7  10   6 1445.03 123.016   3
  -7 -10  -6 1394.33 125.669   1
   7  10   7 964.697 106.822   3
  -7 -10  -7 828.761 99.0989   1
   7  10   8 251.633 62.7643   3
  -7 -10  -8 246.175 65.1098   1
  -7 -10  -9 1783.99 142.485   1
   7  10   9 2011.28 156.433   3
  -7 -10 -10 482.525 83.2492   1
   7  10  10 515.355 91.4680   3
   7  10  11 129.885 52.7936   3
  -7 -10 -11 90.3006 46.1835   1
   7  10  12-26.6793 45.9466   3
  -7 -10 -12 30.2788 44.3312   1
  -7 -10 -13-8.90563 42.2465   1
   7  10  13 5.64688 56.3175   3
   7  10  14 754.642 111.325   3
  -7 -10 -14 774.727 111.155   1
  -7 -10 -15 507.977 93.9763   1
   7  10  15 518.260 103.704   3
   7  10  16 394.284 84.5732   3
  -7 -10 -16 304.407 77.9661   1
   7  10  17 278.417 79.3070   3
  -7 -10 -17 460.933 98.4048   1
   7  10  18 45.1952 62.0594   3
  -7 -10 -18 222.787 77.7311   1
   7  11  -4 45.1005 45.3318   2
   7  11  -3-3.19760 41.3600   2
   7  11  -2-49.6510 50.3683   2
   7  11  -1 159.337 64.5100   2
   7  11   0-77.9384 56.7361   2
   7  11   1-30.5393 40.8727   2
   7  11   2 47.6150 38.5109   2
   7  11   3 1338.26 124.083   2
   7  11   4 2061.11 144.319   2
  -7 -11  -4 2140.18 157.657   1
  -7 -11  -5 1126.51 119.102   1
   7  11   5 1305.16 117.474   3
  -7 -11  -6 158.289 52.2669   1
   7  11   6 212.811 67.5274   3
   7  11   7 228.574 62.3591   3
  -7 -11  -7 191.252 57.0291   1
  -7 -11  -8 88.5202 48.2922   1
   7  11   8 120.076 52.9715   3
  -7 -11  -9 354.284 80.9873   1
   7  11   9 266.895 69.9186   3
  -7 -11 -10 353.870 72.1833   1
   7  11  10 269.706 62.7639   3
   7  11  11-68.8307 51.8135   3
  -7 -11 -11 17.1469 38.6318   1
   7  11  12 146.014 61.5508   3
  -7 -11 -12 204.452 62.1542   1
  -7 -11 -13 60.1806 52.5577   1
   7  11  13 81.0807 69.7374   3
  -7 -11 -14 406.231 87.2527   1
   7  11  14 326.869 85.2078   3
  -7 -11 -15 526.417 100.355   1
   7  11  15 484.357 98.8963   3
  -7 -11 -16 393.510 88.8706   1
   7  11  16 239.245 76.5938   3
   7  11  17 527.626 108.819   3
  -7 -11 -17 590.330 109.701   1
   7  11  18 150.439 71.5666   3
   7  12  -3 7.08445 52.4785   2
   7  12  -2 46.0028 46.8153   2
   7  12  -1-42.2243 64.0070   2
   7  12   0 64.1784 40.5976   2
   7  12   1 79.9031 43.4384   2
   7  12   2 208.905 56.1141   2
   7  12   3 601.068 87.3077   2
  -7 -12  -3 880.105 106.461   1
  -7 -12  -4 1038.50 113.364   1
  -7 -12  -5 557.528 87.3859   1
  -7 -12  -6 131.357 51.4867   1
   7  12   6 64.9215 41.6197   3
   7  12   7 52.4036 50.1096   3
  -7 -12  -7 88.4365 43.4845   1
  -7 -12  -8 21.8020 33.6612   1
   7  12   8-9.83228 43.8353   3
  -7 -12  -9 167.554 62.7042   1
   7  12   9 104.221 49.9332   3
  -7 -12 -10 174.134 58.7431   1
   7  12  10 275.562 76.9884   3
   7  12  11 82.6086 63.6717   3
  -7 -12 -11 75.5439 46.7872   1
   7  12  12 1.61343 48.0754   3
  -7 -12 -12-4.07211 40.0761   1
  -7 -12 -13 298.445 70.8285   1
   7  12  13 253.097 75.0445   3
  -7 -12 -14 217.143 69.4817   1
   7  12  14 296.163 78.4364   3
  -7 -12 -15 437.123 95.0743   1
   7  12  15 743.084 115.967   3
  -7 -12 -16 402.747 92.6313   1
   7  12  16 488.848 103.384   3
   7  12  17 337.908 96.0428   3
  -7 -12 -17 302.844 91.4837   1
   7  13  -2 68.2809 43.5909   2
   7  13  -1 187.770 69.4210   2
   7  13   0 151.657 55.2034   2
   7  13   1 122.081 56.9488   2
   7  13   2 446.310 85.0090   2
  -7 -13  -5 336.427 74.6382   1
  -7 -13  -6 112.836 45.2152   1
  -7 -13  -7-0.46414 40.4707   1
   7  13   7 7.95270 39.8255   3
  -7 -13  -8 1.10669 37.1130   1
   7  13   8 28.5218 40.2567   3
  -7 -13  -9 38.5665 48.7860   1
   7  13   9 19.9420 48.2295   3
   7  13  10 401.866 88.8279   3
  -7 -13 -10 408.338 81.5534   1
   7  13  11 140.422 64.5437   3
  -7 -13 -11 2.81140 41.3034   1
  -7 -13 -12 112.773 50.7475   1
   7  13  12 58.9677 47.3633   3
  -7 -13 -13 338.224 77.9647   1
   7  13  13 375.950 85.1307   3
  -7 -13 -14 428.982 85.5442   1
   7  13  14 455.119 96.3941   3
  -7 -13 -15 385.219 87.2861   1
   7  13  15 574.463 101.722   3
  -7 -13 -16 263.201 80.5419   1
   7  13  16 278.389 89.5257   3
   7  14   0 132.607 59.9996   2
   7  14   1 692.176 110.704   2
  -7 -14  -7-6.91465 35.2335   1
   7  14   7 32.6423 45.7817   3
  -7 -14  -8 51.3790 38.4832   1
   7  14   8 69.5818 39.0073   3
  -7 -14  -9 77.7594 48.8783   1
   7  14   9 163.258 58.5104   3
   7  14  10 43.9702 51.4055   3
  -7 -14 -10 9.17208 38.2106   1
   7  14  11 34.4664 55.9391   3
  -7 -14 -11 156.778 60.7814   1
  -7 -14 -12 463.761 90.2025   1
   7  14  12 561.438 106.139   3
  -7 -14 -13 424.722 86.6168   1
   7  14  13 338.285 86.2727   3
  -7 -14 -14 302.689 86.2075   1
   7  14  14 237.073 75.5055   3
  -7 -14 -15 504.369 101.304   1
   7  14  15 668.598 118.155   3
  -7 -14 -16 282.776 85.4069   1
   7  15   8 439.134 89.2656   3
   7  15   9 208.715 59.1557   3
  -7 -15  -9 269.363 70.0828   1
   7  15  10 189.199 65.2816   3
  -7 -15 -10 106.875 54.6857   1
  -7 -15 -11 192.552 59.1905   1
   7  15  11 346.384 85.8057   3
  -7 -15 -12 276.102 72.7969   1
   7  15  12 580.154 101.416   3
  -7 -15 -13 441.458 87.1550   1
   7  15  13 508.787 103.269   3
  -7 -15 -14 321.697 83.6111   1
   7  15  14 279.249 87.9038   3
  -7 -15 -15 511.417 102.416   1
   7  16   9 122.617 65.1048   3
   7  16  10 180.132 68.6159   3
  -7 -16 -11 252.618 65.9799   1
   7  16  11 250.585 80.2312   3
  -7 -16 -12 217.960 72.5355   1
   7  16  12 224.136 71.9260   3
  -7 -16 -13 516.282 96.4943   1
   7  16  13 882.787 132.145   3
  -7 -16 -14 584.994 107.720   1
   7  17  10 177.211 75.4211   3
   7  17  11 369.791 92.6900   3
  -7 -17 -13 350.127 89.9931   1
   8 -16  -7 39.3673 42.9937   4
   8 -16  -6 120.075 58.1403   4
   8 -16  -5 123.175 64.1128   4
   8 -16  -4 335.743 87.8752   4
   8 -16  -3 54.0175 53.6822   4
   8 -15 -10 29.2334 45.6605   4
   8 -15  -9-69.2559 52.8302   3
   8 -15  -9 19.1795 42.3234   4
   8 -15  -8 220.394 84.0778   3
   8 -15  -8 191.737 67.2848   4
   8 -15  -7 120.466 74.2212   3
   8 -15  -7 61.5967 56.2588   4
   8 -15  -6 207.602 74.8940   3
   8 -15  -6 131.161 63.7895   4
   8 -15  -5 226.573 86.1439   3
   8 -15  -5 370.550 87.8774   4
   8 -15  -4 675.790 124.654   3
   8 -15  -4 588.545 108.604   4
   8 -15  -3 114.061 66.3522   3
   8 -15  -3 122.525 67.3779   4
   8 -14 -11 208.642 76.7199   4
   8 -14 -10-12.8113 38.3550   4
   8 -14  -9-66.7290 54.6325   3
   8 -14  -9-11.8049 40.5345   4
   8 -14  -8-49.3283 53.8760   3
   8 -14  -8 9.25961 34.8114   4
   8 -14  -7 120.357 62.6056   3
   8 -14  -7-6.27786 33.0301   4
   8 -14  -6 326.026 89.0974   3
   8 -14  -6 76.9496 42.7778   4
   8 -14  -5 307.731 81.0827   3
   8 -14  -5 192.268 66.0064   4
   8 -14  -4 401.518 95.9717   3
   8 -14  -4 310.886 71.7089   4
   8 -14  -3 382.257 90.4939   3
   8 -14  -3 342.019 80.6198   4
   8 -14  -2 548.228 112.723   3
   8 -14  -2 585.125 106.018   4
   8 -14  -1 167.372 71.7870   3
   8 -14   0 44.7266 66.4821   3
   8 -14   1 709.521 126.925   3
   8 -13 -12 33.2861 64.4815   4
   8 -13 -11 51.3225 43.3450   4
   8 -13 -10 0.39951 37.4174   4
   8 -13  -9-20.0785 42.5532   3
   8 -13  -9-46.9345 42.8839   4
   8 -13  -8 99.2554 68.2581   3
   8 -13  -8-51.2620 40.5554   4
   8 -13  -7 212.740 80.3963   3
   8 -13  -7 118.244 50.5709   4
   8 -13  -6 154.507 68.6117   3
   8 -13  -6 139.592 55.5835   4
   8 -13  -5 486.594 99.0310   3
   8 -13  -5 286.022 70.7375   4
   8 -13  -4 358.148 88.5831   3
   8 -13  -4 222.860 62.5581   4
   8 -13  -3 371.006 93.6823   3
   8 -13  -3 214.585 63.4721   4
   8 -13  -2 226.860 75.5802   3
   8 -13  -2 215.705 66.8454   4
   8 -13  -1 471.475 108.323   3
   8 -13   0 271.342 82.4011   3
   8 -13   1 288.446 84.8147   3
   8 -13   2 138.702 68.4468   3
   8 -13   3 138.889 68.0211   3
   8 -12 -14 329.155 89.9536   1
   8 -12 -13 31.2834 48.3289   4
   8 -12 -12 80.3565 57.3843   4
   8 -12 -11-12.2370 37.0194   4
   8 -12 -10 41.4414 40.6065   4
   8 -12  -9 37.4436 38.4253   3
   8 -12  -9-41.2524 43.5494   4
   8 -12  -8 209.437 62.6802   3
   8 -12  -8 168.170 48.6897   4
   8 -12  -7 603.615 104.044   3
   8 -12  -7 468.394 84.8886   4
   8 -12  -6 987.432 132.714   3
   8 -12  -6 688.614 99.3037   4
   8 -12  -5 1226.96 135.152   3
   8 -12  -5 706.830 101.085   4
   8 -12  -4 511.814 94.5810   3
   8 -12  -4 305.547 69.9855   4
   8 -12  -3 1010.41 134.475   3
   8 -12  -3 506.941 87.5567   4
   8 -12  -2 132.578 66.0145   3
   8 -12  -2 147.620 49.6266   4
   8 -12  -1 181.848 77.8671   3
   8 -12   0 172.038 75.6007   3
   8 -12   1 119.665 56.5506   3
   8 -12   2 55.9561 45.4045   3
   8 -12   3-5.33434 46.2705   3
   8 -12   4 207.724 76.4333   3
   8 -12   5 225.856 73.1343   3
   8 -11 -14 31.3152 55.8551   1
   8 -11 -13 4.20083 40.0095   1
   8 -11 -13 35.5393 59.3130   4
   8 -11 -12 39.9478 40.8433   1
   8 -11 -12-7.55714 40.9467   4
   8 -11 -11-46.2357 55.0776   1
   8 -11 -11 73.2685 55.9298   4
   8 -11 -10 67.6797 44.6691   4
   8 -11  -9 158.159 66.1397   3
   8 -11  -9 163.056 68.4842   4
   8 -11  -8 33.8235 34.6735   3
   8 -11  -8 12.7855 38.7412   4
   8 -11  -7 1016.34 125.224   3
   8 -11  -7 775.217 104.991   4
   8 -11  -6 1486.32 148.483   3
   8 -11  -6 1060.20 118.674   4
   8 -11  -5 989.755 129.401   3
   8 -11  -5 750.292 99.5614   4
   8 -11  -4 1686.29 155.551   3
   8 -11  -4 1171.74 119.012   4
   8 -11  -3 111.873 64.6368   3
   8 -11  -3 110.849 41.8544   4
   8 -11  -2 147.140 71.2790   3
   8 -11  -2 39.7114 35.0928   4
   8 -11  -1 52.4413 49.0168   3
   8 -11   0 232.004 77.6204   3
   8 -11   1-40.3097 50.5618   3
   8 -11   2-63.4533 62.4278   3
   8 -11   3 38.8932 48.7037   3
   8 -11   4 457.045 97.0440   3
   8 -11   5 260.989 76.5043   3
   8 -11   6 500.517 106.562   3
   8 -11   7 323.677 89.2642   3
   8 -10 -14-66.5907 50.5917   1
   8 -10 -13 70.6439 49.2191   1
   8 -10 -13 80.5835 59.8039   4
   8 -10 -12 56.7676 42.6328   1
   8 -10 -12 88.3863 61.0418   4
   8 -10 -11-44.4521 43.9580   1
   8 -10 -11 59.5735 50.9231   4
   8 -10 -10 157.919 52.4950   1
   8 -10 -10 377.558 80.2646   4
   8 -10  -9-22.3982 39.0907   1
   8 -10  -9-35.9361 38.3168   4
   8 -10  -8-13.3170 35.9890   3
   8 -10  -8 4.10695 36.6409   4
   8 -10  -7 148.689 62.3519   3
   8 -10  -7 169.460 54.8383   4
   8 -10  -6 1047.27 120.999   3
   8 -10  -6 634.048 89.6861   4
   8 -10  -5 1746.90 140.182   2
   8 -10  -5 1285.87 124.332   4
   8 -10  -4 1940.41 165.965   3
   8 -10  -4 1640.21 136.280   4
   8 -10  -3 41.0276 48.7122   3
   8 -10  -3 4.39986 34.3342   4
   8 -10  -2-121.620 51.0848   3
   8 -10  -2-43.5900 43.5642   4
   8 -10  -1-29.6234 50.4075   3
   8 -10   0 58.8675 54.8022   3
   8 -10   1 9.98301 44.7932   3
   8 -10   2-34.5405 52.2627   3
   8 -10   3 128.196 61.9466   3
   8 -10   4 1110.42 142.167   3
   8 -10   5 353.622 85.9164   3
   8 -10   6 382.827 87.5487   3
   8 -10   7 745.737 122.845   3
   8 -10   8 350.838 92.7506   3
   8  -9 -14 9.82719 42.9874   1
   8  -9 -13 200.701 70.2705   1
   8  -9 -12 150.102 58.2531   1
   8  -9 -12 286.168 71.9457   4
   8  -9 -11 121.385 59.3117   1
   8  -9 -11 56.3343 44.4520   4
   8  -9 -10 161.748 55.7097   1
   8  -9 -10 185.594 56.0290   4
   8  -9  -9 9.54906 33.4035   1
   8  -9  -9 26.9400 39.2276   4
   8  -9  -8 14.0918 33.0160   1
   8  -9  -8-12.3867 52.4740   4
   8  -9  -7 213.603 56.2380   1
   8  -9  -7 178.784 51.7490   3
   8  -9  -7 159.092 50.8563   4
   8  -9  -6 22.8174 45.1044   3
   8  -9  -6 7.98894 32.5447   4
   8  -9  -6 81.5800 35.1281   2
   8  -9  -5 743.893 101.212   3
   8  -9  -5 618.041 83.3996   2
   8  -9  -5 627.140 86.3308   4
   8  -9  -4 2498.36 178.466   3
   8  -9  -4 2265.13 151.433   2
   8  -9  -4 2235.27 151.293   4
   8  -9  -3 253.112 69.6998   3
   8  -9  -3 114.435 47.1170   2
   8  -9  -3 150.781 52.7244   4
   8  -9  -2 503.364 84.7283   3
   8  -9  -1 61.2712 51.6409   3
   8  -9   0 241.258 69.6835   3
   8  -9   1 17.7915 52.3032   3
   8  -9   2 7.76738 46.4492   3
   8  -9   3 248.114 77.9841   3
   8  -9   4 350.935 78.3315   3
   8  -9   5 406.254 83.6527   3
   8  -9   6 1208.21 139.522   3
   8  -9   7 514.381 99.1554   3
   8  -9   8 194.716 71.1221   3
   8  -9   9-42.8549 48.3024   3
   8  -8 -14 106.946 67.0051   1
   8  -8 -13 373.097 91.8764   1
   8  -8 -12 192.522 64.8399   1
   8  -8 -11 253.695 73.6275   1
   8  -8 -11 308.880 86.1853   4
   8  -8 -10 647.559 97.6598   4
   8  -8 -10 610.800 108.186   1
   8  -8  -9 430.600 86.3564   1
   8  -8  -9 503.713 84.0908   4
   8  -8  -8 454.110 78.8220   4
   8  -8  -8 633.862 93.2365   1
   8  -8  -7 405.290 72.4822   1
   8  -8  -7 571.450 85.1217   3
   8  -8  -7 343.988 69.4292   4
   8  -8  -7 521.819 75.4770   2
   8  -8  -6 326.261 62.2304   1
   8  -8  -6 296.868 68.0537   3
   8  -8  -6 399.180 70.1623   4
   8  -8  -6 342.624 62.3304   2
   8  -8  -5 296.588 56.6174   1
   8  -8  -5 372.915 77.5164   3
   8  -8  -5 396.344 67.0636   4
   8  -8  -5 404.491 73.5510   2
   8  -8  -4 44.9354 49.0594   3
   8  -8  -4-37.7007 36.8843   4
   8  -8  -4-26.8831 30.8696   2
   8  -8  -3 180.712 57.4413   3
   8  -8  -3 148.898 47.1826   2
   8  -8  -3 171.607 47.8697   4
   8  -8  -2-25.2489 50.7277   3
   8  -8  -2 71.3907 47.8395   2
   8  -8  -1 152.184 59.8686   3
   8  -8   0 83.5747 49.0232   3
   8  -8   1-12.2899 40.6263   3
   8  -8   2 538.169 88.3542   3
   8  -8   3 675.236 97.5136   3
   8  -8   4 464.953 84.7135   3
   8  -8   5 2215.22 174.548   3
   8  -8   6 560.714 97.8440   3
   8  -8   7 575.758 98.8101   3
   8  -8   8 291.233 78.2323   3
   8  -8   9 71.3749 60.3355   3
  -8   8  -9 15.5482 39.4280   5
  -8   8 -10 99.3714 57.9033   5
  -8   8 -11 135.916 58.7131   5
  -8   8 -12 86.9221 60.3774   5
  -8   8 -13-18.7802 47.8091   5
   8  -7 -14 21.3680 51.7019   1
   8  -7 -13 799.898 127.094   1
   8  -7 -12 578.428 107.892   1
   8  -7 -11 423.126 88.9877   1
   8  -7 -10 156.651 62.1271   1
   8  -7  -9 497.515 91.9109   1
   8  -7  -9 636.529 95.1974   4
   8  -7  -8 403.297 72.3773   2
   8  -7  -8 455.744 81.6627   1
   8  -7  -8 411.989 71.7265   4
   8  -7  -7 286.802 69.5242   1
   8  -7  -7 338.138 69.1615   4
   8  -7  -7 245.097 56.4812   2
   8  -7  -6 647.109 87.6561   3
   8  -7  -6 619.677 81.7779   4
   8  -7  -6 728.759 86.9451   2
   8  -7  -6 732.067 88.1722   1
   8  -7  -5 380.919 64.7688   1
   8  -7  -5 397.741 70.7847   3
   8  -7  -5 425.366 67.6505   4
   8  -7  -5 359.233 67.4635   2
   8  -7  -4 29.1690 33.7430   1
   8  -7  -4 61.1411 49.2456   3
   8  -7  -4 41.1735 28.4080   4
   8  -7  -4 97.0684 48.0407   2
   8  -7  -3 4.35818 37.3571   3
   8  -7  -3 28.8165 34.4352   4
   8  -7  -3 53.7311 40.3388   2
   8  -7  -2 699.020 96.0320   3
   8  -7  -2 790.498 91.3988   2
   8  -7  -1 1047.90 110.080   3
   8  -7  -1 1137.41 108.743   2
   8  -7   0 650.982 93.0949   3
   8  -7   0 783.703 93.1681   2
   8  -7   1 548.548 91.0731   3
   8  -7   2 974.953 112.882   3
   8  -7   3 650.019 93.6359   3
   8  -7   4 481.790 81.3811   3
   8  -7   5 2579.62 179.400   3
   8  -7   6 510.055 90.9979   3
   8  -7   7 468.166 98.2544   3
   8  -7   8 136.423 61.3772   3
   8  -7   9 45.2893 50.8015   3
   8  -7  10 115.663 62.3177   3
  -8   7 -10 76.1603 49.7630   5
  -8   7 -11 41.2944 41.4189   5
  -8   7 -12 93.2021 57.8991   5
  -8   7 -13 344.762 88.4872   5
  -8   7 -14 63.8803 44.1029   5
  -8   7 -15 320.381 85.3845   5
  -8   7 -16 551.094 111.632   5
  -8   7 -17 293.867 91.4988   5
   8  -6 -14 97.0450 61.1156   1
   8  -6 -13 416.538 104.282   1
   8  -6 -12 771.339 123.796   1
   8  -6 -11 1058.99 138.670   1
   8  -6 -10 134.249 61.0112   1
   8  -6  -9 105.331 46.4125   2
   8  -6  -9 175.630 65.7778   1
   8  -6  -8 520.574 74.8952   2
   8  -6  -8 484.103 88.3690   1
   8  -6  -8 490.757 81.5957   4
   8  -6  -7 50.0600 37.1958   1
   8  -6  -7 8.34750 32.7840   4
   8  -6  -6 1442.36 118.838   4
   8  -6  -6 1410.98 117.365   2
   8  -6  -6 1293.42 119.258   1
   8  -6  -5 121.132 42.3131   1
   8  -6  -5 167.738 51.2635   3
   8  -6  -5 194.777 46.4415   4
   8  -6  -5 243.416 56.2884   2
   8  -6  -4 26.6630 33.7295   1
   8  -6  -4 108.137 45.7233   3
   8  -6  -4 86.1618 39.4134   4
   8  -6  -4 144.023 48.7709   2
   8  -6  -3 45.4793 37.3600   1
   8  -6  -3 37.1419 37.9648   3
   8  -6  -3 7.06706 33.4936   2
   8  -6  -2 609.956 84.2546   3
   8  -6  -2 549.449 66.9237   1
   8  -6  -2 483.568 73.2325   2
   8  -6  -1 1757.61 133.149   3
   8  -6  -1 1715.03 127.834   2
   8  -6   0 1289.82 118.618   3
   8  -6   0 1302.83 114.721   2
   8  -6   1 3753.36 195.402   3
   8  -6   1 3668.00 194.879   2
   8  -6   2 3962.03 203.824   3
   8  -6   3 174.468 57.8561   3
   8  -6   4 350.691 77.3944   3
   8  -6   5 2398.30 167.680   3
   8  -6   6 492.128 79.5868   3
   8  -6   7 82.5880 52.2033   3
   8  -6   8 44.8396 42.7197   3
   8  -6   9-4.01096 55.0174   3
   8  -6  10 71.0808 49.3489   3
   8  -6  11 244.913 74.5939   3
  -8   6 -11 298.223 75.9669   5
  -8   6 -12 403.329 89.3362   5
  -8   6 -12 395.720 97.7237   2
  -8   6 -13 55.6929 47.6610   5
  -8   6 -14 373.139 89.7758   5
  -8   6 -15 296.895 84.3037   5
  -8   6 -16 314.521 85.3958   5
  -8   6 -17 30.1929 61.9421   5
   8  -5 -13 571.190 115.801   1
   8  -5 -12 1050.96 144.346   1
   8  -5 -11 914.760 132.215   1
   8  -5 -10 263.955 76.9066   1
   8  -5  -9 40.4062 39.6799   2
   8  -5  -9-12.9234 36.9025   1
   8  -5  -8 24.9535 35.5868   2
   8  -5  -8-2.42098 40.7978   1
   8  -5  -7 782.833 93.9570   4
   8  -5  -7 772.976 92.1883   2
   8  -5  -7 806.734 101.454   1
   8  -5  -6 464.766 73.8026   2
   8  -5  -6 528.678 75.4532   4
   8  -5  -6 646.235 89.2275   1
   8  -5  -5-12.3313 34.8602   2
   8  -5  -5-78.5239 32.9876   1
   8  -5  -5-3.21286 31.2390   3
   8  -5  -5-8.44237 25.3419   4
   8  -5  -4 259.850 54.8488   2
   8  -5  -4 257.259 55.4269   1
   8  -5  -4 251.764 57.9435   3
   8  -5  -4 203.283 44.1782   4
   8  -5  -3 1045.66 102.167   3
   8  -5  -3 1019.00 96.6988   1
   8  -5  -3 1026.52 100.324   2
   8  -5  -2 3034.65 164.230   3
   8  -5  -2 2674.42 147.416   1
   8  -5  -2 2839.23 162.881   2
   8  -5  -1 5614.13 227.878   3
   8  -5  -1 5543.36 224.292   2
   8  -5   0 1713.91 129.701   3
   8  -5   0 1780.07 130.330   2
   8  -5   1 971.297 98.4827   3
   8  -5   1 1110.28 106.702   2
   8  -5   2 216.592 54.3446   3
   8  -5   2 159.186 49.3147   2
   8  -5   3 1075.85 107.678   3
   8  -5   4 1664.39 139.628   3
   8  -5   5 550.176 84.4723   3
   8  -5   6 660.636 98.9288   3
   8  -5   7 4.73007 43.7929   3
   8  -5   8 108.654 56.2881   3
   8  -5   9 77.7233 48.3788   3
   8  -5  10 159.741 64.9434   3
   8  -5  11 99.9979 56.9554   3
  -8   5 -11 203.679 67.4351   5
   8  -5  12 253.249 70.3984   3
  -8   5 -12 280.320 72.9538   5
  -8   5 -13 76.3781 67.6400   2
  -8   5 -13 334.092 86.3684   5
  -8   5 -14 70.2875 59.4899   5
  -8   5 -15 180.951 73.5197   5
  -8   5 -16 312.736 91.4063   5
  -8   5 -17 139.659 79.8824   5
  -8   5 -18 193.782 84.2678   5
   8  -4 -13 263.628 81.2578   1
   8  -4 -12 1058.94 141.721   1
   8  -4 -11 666.037 111.940   1
   8  -4 -10 245.428 60.3495   2
   8  -4 -10 312.661 78.7333   1
   8  -4  -9 1.97915 27.3810   2
   8  -4  -9-22.8318 42.3443   1
   8  -4  -8-9.15127 34.2073   2
   8  -4  -8 20.4078 45.3430   1
   8  -4  -7 32.2455 38.5237   2
   8  -4  -7 32.8663 39.4549   1
   8  -4  -6 98.0393 45.4365   2
   8  -4  -6 163.720 54.5229   1
   8  -4  -5 35.6497 34.0849   2
   8  -4  -5 45.6182 43.7080   1
   8  -4  -5 25.0249 27.9260   4
   8  -4  -4 538.042 71.5454   3
   8  -4  -4 507.566 64.9182   4
   8  -4  -4 511.419 73.6719   1
   8  -4  -4 569.197 78.5284   2
   8  -4  -3 914.082 88.8272   3
   8  -4  -3 1087.11 100.286   1
   8  -4  -3 917.154 95.2347   2
   8  -4  -2 2264.80 135.545   3
   8  -4  -2 2072.88 130.406   1
   8  -4  -2 2230.32 141.623   2
   8  -4  -1 3064.55 161.704   3
   8  -4  -1 2921.71 164.086   2
   8  -4   0 3750.51 184.089   3
   8  -4   0 3755.81 185.303   2
   8  -4   1 3651.14 181.593   3
   8  -4   1 3557.14 179.597   2
   8  -4   2-28.8457 37.1982   3
   8  -4   2-13.4783 36.7973   2
   8  -4   3 35.0443 38.9207   3
   8  -4   3 30.2315 40.7877   2
   8  -4   4 1460.42 125.042   3
   8  -4   5 133.868 50.6330   3
   8  -4   6-93.0711 51.8655   3
   8  -4   7 27.4427 45.2595   3
   8  -4   8 685.154 97.8111   3
   8  -4   9 359.283 77.2070   3
   8  -4  10 31.0666 44.4920   3
   8  -4  11 133.373 52.3883   3
   8  -4  12 326.996 80.9663   3
  -8   4 -12 320.058 78.8304   5
  -8   4 -13 171.184 70.4028   2
  -8   4 -13 150.192 64.2908   5
  -8   4 -14 96.9183 63.7177   2
  -8   4 -14 151.521 68.3670   5
  -8   4 -15 194.501 72.1499   5
  -8   4 -16 217.426 81.1297   5
  -8   4 -17 236.680 89.8791   5
  -8   4 -18 0.53181 42.2504   5
  -8   4 -19 65.9854 61.9766   5
   8  -3 -13 755.615 122.479   1
   8  -3 -12 335.132 88.2493   1
   8  -3 -11 584.911 89.5277   2
   8  -3 -11 634.060 107.353   1
   8  -3 -10 62.6931 37.3983   2
   8  -3 -10 58.5798 49.2929   1
   8  -3  -9 76.7106 45.3874   2
   8  -3  -9 25.5591 41.0012   1
   8  -3  -8 47.8031 41.2091   2
   8  -3  -8 104.984 48.6806   1
   8  -3  -7 61.4808 43.2228   2
   8  -3  -7 31.9624 43.3833   1
   8  -3  -6 234.922 60.9497   2
   8  -3  -6 181.045 54.0775   1
   8  -3  -5 74.9593 41.6133   1
   8  -3  -5 109.120 45.4644   2
   8  -3  -4 139.574 46.3217   1
   8  -3  -4 100.948 38.9478   2
   8  -3  -3 1375.16 107.850   3
   8  -3  -3 1345.66 112.937   1
   8  -3  -3 1327.81 115.237   2
   8  -3  -2 1241.02 99.9357   3
   8  -3  -2 1240.89 105.642   1
   8  -3  -2 1148.30 106.430   2
   8  -3  -1 1694.39 118.235   3
   8  -3  -1 1479.56 114.310   2
   8  -3   0 2053.35 134.229   3
   8  -3   0 2014.00 135.117   2
   8  -3   1 939.319 93.5879   3
   8  -3   1 1117.06 103.455   2
   8  -3   2 3.15234 32.1598   3
   8  -3   2 119.226 43.8071   2
   8  -3   3 1664.52 123.150   3
   8  -3   3 1852.65 135.469   2
   8  -3   4 229.270 53.6986   3
   8  -3   4 150.190 51.1537   2
   8  -3   5 142.286 49.9215   3
   8  -3   6 18.0846 37.6428   3
   8  -3   7 1316.57 123.463   3
   8  -3   8 595.909 90.8773   3
   8  -3   9 581.637 93.0798   3
   8  -3  10 247.058 69.7163   3
   8  -3  11 200.148 66.2684   3
   8  -3  12 140.835 58.4837   3
   8  -3  13 800.679 112.257   3
  -8   3 -13 819.071 113.605   5
  -8   3 -14 191.087 72.9115   5
  -8   3 -14 61.4343 56.8221   2
  -8   3 -15 312.701 85.8709   5
  -8   3 -16 305.782 92.7149   5
  -8   3 -17 129.740 74.5755   5
  -8   3 -18 38.5027 66.9427   5
  -8   3 -19 56.6351 59.0621   5
   8  -2 -13 589.595 107.079   1
   8  -2 -12 120.732 61.2487   1
   8  -2 -11 4.71457 40.2160   1
   8  -2 -11 55.8598 46.9349   2
   8  -2 -10-52.5697 60.7796   1
   8  -2 -10 32.9535 35.2551   2
   8  -2  -9-15.5954 42.5685   1
   8  -2  -9-7.80061 36.7865   2
   8  -2  -8 5.11747 38.7894   1
   8  -2  -8-34.1753 40.5612   2
   8  -2  -7 16.2555 40.5650   1
   8  -2  -7 48.7330 40.8455   2
   8  -2  -6 109.522 45.9877   1
   8  -2  -6 156.185 54.2633   2
   8  -2  -5 147.424 50.1996   1
   8  -2  -5 239.592 59.4699   2
   8  -2  -4 1076.83 109.358   1
   8  -2  -4 1225.92 113.484   2
   8  -2  -3 923.052 78.9824   3
   8  -2  -3 1006.30 99.9421   1
   8  -2  -3 1028.64 98.1985   2
   8  -2  -2 1397.64 106.357   3
   8  -2  -2 1581.80 121.052   1
   8  -2  -2 1517.17 120.852   2
   8  -2  -1 85.7640 36.3996   2
   8  -2  -1 32.1452 29.6387   3
   8  -2   0 1486.85 110.445   3
   8  -2   0 1391.15 112.829   2
   8  -2   1-11.6101 32.6703   3
   8  -2   1 74.0499 38.6841   2
   8  -2   2 205.478 49.2293   3
   8  -2   2 93.4576 42.9404   2
   8  -2   3 156.398 48.4237   3
   8  -2   3 315.307 61.5332   2
   8  -2   4 347.624 70.8883   3
   8  -2   4 413.497 69.8908   2
  -8   2  -5 914.573 84.0147   1
   8  -2   5 900.185 99.3915   3
   8  -2   5 1028.15 100.571   2
  -8   2  -6 121.434 36.9758   1
   8  -2   6 200.864 63.2862   3
   8  -2   7 147.221 52.5105   3
   8  -2   8 1042.77 113.338   3
   8  -2   9 348.725 70.9720   3
   8  -2  10 947.341 109.155   3
   8  -2  11 405.429 81.5164   3
   8  -2  12 182.793 68.7903   3
   8  -2  13 233.010 65.5578   3
  -8   2 -13 209.712 64.2861   5
   8  -2  14 79.0453 49.0961   3
  -8   2 -14 275.415 82.0447   5
  -8   2 -15 143.483 62.2621   5
  -8   2 -16 369.005 93.4930   5
  -8   2 -17-23.7608 52.7995   5
  -8   2 -18 189.053 73.0462   5
  -8   2 -19-20.5897 47.3441   5
  -8   2 -20 147.260 78.9564   5
   8  -1 -12 57.8339 51.2613   1
   8  -1 -12 85.0384 51.1325   2
   8  -1 -11 16.6211 41.7836   1
   8  -1 -11 50.3421 36.0790   2
   8  -1 -10-27.4674 42.1225   1
   8  -1 -10 75.4862 49.1624   2
   8  -1  -9 54.3781 42.4747   1
   8  -1  -9 52.4361 41.7226   2
   8  -1  -8 268.581 68.6995   1
   8  -1  -8 359.669 71.6793   2
   8  -1  -7 254.329 68.0255   1
   8  -1  -7 297.071 70.1395   2
   8  -1  -6 37.6283 41.8829   1
   8  -1  -6-17.5295 35.2440   2
   8  -1  -5 384.996 70.5641   1
   8  -1  -5 469.630 78.1685   2
   8  -1  -4 598.219 80.4422   1
   8  -1  -4 617.607 85.3106   2
   8  -1  -3 3390.51 180.491   1
   8  -1  -3 3391.22 180.127   2
   8  -1  -2 723.565 70.0247   3
   8  -1  -2 770.368 86.7860   1
   8  -1  -2 755.750 85.9153   2
   8  -1  -1 1685.78 109.094   3
   8  -1  -1 1504.34 119.217   2
   8  -1   0 686.599 71.9342   3
   8  -1   0 764.705 86.0183   2
   8  -1   1 72.3102 38.4330   2
   8  -1   1 138.401 39.3242   3
   8  -1   2 254.478 56.6521   3
   8  -1   2 141.864 44.3767   2
   8  -1   3 12.9145 34.0945   3
   8  -1   3-1.54265 28.9216   2
   8  -1   4 55.1753 35.2345   3
   8  -1   4 25.2944 33.3582   2
  -8   1  -5 36.9852 29.2242   1
   8  -1   5 1.88021 40.9408   3
   8  -1   5 7.31119 29.8602   2
  -8   1  -6 25.7287 29.1226   1
   8  -1   6-44.0678 36.4510   3
   8  -1   6 9.70906 36.5834   2
   8  -1   7-7.16232 34.4584   3
  -8   1  -7 33.3823 28.1093   1
  -8   1  -8-12.2954 25.2346   1
   8  -1   8-59.8830 39.1681   3
   8  -1   9 1206.82 124.405   3
   8  -1  10 2256.32 164.470   3
   8  -1  11 264.845 68.3510   3
   8  -1  12 230.450 72.1020   3
   8  -1  13 191.307 62.7859   3
   8  -1  14 316.779 81.0570   3
  -8   1 -14 268.066 72.4934   5
  -8   1 -15 370.541 90.1884   5
  -8   1 -16 18.9776 48.7499   5
  -8   1 -17 41.4267 54.9616   5
  -8   1 -18 111.815 64.5069   5
  -8   1 -19 20.9951 56.3776   5
  -8   1 -20 235.868 91.4404   5
   8   0 -12 6.84852 43.6258   1
   8   0 -12 8.93329 38.7622   2
   8   0 -11 22.0491 33.9920   1
   8   0 -11 60.9114 41.8778   2
   8   0 -10 39.4038 53.8715   1
   8   0 -10 119.484 58.0266   2
   8   0  -9-41.7644 44.7234   1
   8   0  -9 143.292 52.7928   2
   8   0  -8 407.405 80.2995   1
   8   0  -8 445.653 76.3262   2
   8   0  -7 731.252 98.6615   1
   8   0  -7 787.244 103.089   2
   8   0  -6 28.4742 40.2703   1
   8   0  -6 45.0417 45.3511   2
   8   0  -5 67.6636 42.7754   1
   8   0  -5 120.611 47.7234   2
   8   0  -4 783.761 93.6506   1
   8   0  -4 784.449 94.2694   2
   8   0  -3 1160.09 112.302   1
   8   0  -3 1116.25 110.065   2
   8   0  -2 2236.68 147.523   2
   8   0  -1 909.848 80.6998   3
   8   0  -1 840.792 92.3540   2
   8   0   0 1.00262 29.5604   2
   8   0   0 43.2659 33.5574   3
   8   0   1 62.5511 32.3103   2
   8   0   1 12.7287 31.8620   3
   8   0   2-44.1238 37.9660   2
   8   0   2 0.29144 32.7752   3
   8   0   3 228.490 54.8607   3
   8   0   3 360.867 61.1596   2
   8   0   4 98.7478 45.1010   3
   8   0   4 38.1202 36.6494   2
  -8   0  -5 264.562 52.3004   1
   8   0   5 243.181 57.0303   3
   8   0   5 284.924 57.7651   2
  -8   0  -6 2539.50 146.129   1
   8   0   6 2411.30 153.376   3
   8   0   6 2548.78 151.676   2
   8   0   7 1191.12 114.356   3
  -8   0  -7 1156.73 99.3303   1
   8   0   7 1133.61 102.957   2
   8   0   8 1424.45 123.694   3
  -8   0  -8 1472.63 111.603   1
  -8   0  -9 2014.20 133.376   1
   8   0   9 2064.07 152.322   3
  -8   0 -10 1653.33 122.102   1
   8   0  10 1456.76 135.001   3
   8   0  11 216.632 65.0324   3
   8   0  12 163.385 58.7971   3
   8   0  13 250.065 69.2999   3
   8   0  14 102.812 51.4073   3
  -8   0 -14 72.7337 56.3820   5
   8   0  15 364.899 82.6299   3
  -8   0 -15 367.865 88.7668   5
  -8   0 -16 5.84177 47.5155   5
  -8   0 -17 58.0725 60.8280   5
  -8   0 -18 330.879 95.8618   5
  -8   0 -19 203.631 77.6328   5
  -8   0 -20 252.559 91.8119   5
  -8   0 -21 7.34573 59.7205   5
   8   1 -12-53.7078 54.2870   1
  -8  -1  12-62.2263 52.2714   4
   8   1 -12-50.9303 53.5088   2
   8   1 -11 30.8859 40.7363   1
  -8  -1  11 119.971 55.6804   4
   8   1 -11 24.7462 39.3039   2
   8   1 -10 233.127 73.4598   1
  -8  -1  10 211.238 67.7901   4
   8   1 -10 216.476 69.2880   2
   8   1  -9 240.074 66.8030   1
   8   1  -9 206.270 68.2288   2
   8   1  -8 1040.53 125.122   1
   8   1  -8 967.747 119.783   2
   8   1  -7 480.537 84.9420   1
   8   1  -7 476.938 83.9934   2
   8   1  -6-10.7558 35.8232   1
   8   1  -6 10.4343 38.2450   2
   8   1  -5 51.5402 47.0384   1
   8   1  -5-10.5169 42.6966   2
   8   1  -4 287.030 63.3545   2
   8   1  -4 252.688 61.1905   1
   8   1  -3 1497.32 129.117   1
   8   1  -3 1650.65 129.519   2
   8   1  -2 1784.26 133.332   2
   8   1  -1 1313.66 93.6525   3
   8   1  -1 1255.51 111.099   2
   8   1   0 4.49141 32.5128   2
   8   1   0 16.3141 25.4095   3
   8   1   1 107.813 43.6229   2
   8   1   1 94.5971 29.0194   3
   8   1   2 385.394 64.8655   2
   8   1   2 410.578 64.6825   3
   8   1   3 224.527 49.9208   2
   8   1   3 207.648 51.7582   3
   8   1   4 17.7172 32.0504   3
   8   1   4 66.3774 36.9531   2
   8   1   5 1232.36 108.970   3
   8   1   5 1350.47 107.228   2
  -8  -1  -6 1345.69 111.097   1
   8   1   6 1276.03 112.275   3
   8   1   6 1264.79 106.130   2
   8   1   7 2057.43 145.004   3
  -8  -1  -7 2172.09 137.668   1
   8   1   7 2424.99 146.733   2
  -8  -1  -8 185.708 45.0239   1
   8   1   8 258.910 57.4821   3
  -8  -1  -9 4338.14 195.970   1
   8   1   9 4626.20 225.105   3
  -8  -1 -10 1974.09 137.930   1
   8   1  10 1865.21 149.605   3
  -8  -1 -11 498.141 76.9536   1
   8   1  11 366.269 72.7679   3
   8   1  12 19.3533 48.6872   3
   8   1  13-5.33454 43.0220   3
   8   1  14 106.776 60.9387   3
   8   1  15 58.4526 63.4492   3
  -8  -1 -15 7.12021 44.9043   5
   8   1  16-9.86446 43.3433   3
  -8  -1 -16 63.5738 61.5611   5
  -8  -1 -17 116.981 69.3804   5
  -8  -1 -18 306.699 91.3331   5
  -8  -1 -19 97.6456 67.9197   5
  -8  -1 -20 274.339 94.6403   5
  -8  -1 -21 321.938 98.2948   5
   8   2 -11 174.839 66.2947   1
  -8  -2  11 226.526 72.0720   4
   8   2 -11 61.3112 49.5570   2
   8   2 -10 373.872 83.0769   1
  -8  -2  10 431.121 90.3948   4
   8   2 -10 466.588 91.8093   2
   8   2  -9 663.947 103.025   1
  -8  -2   9 541.400 91.5067   4
   8   2  -9 431.235 88.5928   2
   8   2  -8 806.168 112.844   2
  -8  -2   8 657.305 95.8975   4
   8   2  -8 874.985 113.019   1
   8   2  -7 1046.19 121.759   2
  -8  -2   7 909.161 105.319   4
   8   2  -7 777.486 102.880   1
  -8  -2   6 1230.48 112.205   4
   8   2  -6 1129.34 124.481   1
   8   2  -6 1381.57 133.503   2
   8   2  -5 75.6677 47.1242   2
   8   2  -5 104.208 50.7580   1
   8   2  -4 1331.68 126.885   1
   8   2  -4 1215.59 122.583   2
   8   2  -3 698.999 91.4413   2
   8   2  -2 1918.61 143.959   2
   8   2  -1 205.697 53.7737   2
   8   2   0 3.59065 32.6159   2
   8   2   0 28.2484 29.2890   3
   8   2   1 473.870 69.5884   2
   8   2   1 389.598 55.8768   3
   8   2   2 1113.76 94.5659   3
   8   2   2 1035.09 94.0084   2
   8   2   3 73.1462 35.1694   2
   8   2   3 27.2251 35.0997   3
   8   2   4 64.2047 36.4796   2
   8   2   4 97.8076 38.5091   3
   8   2   5 97.0612 46.6988   3
   8   2   5 131.448 42.4571   2
  -8  -2  -6 1583.73 123.463   1
   8   2   6 1530.88 122.688   3
   8   2   6 1491.77 113.398   2
   8   2   7 3368.49 187.697   3
   8   2   7 3405.45 168.317   2
  -8  -2  -7 3575.67 180.638   1
   8   2   8 2761.85 173.875   3
  -8  -2  -8 2671.96 155.558   1
   8   2   8 2801.92 156.475   2
   8   2   9 1224.90 121.450   3
  -8  -2  -9 1227.72 109.991   1
  -8  -2 -10 1043.57 105.792   1
   8   2  10 1072.46 116.475   3
   8   2  11 208.362 64.7385   3
  -8  -2 -11 134.858 49.2696   1
  -8  -2 -12-27.6303 40.5220   1
   8   2  12-67.3240 57.5992   3
  -8  -2 -13-16.3643 36.3628   1
   8   2  13-28.6149 44.4690   3
   8   2  14 136.297 65.0284   3
   8   2  15 145.300 61.9002   3
  -8  -2 -15 13.1971 51.2107   5
   8   2  16 95.6296 48.1055   3
  -8  -2 -16-103.791 53.9454   5
  -8  -2 -17 81.3117 65.0113   5
  -8  -2 -18 546.603 108.928   5
  -8  -2 -19 380.812 98.2060   5
  -8  -2 -20 97.9346 69.0274   5
  -8  -2 -21 83.9261 64.6412   5
  -8  -2 -22 201.541 94.1303   5
   8   3 -11 96.6383 58.1542   1
  -8  -3  11 133.328 63.6104   4
   8   3 -11-12.0537 48.9255   2
   8   3 -10 31.4373 45.8388   1
  -8  -3  10 137.050 64.3169   4
   8   3 -10 75.3906 55.1558   2
  -8  -3   9 830.321 112.480   4
   8   3  -9 642.629 111.442   2
   8   3  -9 746.212 114.048   1
   8   3  -8 421.419 86.6635   1
  -8  -3   8 314.066 76.0561   4
   8   3  -8 309.590 70.6728   2
   8   3  -7 865.808 115.260   2
  -8  -3   7 693.439 94.2211   4
   8   3  -7 810.021 110.877   1
   8   3  -6 1322.20 136.578   2
   8   3  -6 1371.01 135.658   1
   8   3  -5 1011.64 117.188   2
   8   3  -5 791.009 104.038   1
   8   3  -4 952.146 109.026   1
   8   3  -4 1017.49 116.108   2
   8   3  -3 2029.91 151.413   2
   8   3  -2 466.489 77.1979   2
   8   3  -1 1085.97 108.312   2
   8   3   0 275.854 60.7613   2
   8   3   1 1128.44 91.0024   3
   8   3   1 986.490 95.7046   2
   8   3   2 2053.57 126.185   3
   8   3   2 2025.12 133.418   2
   8   3   3 20.3355 29.4086   2
   8   3   3 26.2020 39.1274   3
   8   3   4 126.954 37.5257   2
   8   3   4 183.128 48.6363   3
   8   3   5 880.902 96.2460   3
   8   3   5 682.299 79.6331   2
  -8  -3  -6 1078.97 104.742   1
   8   3   6 1117.78 104.723   3
   8   3   6 1248.10 102.702   2
   8   3   7 3776.87 192.832   3
   8   3   7 3736.70 173.855   2
  -8  -3  -7 3611.02 184.705   1
   8   3   8 1701.16 136.552   3
  -8  -3  -8 1718.35 128.133   1
   8   3   8 1827.13 124.126   2
  -8  -3  -9 8.32473 30.4828   1
   8   3   9 40.3480 42.8848   3
   8   3   9 47.1526 30.5137   2
  -8  -3 -10 545.179 83.9287   1
   8   3  10 514.780 82.8876   3
   8   3  11 107.839 54.2434   3
  -8  -3 -11 23.0102 32.1874   1
  -8  -3 -12 124.379 53.8310   1
   8   3  12 97.1932 60.6375   3
  -8  -3 -13 204.959 55.6514   1
   8   3  13 180.759 59.3544   3
  -8  -3 -14 18.9877 30.9688   1
   8   3  14 93.1961 61.3662   3
   8   3  15 65.3302 62.7385   3
  -8  -3 -15 51.6635 46.8190   5
   8   3  16-61.1537 51.7616   3
  -8  -3 -16 107.122 62.5088   5
   8   3  17 317.136 81.0587   3
  -8  -3 -17 169.613 73.4809   5
  -8  -3 -18 666.503 119.502   5
  -8  -3 -19 347.144 94.8949   5
  -8  -3 -20 136.830 72.0572   5
  -8  -3 -21 182.932 83.4192   5
  -8  -3 -22-5.29389 60.9339   5
  -8  -4  10 572.941 108.195   4
   8   4 -10 725.506 116.616   2
   8   4 -10 673.550 110.890   1
  -8  -4   9 868.344 119.215   4
   8   4  -9 725.693 114.315   2
   8   4  -9 973.860 126.060   1
  -8  -4   8 327.350 76.8988   4
   8   4  -8 147.837 59.3094   2
   8   4  -8 199.239 61.7158   1
   8   4  -7 9.17193 48.8930   2
   8   4  -7 42.4453 43.7151   1
   8   4  -6 623.272 98.8758   2
   8   4  -6 739.813 102.628   1
   8   4  -5 232.881 55.9178   2
   8   4  -4 428.839 74.5218   2
   8   4  -3 1425.47 132.435   2
   8   4  -2 86.4341 45.6953   2
   8   4  -1 372.084 67.8530   2
   8   4   0 331.355 62.9090   2
   8   4   1 1572.89 104.550   3
   8   4   1 1618.99 125.134   2
   8   4   2 3260.15 155.823   3
   8   4   2 3127.40 166.981   2
   8   4   3 1582.13 113.758   3
   8   4   3 1730.38 122.058   2
   8   4   4 1041.81 96.2485   3
   8   4   4 955.223 89.8126   2
   8   4   5 599.226 79.7742   3
   8   4   5 516.514 70.7141   2
  -8  -4  -6 1104.10 106.969   1
   8   4   6 965.623 103.817   3
   8   4   6 867.929 87.2902   2
   8   4   7 1262.91 119.335   3
   8   4   7 1332.17 105.758   2
  -8  -4  -7 1285.17 116.407   1
   8   4   8 2911.25 179.027   3
  -8  -4  -8 2773.02 164.927   1
   8   4   8 3093.21 156.957   2
  -8  -4  -9 261.206 60.7540   1
   8   4   9 325.859 71.2700   3
   8   4   9 469.784 71.6103   2
  -8  -4 -10 133.178 52.8534   1
   8   4  10 146.491 60.9253   3
   8   4  11 84.0699 53.0135   3
  -8  -4 -11 140.812 50.1215   1
   8   4  12 240.369 69.9823   3
  -8  -4 -12 159.524 53.4296   1
  -8  -4 -13 195.880 61.2327   1
   8   4  13 285.006 76.2011   3
  -8  -4 -14 11.5738 36.7430   1
   8   4  14 44.6885 56.9103   3
   8   4  15 26.8269 62.5421   3
  -8  -4 -15 9.59036 30.6514   1
   8   4  16 252.514 80.4730   3
  -8  -4 -16 176.256 62.9666   1
  -8  -4 -16 155.749 68.7614   5
   8   4  17 200.998 69.2284   3
  -8  -4 -17 55.0265 49.4905   5
  -8  -4 -18 411.496 95.5132   5
  -8  -4 -19 456.227 99.7160   5
  -8  -4 -20 317.459 94.1133   5
  -8  -4 -21-2.81495 53.2241   5
  -8  -4 -22 136.798 74.4660   5
  -8  -4 -23 98.7143 55.2084   5
  -8  -5  10 270.427 78.9969   4
   8   5  -9 809.403 122.895   2
   8   5  -9 1010.65 132.044   1
   8   5  -8 314.353 81.4324   2
   8   5  -8 176.521 59.7487   1
   8   5  -7-23.8227 47.9998   2
   8   5  -7 55.8018 45.7882   1
   8   5  -6 245.593 70.4238   2
   8   5  -5 518.794 90.2332   2
   8   5  -4 432.582 80.4202   2
   8   5  -3 139.329 47.8298   2
   8   5  -2 377.151 68.5012   2
   8   5  -1 25.4241 33.6201   2
   8   5   0 11.6551 33.6911   2
   8   5   1 1819.37 134.826   2
   8   5   2 1631.34 112.047   3
   8   5   2 1609.72 123.549   2
   8   5   3 2208.23 138.050   3
   8   5   3 2018.12 137.258   2
   8   5   4 1009.53 96.0708   3
   8   5   4 962.505 93.7249   2
   8   5   5 1425.80 116.939   3
   8   5   5 1328.67 105.733   2
  -8  -5  -6 911.842 98.1258   1
   8   5   6 916.689 97.3382   3
   8   5   6 895.898 88.2767   2
  -8  -5  -7 1519.63 130.028   1
   8   5   7 1545.54 129.385   3
   8   5   7 1517.60 111.679   2
   8   5   8 523.307 84.5527   3
  -8  -5  -8 550.712 82.7282   1
   8   5   8 569.356 70.8779   2
   8   5   9 766.834 98.4696   3
  -8  -5  -9 749.031 95.2024   1
   8   5   9 574.338 69.8383   2
  -8  -5 -10 65.5724 42.0309   1
   8   5  10-64.2418 41.1652   3
   8   5  11 64.6030 53.4489   3
  -8  -5 -11-3.47329 36.9292   1
   8   5  12 34.8071 47.5273   3
  -8  -5 -12 40.6175 33.2022   1
  -8  -5 -13 177.112 57.3230   1
   8   5  13 292.388 79.7064   3
  -8  -5 -14 45.9581 40.2090   1
   8   5  14 122.180 60.8397   3
  -8  -5 -15-7.94425 44.9181   1
   8   5  15 27.1208 45.1855   3
   8   5  16 413.162 95.2279   3
  -8  -5 -16 454.041 90.2012   5
  -8  -5 -16 451.237 89.4024   1
   8   5  17 428.057 94.6293   3
  -8  -5 -17 314.768 80.7225   1
  -8  -5 -17 274.268 72.2517   5
   8   5  18 60.8229 60.9976   3
  -8  -5 -18 174.281 68.6119   5
  -8  -5 -19 360.360 91.5508   5
  -8  -5 -20 337.878 93.3068   5
  -8  -5 -21 61.9251 56.9735   5
  -8  -5 -22 41.5317 57.5504   5
  -8  -5 -23-36.4035 55.8930   5
   8   6  -8 368.404 92.2638   2
   8   6  -7 156.400 76.5741   2
   8   6  -6 25.1919 56.5634   2
   8   6  -5-8.38008 59.7402   2
   8   6  -4 16.9676 44.9089   2
   8   6  -3-26.8319 51.9869   2
   8   6  -2-54.3566 52.1619   2
   8   6  -1 103.636 52.1157   2
   8   6   0 1683.96 138.210   2
   8   6   1 1119.03 109.671   2
   8   6   2 2059.22 142.806   2
   8   6   3 966.396 92.0953   3
   8   6   3 905.372 96.1697   2
   8   6   4 31.0811 38.1091   2
   8   6   4 98.2672 45.6526   3
   8   6   5 424.062 71.8213   3
   8   6   5 524.104 72.7165   2
  -8  -6  -6 1039.64 108.932   1
   8   6   6 1276.91 117.364   3
   8   6   6 1133.01 96.9553   2
   8   6   7 237.181 50.0651   2
   8   6   7 189.025 58.9808   3
  -8  -6  -7 187.841 56.1315   1
   8   6   8 1008.87 89.3951   2
   8   6   8 974.582 107.309   3
  -8  -6  -8 821.381 100.349   1
   8   6   9 1060.84 117.634   3
  -8  -6  -9 1126.12 115.323   1
  -8  -6 -10 18.5791 38.7816   1
   8   6  10 75.6279 47.4746   3
   8   6  11 503.771 85.1295   3
  -8  -6 -11 465.113 78.7238   1
  -8  -6 -12 894.789 107.593   1
   8   6  12 754.165 109.101   3
  -8  -6 -13 510.525 88.1473   1
   8   6  13 653.749 105.652   3
  -8  -6 -14 56.2397 43.4021   1
   8   6  14 196.942 78.0532   3
  -8  -6 -15 9.10217 39.9326   1
   8   6  15 136.863 69.4931   3
   8   6  16 539.353 98.3184   3
  -8  -6 -16 464.023 88.2815   5
  -8  -6 -16 496.497 96.4972   1
   8   6  17 162.592 68.0621   3
  -8  -6 -17 70.0862 55.2578   5
  -8  -6 -17 233.633 75.8343   1
   8   6  18 217.563 76.8398   3
  -8  -6 -18 148.495 69.5893   1
  -8  -6 -18 141.241 68.8524   5
  -8  -6 -19 330.911 86.9751   5
  -8  -6 -20 77.9849 55.8189   5
  -8  -6 -21 127.594 77.7128   5
  -8  -6 -22 15.7950 53.8775   5
  -8  -6 -23 57.3751 65.1687   5
   8   7  -7-92.4604 65.5248   2
   8   7  -6 5.71282 46.3546   2
   8   7  -5 20.8087 48.0275   2
   8   7  -4 28.6429 47.0693   2
   8   7  -3 118.915 58.5228   2
   8   7  -2-49.4564 49.8792   2
   8   7  -1 394.595 75.6818   2
   8   7   0 1317.61 126.668   2
   8   7   1 1394.62 125.771   2
   8   7   2 641.385 87.2946   2
   8   7   3 1587.54 115.476   3
   8   7   3 1731.15 130.628   2
   8   7   4 357.266 66.5014   2
   8   7   4 243.098 55.8977   3
   8   7   5 26.4547 37.6605   2
   8   7   5 64.0515 52.8264   3
   8   7   6 279.027 55.7240   2
   8   7   6 288.787 60.1783   3
  -8  -7  -6 267.201 56.8917   1
  -8  -7  -7 686.111 96.2109   1
   8   7   7 768.021 95.1903   3
   8   7   7 644.652 76.5509   2
  -8  -7  -8 333.055 65.7407   1
   8   7   8 292.372 65.0371   3
  -8  -7  -9 15.0825 35.7962   1
   8   7   9 89.5116 50.9364   3
  -8  -7 -10 1818.59 146.527   1
   8   7  10 1654.81 144.096   3
  -8  -7 -11 1867.93 152.383   1
   8   7  11 2176.02 168.602   3
  -8  -7 -12 1374.48 135.660   1
   8   7  12 1270.84 133.546   3
  -8  -7 -13 1352.26 138.897   1
   8   7  13 1582.66 150.630   3
  -8  -7 -14 74.0230 56.5688   1
   8   7  14 21.5132 57.6795   3
  -8  -7 -15 280.709 78.8633   1
   8   7  15 447.486 94.5962   3
   8   7  16 262.145 76.1839   3
  -8  -7 -16 295.631 69.3575   5
  -8  -7 -16 365.526 79.6323   1
   8   7  17 426.986 95.1466   3
  -8  -7 -17 473.120 89.4504   5
  -8  -7 -17 294.296 79.9936   1
   8   7  18 204.152 79.1121   3
  -8  -7 -18 161.098 68.6440   1
  -8  -7 -18 279.971 84.8977   5
  -8  -7 -19 179.051 69.0425   5
  -8  -7 -20 96.2499 61.7081   5
  -8  -7 -21-147.629 70.5898   5
  -8  -7 -22 76.4903 57.5527   5
  -8  -7 -23 252.072 78.7658   5
   8   8  -6-146.470 70.8472   2
   8   8  -5 2.33210 60.3410   2
   8   8  -4 221.618 68.8228   2
   8   8  -3 687.868 106.153   2
   8   8  -2 1.91967 44.4030   2
   8   8  -1 718.772 99.9647   2
   8   8   0 1157.00 122.746   2
   8   8   1 1026.12 110.042   2
   8   8   2 402.340 74.3563   2
   8   8   3-20.2957 36.1721   2
   8   8   4 428.542 68.1564   3
   8   8   4 525.401 77.4954   2
  -8  -8  -5 774.760 97.7812   1
   8   8   5 892.590 100.081   3
   8   8   5 816.874 87.1441   2
   8   8   6 135.662 47.5406   2
  -8  -8  -6 133.802 57.0220   1
   8   8   6 30.2273 35.6342   3
   8   8   7 116.138 41.0495   2
   8   8   7 16.8396 38.4572   3
  -8  -8  -7 10.2572 37.6064   1
  -8  -8  -8 307.841 65.6689   1
   8   8   8 537.230 85.6017   3
  -8  -8  -9 180.859 51.1368   1
   8   8   9 257.676 70.3984   3
  -8  -8 -10 1898.21 150.393   1
   8   8  10 1884.23 156.105   3
  -8  -8 -11 1323.05 132.964   1
   8   8  11 1334.02 131.749   3
  -8  -8 -12 1365.57 137.096   1
   8   8  12 1542.09 150.711   3
  -8  -8 -13 524.914 95.0826   1
   8   8  13 608.883 100.218   3
  -8  -8 -14 247.045 79.8389   1
   8   8  14 229.505 77.5186   3
  -8  -8 -15 555.244 101.347   1
   8   8  15 402.866 98.2181   3
  -8  -8 -16 56.8108 42.2139   1
   8   8  16 130.528 66.4041   3
  -8  -8 -16 106.132 48.7806   5
   8   8  17 92.6965 58.6124   3
  -8  -8 -17 114.463 66.3001   5
  -8  -8 -17 66.4264 50.1789   1
  -8  -8 -18 154.375 63.9705   5
  -8  -8 -19-36.3466 46.1851   5
  -8  -8 -20-58.2100 47.9609   5
  -8  -8 -21 8.02122 40.5177   5
  -8  -8 -22 127.653 67.3964   5
  -8  -8 -23 364.626 97.0368   5
   8   9  -5 53.0825 44.8764   2
   8   9  -4 18.8846 38.3734   2
   8   9  -3 90.3276 47.2625   2
   8   9  -2 877.352 123.120   2
   8   9  -1 1248.14 131.400   2
   8   9   0 1219.85 127.770   2
   8   9   1 1565.60 136.171   2
   8   9   2 904.941 107.868   2
   8   9   3 5.52553 36.1241   2
   8   9   4 74.3225 43.5956   2
   8   9   5 24.9655 40.4974   2
   8   9   5 90.4445 47.6398   3
  -8  -9  -5 72.3181 44.6376   1
   8   9   6 125.873 46.4074   2
  -8  -9  -6 123.819 54.8916   1
   8   9   6 178.100 60.7909   3
  -8  -9  -7 53.9567 51.5964   1
   8   9   7 54.4335 46.0992   3
   8   9   8 53.1220 43.4798   3
  -8  -9  -8 99.7191 54.1866   1
  -8  -9  -9-45.2177 45.2864   1
   8   9   9 18.1040 45.4848   3
  -8  -9 -10 447.450 83.8838   1
   8   9  10 460.969 88.5669   3
  -8  -9 -11 1097.44 122.427   1
   8   9  11 1213.22 139.248   3
  -8  -9 -12 1655.49 149.130   1
   8   9  12 1794.56 159.147   3
  -8  -9 -13 876.895 117.064   1
   8   9  13 998.352 127.298   3
  -8  -9 -14 178.501 65.5643   1
   8   9  14 320.752 78.7409   3
  -8  -9 -15 85.0789 50.0219   1
   8   9  15 75.8051 53.4940   3
  -8  -9 -16 77.0333 56.8261   1
   8   9  16 67.4366 50.5806   3
  -8  -9 -16 78.8341 42.5549   5
   8   9  17 111.961 68.0234   3
  -8  -9 -17 144.790 58.8984   5
  -8  -9 -17 131.739 69.8534   1
  -8  -9 -18 94.7818 51.5570   5
  -8  -9 -19 9.02227 40.6330   5
  -8  -9 -20 72.1116 59.1477   5
   8  10  -4 166.481 64.2336   2
   8  10  -3 113.946 62.0759   2
   8  10  -2 672.488 110.470   2
   8  10  -1 333.840 82.4616   2
   8  10   0 514.447 90.4739   2
   8  10   1 675.111 99.6638   2
   8  10   2 319.130 67.3136   2
   8  10   3 21.7639 36.2272   2
   8  10   4 53.7525 39.3952   2
  -8 -10  -4 23.1985 37.3036   1
   8  10   5 2.01252 30.9394   2
   8  10   5 18.1552 39.0097   3
  -8 -10  -5-25.5751 38.0812   1
   8  10   6 228.527 60.3120   3
  -8 -10  -6 367.122 73.1899   1
  -8 -10  -7 214.037 64.0571   1
   8  10   7 249.654 72.2521   3
   8  10   8 96.8726 57.0499   3
  -8 -10  -8 275.748 66.8629   1
  -8 -10  -9 461.408 84.2704   1
   8  10   9 531.123 94.0000   3
  -8 -10 -10 276.801 70.1213   1
   8  10  10 351.521 79.1272   3
  -8 -10 -11 486.518 86.3266   1
   8  10  11 454.094 86.9767   3
  -8 -10 -12 1043.61 124.430   1
   8  10  12 1267.68 142.374   3
   8  10  13 274.695 79.3085   3
  -8 -10 -13 181.240 62.4169   1
  -8 -10 -14 280.356 80.2437   1
   8  10  14 383.418 89.4970   3
  -8 -10 -15-27.5341 43.9282   1
   8  10  15-90.8147 57.2381   3
  -8 -10 -16 9.73196 44.5819   1
   8  10  16 22.1918 48.6496   3
   8  10  17 40.1394 49.7034   3
  -8 -10 -17 37.8989 53.9274   1
   8  11  -3 148.949 64.3276   2
   8  11  -2 172.983 62.6604   2
   8  11  -1 138.655 61.3293   2
   8  11   0 633.565 102.830   2
   8  11   1 699.749 103.115   2
   8  11   2-63.8240 53.0440   2
   8  11   3 16.2970 31.9152   2
   8  11   4 30.6008 33.8945   2
  -8 -11  -4 133.303 56.7869   1
  -8 -11  -5 144.344 55.9312   1
   8  11   6 567.052 86.6024   3
  -8 -11  -6 536.621 89.5960   1
  -8 -11  -7 274.074 70.3758   1
   8  11   7 267.584 70.6209   3
   8  11   8 136.013 53.2232   3
  -8 -11  -8 247.422 65.3026   1
  -8 -11  -9 669.343 97.1807   1
   8  11   9 550.165 98.6037   3
  -8 -11 -10 1117.58 123.132   1
   8  11  10 984.985 117.400   3
  -8 -11 -11 775.598 110.011   1
   8  11  11 871.174 124.539   3
   8  11  12 357.174 90.5965   3
  -8 -11 -12 423.024 88.6695   1
  -8 -11 -13 575.081 106.135   1
   8  11  13 783.530 119.588   3
  -8 -11 -14 154.946 68.0976   1
   8  11  14 71.8007 67.1272   3
  -8 -11 -15-4.63864 48.0796   1
   8  11  15 32.5530 56.7419   3
  -8 -11 -16 12.4192 48.9383   1
   8  11  16 128.226 61.0771   3
   8  12  -2-7.91838 49.1947   2
   8  12  -1 127.492 70.8293   2
   8  12   0 378.014 87.5528   2
   8  12   1 327.035 77.5821   2
   8  12   2 46.8878 34.6785   2
  -8 -12  -3 43.8061 36.3841   1
   8  12   3-89.6180 53.3885   2
  -8 -12  -4 93.8142 43.3206   1
  -8 -12  -5 206.681 65.8553   1
  -8 -12  -6 390.455 84.0518   1
  -8 -12  -7 300.957 69.1773   1
   8  12   7 205.866 53.4916   3
   8  12   8 139.612 62.9256   3
  -8 -12  -8 77.7070 50.2426   1
  -8 -12  -9 269.224 67.4140   1
   8  12   9 217.719 69.8958   3
  -8 -12 -10 561.357 95.7202   1
   8  12  10 889.282 124.460   3
  -8 -12 -11 842.739 116.947   1
   8  12  11 910.213 126.932   3
   8  12  12 180.289 67.5275   3
  -8 -12 -12 563.229 105.020   1
  -8 -12 -13 202.688 63.0290   1
   8  12  13 143.245 57.5162   3
  -8 -12 -14 166.062 74.0882   1
   8  12  14 146.519 66.7841   3
  -8 -12 -15-11.0591 49.0659   1
   8  12  15 73.0952 62.9255   3
  -8 -12 -16 21.1566 44.9939   1
   8  12  16 39.8843 65.4987   3
   8  13   0-59.6306 55.7115   2
   8  13   1 116.678 51.6769   2
   8  13   2-66.5436 48.9878   2
  -8 -13  -5 345.245 74.3184   1
  -8 -13  -6 39.9484 34.4604   1
  -8 -13  -7 67.2529 41.6210   1
  -8 -13  -8 58.0392 35.4524   1
   8  13   8 93.4508 43.1327   3
  -8 -13  -9 104.129 49.5023   1
   8  13   9 100.659 62.1247   3
  -8 -13 -10 141.768 61.6561   1
   8  13  10 231.866 70.4003   3
   8  13  11 325.585 85.9603   3
  -8 -13 -11 534.131 98.9716   1
   8  13  12 215.788 76.5251   3
  -8 -13 -12 251.775 73.2206   1
  -8 -13 -13 142.914 65.7036   1
   8  13  13 189.651 75.1194   3
  -8 -13 -14-26.1932 46.7427   1
   8  13  14-6.96566 49.4373   3
  -8 -13 -15 203.074 78.9592   1
   8  13  15 32.3243 59.5540   3
   8  14   1 63.8769 56.0334   2
  -8 -14  -7 145.342 55.4718   1
  -8 -14  -8 159.775 54.9610   1
   8  14   8 281.684 80.0309   3
  -8 -14  -9 9.88788 31.2213   1
   8  14   9 76.2600 52.1777   3
  -8 -14 -10 355.088 84.3061   1
   8  14  10 43.5654 41.0520   3
   8  14  11 137.678 69.0982   3
  -8 -14 -11 50.3774 44.6345   1
   8  14  12 418.480 90.3906   3
  -8 -14 -12 299.268 80.0988   1
  -8 -14 -13 10.7811 46.0901   1
   8  14  13 96.4706 58.2887   3
  -8 -14 -14-0.65993 47.2039   1
   8  14  14 52.4268 51.9349   3
  -8 -15  -9 81.3819 55.4294   1
   8  15   9-12.1366 44.8282   3
   8  15  10-18.0307 57.7060   3
  -8 -15 -10 15.4193 43.3803   1
   8  15  11 165.584 73.2374   3
  -8 -15 -11 174.907 70.8319   1
   8  15  12 9.37631 49.1779   3
  -8 -15 -12 123.179 57.4392   1
  -8 -15 -13 94.9126 52.8612   1
   8  15  13 94.3933 52.5196   3
   8  16  10 132.376 67.0646   3
   8  16  11 216.300 80.7701   3
  -8 -16 -11 240.105 73.0178   1
  -8 -16 -12 29.4584 40.6414   1
   9 -15  -8 206.021 70.2604   4
   9 -14 -10 52.2218 46.3821   4
   9 -14  -9 407.509 101.389   3
   9 -14  -9 219.732 74.0042   4
   9 -14  -8 370.407 91.1564   3
   9 -14  -8 534.396 105.205   4
   9 -14  -7 206.879 84.6960   3
   9 -14  -6 155.488 66.4379   3
   9 -14  -5 39.0272 52.4270   3
   9 -14  -4 125.846 75.7860   3
   9 -14  -3 82.1301 70.0480   3
   9 -13 -11 231.454 72.7480   4
   9 -13 -10 308.120 80.5183   4
   9 -13  -9 377.396 94.2026   3
   9 -13  -9 390.862 85.0528   4
   9 -13  -8 352.226 90.3296   3
   9 -13  -8 499.968 98.0066   4
   9 -13  -7 42.4155 44.3671   3
   9 -13  -6 276.096 77.2725   3
   9 -13  -5 49.4572 53.7057   3
   9 -13  -4 17.9752 55.6507   3
   9 -13  -3 61.0399 61.4863   3
   9 -13  -2 245.276 85.1543   3
   9 -13  -1 158.697 76.4305   3
   9 -13   0 269.208 90.1732   3
   9 -13   1 185.088 75.4128   3
   9 -12 -12 66.7911 49.0792   4
   9 -12 -11 66.3253 58.4682   4
   9 -12 -10 97.1063 55.4206   4
   9 -12  -9 1032.68 131.159   4
   9 -12  -8 373.300 87.0418   3
   9 -12  -8 456.623 96.1864   4
   9 -12  -7 17.0533 39.4622   3
   9 -12  -6 76.6499 56.9836   3
   9 -12  -5 96.4723 60.5918   3
   9 -12  -4-48.0406 50.9969   3
   9 -12  -3 117.456 68.8128   3
   9 -12  -2 103.032 65.6215   3
   9 -12  -1 163.274 74.4410   3
   9 -12   0 181.202 75.8765   3
   9 -12   1 428.951 96.3639   3
   9 -12   2 136.593 70.8742   3
   9 -12   3 430.914 103.667   3
   9 -11 -13 309.438 88.6497   1
   9 -11 -12 335.576 84.2516   4
   9 -11 -11 160.531 67.3330   4
   9 -11 -10 101.701 50.1206   4
   9 -11  -9 230.955 67.2539   4
   9 -11  -8 332.884 76.4379   3
   9 -11  -8 272.081 74.0917   4
   9 -11  -7 23.3868 39.2411   3
   9 -11  -6 95.8725 62.0763   3
   9 -11  -5 41.7811 49.4944   3
   9 -11  -4 362.458 86.4232   3
   9 -11  -3 528.863 98.6447   3
   9 -11  -2 269.162 78.7229   3
   9 -11  -1 340.552 87.6486   3
   9 -11   0 319.253 82.6716   3
   9 -11   1 524.426 102.676   3
   9 -11   2 347.709 87.5935   3
   9 -11   3 622.817 114.100   3
   9 -11   4 212.469 74.6171   3
   9 -11   5-41.9666 61.7031   3
   9 -10 -13 228.658 79.3910   1
   9 -10 -12 83.5030 52.7794   1
   9 -10 -12 167.356 63.6190   4
   9 -10 -11 34.5307 42.9786   1
   9 -10 -11 7.82658 43.8004   4
   9 -10 -10 187.642 66.1634   1
   9 -10 -10 241.965 77.0578   4
   9 -10  -9 58.2877 48.1590   4
   9 -10  -8 26.9571 42.4247   4
   9 -10  -7 25.9938 43.0950   3
   9 -10  -6 252.189 73.7137   3
   9 -10  -5 968.902 123.551   3
   9 -10  -5 520.913 83.0527   2
   9 -10  -4 668.202 106.732   3
   9 -10  -3 1056.95 123.825   3
   9 -10  -2 312.238 73.3126   3
   9 -10  -1 435.003 91.2191   3
   9 -10   0 539.676 99.4779   3
   9 -10   1 268.329 76.0504   3
   9 -10   2 117.622 71.2418   3
   9 -10   3 674.032 110.715   3
   9 -10   4 124.214 55.5771   3
   9 -10   5 1.70445 47.1504   3
   9 -10   6 73.5031 58.4245   3
   9 -10   7 232.730 78.4875   3
   9  -9 -13 133.669 65.6976   1
   9  -9 -12 39.4731 50.4514   1
   9  -9 -11 49.0626 44.7215   1
   9  -9 -11 178.222 65.0484   4
   9  -9 -10 266.297 71.6368   1
   9  -9 -10 422.519 84.4619   4
   9  -9  -9 128.916 50.4955   1
   9  -9  -9 215.864 63.8155   4
   9  -9  -8 92.6370 48.8955   1
   9  -9  -8 93.5693 47.8645   4
   9  -9  -6 245.288 66.3147   3
   9  -9  -6 219.386 60.0261   2
   9  -9  -5 122.809 64.0451   3
   9  -9  -5 69.9896 43.9359   2
   9  -9  -4 944.083 118.539   3
   9  -9  -4 1111.39 117.877   2
   9  -9  -3 430.467 84.9138   3
   9  -9  -3 339.994 66.4721   2
   9  -9  -2 155.893 66.8910   3
   9  -9  -1 94.5926 55.1901   3
   9  -9   0 569.241 92.5710   3
   9  -9   1 166.856 69.1136   3
   9  -9   2 430.233 88.5449   3
   9  -9   3 1156.31 136.395   3
   9  -9   4 89.0456 67.7985   3
   9  -9   5 69.5901 61.6010   3
   9  -9   6 147.610 68.5085   3
   9  -9   7 246.646 78.4948   3
   9  -9   8-24.3817 61.6550   3
   9  -8 -13 26.1326 46.0786   1
   9  -8 -12-96.2109 62.0316   1
   9  -8 -11 164.247 64.4100   1
   9  -8 -10 303.521 76.6773   1
   9  -8 -10 144.384 57.6263   4
   9  -8  -9-73.3376 52.0735   1
   9  -8  -9 19.4854 43.3058   4
   9  -8  -8-86.1870 53.2145   1
   9  -8  -8 30.1280 39.9467   4
   9  -8  -7 34.9837 30.8398   1
   9  -8  -7 88.4847 47.5326   2
   9  -8  -6 232.264 60.5550   1
   9  -8  -6 425.429 77.5919   3
   9  -8  -6 301.581 65.8503   2
   9  -8  -5 855.039 111.839   3
   9  -8  -5 743.638 95.1313   2
   9  -8  -4 261.048 66.9602   3
   9  -8  -4 514.584 82.1861   2
   9  -8  -3 1040.95 117.397   3
   9  -8  -3 1118.81 116.192   2
   9  -8  -2 249.867 73.1031   3
   9  -8  -2 148.118 50.2726   2
   9  -8  -1 55.1441 47.2297   3
   9  -8  -1-32.8342 52.3507   2
   9  -8   0 626.947 98.2495   3
   9  -8   1 236.401 71.4396   3
   9  -8   2 649.035 102.709   3
   9  -8   3 170.188 66.6521   3
   9  -8   4 98.5954 60.9171   3
   9  -8   5 129.643 61.5744   3
   9  -8   6 596.663 104.059   3
   9  -8   7 797.091 118.112   3
   9  -8   8 283.936 75.0022   3
   9  -8   9 120.041 65.5471   3
  -9   8 -10 85.6245 56.2236   5
  -9   8 -11 96.3022 53.3939   5
  -9   8 -12 116.235 47.9204   5
   9  -7 -12-58.6915 51.7889   1
   9  -7 -11 31.2986 46.6042   1
   9  -7 -10-61.0236 48.3089   1
   9  -7  -9 97.1288 52.5681   1
   9  -7  -9 73.7799 48.7014   4
   9  -7  -8 170.726 58.5929   2
   9  -7  -8 128.286 53.3272   1
   9  -7  -7 31.4609 32.8747   1
   9  -7  -7 34.6334 35.0534   2
   9  -7  -6 392.222 73.6908   1
   9  -7  -6 471.147 75.6091   2
   9  -7  -5 1289.36 120.259   3
   9  -7  -5 1579.71 133.349   2
   9  -7  -5 1419.11 123.909   1
   9  -7  -4 654.049 91.5804   3
   9  -7  -4 587.937 81.1858   1
   9  -7  -4 585.182 87.1851   2
   9  -7  -3 14.7772 39.5619   3
   9  -7  -3 78.8318 46.4825   2
   9  -7  -2 181.133 63.2933   3
   9  -7  -2 206.097 58.2232   2
   9  -7  -1 1017.74 114.275   3
   9  -7  -1 957.189 109.847   2
   9  -7   0 29.2497 42.3535   3
   9  -7   0 71.1791 43.7573   2
   9  -7   1 163.316 67.5107   3
   9  -7   2 616.654 103.613   3
   9  -7   3 144.499 62.6797   3
   9  -7   4 104.037 62.3151   3
   9  -7   5 405.134 89.2244   3
   9  -7   6 968.970 124.151   3
   9  -7   7 322.620 79.2187   3
   9  -7   8 438.880 95.7832   3
   9  -7   9 338.702 81.1135   3
   9  -7  10 160.057 69.8860   3
  -9   7 -10 124.155 61.0065   5
  -9   7 -11 123.960 58.7809   5
  -9   7 -12 834.752 121.619   5
  -9   7 -13 95.3770 53.5651   5
  -9   7 -14-6.46256 42.1866   5
  -9   7 -15-128.847 64.0124   5
  -9   7 -16 196.952 82.1805   5
   9  -6 -12 57.0781 52.6072   1
   9  -6 -11-16.5873 52.8590   1
   9  -6 -10-1.79977 48.9840   1
   9  -6  -9 194.381 63.6983   1
   9  -6  -8 286.978 64.4195   2
   9  -6  -8 466.309 87.3610   1
   9  -6  -7 310.141 64.0864   2
   9  -6  -7 310.284 69.2109   1
   9  -6  -6 518.954 80.8652   2
   9  -6  -6 533.200 88.9461   1
   9  -6  -5 1833.42 138.041   3
   9  -6  -5 1732.23 137.245   1
   9  -6  -5 1851.28 141.738   2
   9  -6  -4 1362.64 124.831   3
   9  -6  -4 1123.81 109.723   1
   9  -6  -4 1314.79 123.227   2
   9  -6  -3 775.893 95.9265   3
   9  -6  -3 646.514 82.6999   1
   9  -6  -3 622.474 89.2520   2
   9  -6  -2 100.691 54.1739   3
   9  -6  -2 80.2651 48.9837   2
   9  -6  -1 51.2563 48.1709   3
   9  -6  -1 86.1032 48.2112   2
   9  -6   0 833.228 102.232   3
   9  -6   0 770.994 101.902   2
   9  -6   1 354.828 75.7766   3
   9  -6   1 302.731 67.2392   2
   9  -6   2-15.8193 40.5447   3
   9  -6   3 174.291 62.2616   3
   9  -6   4 248.095 64.2368   3
   9  -6   5 808.083 110.308   3
   9  -6   6 685.276 103.221   3
   9  -6   7 460.369 88.1177   3
   9  -6   8 313.311 78.4520   3
   9  -6   9 301.945 84.8482   3
   9  -6  10 506.121 93.5767   3
   9  -6  11 71.1835 51.3848   3
  -9   6 -11 290.717 80.9791   5
  -9   6 -12 295.588 78.4544   5
  -9   6 -13 104.829 57.4887   5
  -9   6 -14 108.677 68.9061   5
  -9   6 -15 4.77988 40.7269   5
  -9   6 -16 121.700 70.5562   5
  -9   6 -17 113.571 71.1252   5
   9  -5 -12 79.7755 64.5154   1
   9  -5 -11 24.4688 47.2340   1
   9  -5 -10-4.21935 43.1065   1
   9  -5  -9 74.7286 45.7079   2
   9  -5  -9 15.6718 42.8656   1
   9  -5  -8 6.02572 31.6455   2
   9  -5  -8 17.8686 37.9459   1
   9  -5  -7 124.148 45.5957   2
   9  -5  -7 53.8065 41.9160   1
   9  -5  -6 1268.19 129.115   1
   9  -5  -6 979.165 105.915   2
   9  -5  -5 1854.61 144.889   1
   9  -5  -5 1859.26 143.104   2
   9  -5  -4 2022.47 141.286   3
   9  -5  -4 1906.16 143.579   1
   9  -5  -4 1968.02 144.986   2
   9  -5  -3 236.387 58.9976   3
   9  -5  -3 235.481 57.1628   1
   9  -5  -3 320.851 64.4876   2
   9  -5  -2 62.8030 41.2787   3
   9  -5  -2 201.719 58.3260   2
   9  -5  -1 43.9045 36.0298   3
   9  -5  -1 73.9768 46.8808   2
   9  -5   0 158.820 58.9902   3
   9  -5   0 166.813 52.0517   2
   9  -5   1 518.702 82.7057   3
   9  -5   1 544.601 77.8542   2
   9  -5   2 10.3058 42.0525   3
   9  -5   2-14.3732 35.2414   2
   9  -5   3-73.7775 53.5772   3
   9  -5   4 282.062 68.2604   3
   9  -5   5 1368.34 133.683   3
   9  -5   6 1232.96 127.359   3
   9  -5   7 679.373 104.760   3
   9  -5   8 453.036 89.3202   3
   9  -5   9 383.423 84.3737   3
   9  -5  10 52.4291 52.5409   3
   9  -5  11 225.080 73.7264   3
   9  -5  12 0.82842 44.3464   3
  -9   5 -12-65.3396 48.2659   5
  -9   5 -13 16.5451 46.1710   5
  -9   5 -14 379.205 92.9903   5
  -9   5 -15-40.2518 58.8059   5
  -9   5 -16-3.96059 50.2472   5
  -9   5 -17 182.767 72.1876   5
  -9   5 -18 237.409 81.2177   5
   9  -4 -12-8.52440 47.5030   1
   9  -4 -11 56.8173 59.0642   1
   9  -4 -10-14.8408 39.0861   2
   9  -4 -10 55.6915 48.0430   1
   9  -4  -9 398.766 78.6587   2
   9  -4  -9 622.025 106.554   1
   9  -4  -8 158.155 55.9074   2
   9  -4  -8 232.307 71.0087   1
   9  -4  -7 347.869 73.1647   2
   9  -4  -7 392.570 76.7460   1
   9  -4  -6 986.233 112.751   1
   9  -4  -6 1194.77 121.156   2
   9  -4  -5 1181.39 115.025   1
   9  -4  -5 1162.72 118.049   2
   9  -4  -4 555.244 79.2410   2
   9  -4  -4 641.436 89.1419   1
   9  -4  -3 46.6741 35.3214   2
   9  -4  -3 68.7855 44.4294   3
   9  -4  -3 101.080 43.5727   1
   9  -4  -2 38.0558 39.1968   3
   9  -4  -2 81.9769 49.9676   2
   9  -4  -1 133.205 51.3505   3
   9  -4  -1 100.826 45.8930   2
   9  -4   0 117.126 52.7892   3
   9  -4   0 106.789 45.5793   2
   9  -4   1-39.2170 39.9730   3
   9  -4   1-24.7005 41.1608   2
   9  -4   2-51.9904 41.2447   3
   9  -4   2-32.9057 36.4957   2
   9  -4   3 54.7822 39.3741   3
   9  -4   3 0.85680 41.6030   2
   9  -4   4 2566.46 171.926   3
   9  -4   5 2733.43 178.520   3
   9  -4   6 1792.30 150.408   3
   9  -4   7 1003.33 119.834   3
   9  -4   8 597.142 99.0697   3
   9  -4   9 276.581 77.0646   3
   9  -4  10 168.782 63.7023   3
   9  -4  11 93.9330 57.6680   3
   9  -4  12 135.876 65.4962   3
   9  -4  13 52.9041 55.7068   3
  -9   4 -13 70.2345 61.6518   5
  -9   4 -14 205.964 77.3323   5
  -9   4 -15-90.2210 63.5234   5
  -9   4 -16 102.470 64.5465   5
  -9   4 -17 88.6702 59.6071   5
  -9   4 -18 122.154 68.5739   5
   9  -3 -12 533.843 105.298   1
   9  -3 -11 193.699 73.6439   1
   9  -3 -10 243.431 75.2608   1
   9  -3 -10 180.483 58.2691   2
   9  -3  -9 409.266 83.5787   1
   9  -3  -9 409.404 76.8868   2
   9  -3  -8 400.199 82.8449   1
   9  -3  -8 464.221 85.9587   2
   9  -3  -7 818.672 111.317   1
   9  -3  -7 819.212 103.910   2
   9  -3  -6 816.557 104.914   1
   9  -3  -6 1021.43 112.875   2
   9  -3  -5 1424.95 132.474   1
   9  -3  -5 1592.09 134.081   2
   9  -3  -4 416.087 76.9116   2
   9  -3  -4 333.525 66.7680   1
   9  -3  -3 55.8009 37.5789   2
   9  -3  -3 128.986 47.7284   3
   9  -3  -3 40.4910 36.1849   1
   9  -3  -2 369.376 65.0125   2
   9  -3  -2 320.936 62.9324   3
   9  -3  -1 91.8160 43.0422   3
   9  -3  -1-9.67526 42.7077   2
   9  -3   0 152.450 47.7455   3
   9  -3   0 97.7296 39.1995   2
   9  -3   1 769.920 90.3136   3
   9  -3   1 730.980 90.7758   2
   9  -3   2 98.4257 47.2761   3
   9  -3   2 63.1845 38.8679   2
   9  -3   3 1.44609 35.2004   3
   9  -3   3 15.7891 34.3101   2
   9  -3   4 965.559 105.388   3
   9  -3   4 814.223 98.3754   2
   9  -3   5 4681.31 228.371   3
   9  -3   6 3933.27 212.200   3
   9  -3   7 1102.11 123.064   3
   9  -3   8 351.335 80.7620   3
   9  -3   9 58.7508 56.6091   3
   9  -3  10 97.0212 56.3712   3
   9  -3  11-42.9009 53.5929   3
   9  -3  12-42.0131 48.7999   3
   9  -3  13 244.290 84.2035   3
  -9   3 -13 285.440 77.8898   5
   9  -3  14 147.312 64.5870   3
  -9   3 -14 46.9768 60.3684   5
  -9   3 -15 397.873 95.4129   5
  -9   3 -16 434.972 100.244   5
  -9   3 -17 400.733 99.3966   5
  -9   3 -18 131.779 65.1973   5
  -9   3 -19 139.566 80.1153   5
   9  -2 -11 297.167 85.2978   1
   9  -2 -11 293.772 75.1151   2
   9  -2 -10 252.950 71.6353   1
   9  -2 -10 297.212 72.8693   2
   9  -2  -9 426.779 88.9589   1
   9  -2  -9 461.783 88.8692   2
   9  -2  -8 782.491 108.616   1
   9  -2  -8 815.071 106.630   2
   9  -2  -7 681.572 93.8013   2
   9  -2  -7 823.345 104.131   1
   9  -2  -6 741.210 103.969   1
   9  -2  -6 1063.16 116.609   2
   9  -2  -5 806.607 102.653   1
   9  -2  -5 864.657 105.887   2
   9  -2  -4 719.327 96.6195   2
   9  -2  -4 524.708 81.2433   1
   9  -2  -3 79.1293 45.6086   2
   9  -2  -3-6.69874 35.7260   1
   9  -2  -2 262.635 56.2698   2
   9  -2  -2 224.319 50.3461   3
   9  -2  -1 143.549 49.8977   2
   9  -2  -1 265.935 56.0603   3
   9  -2   0 55.6192 36.3951   3
   9  -2   0-41.6919 43.4594   2
   9  -2   1 647.604 79.3702   3
   9  -2   1 557.305 79.9922   2
   9  -2   2-13.0146 43.0178   3
   9  -2   2-17.2190 40.1965   2
   9  -2   3 1079.88 109.500   3
   9  -2   3 1194.71 113.938   2
   9  -2   4 209.416 58.9515   3
   9  -2   4 224.505 57.5570   2
   9  -2   5 355.125 75.2360   3
   9  -2   5 303.069 64.4397   2
  -9   2  -5 312.331 58.5113   1
   9  -2   6 666.775 95.9696   3
   9  -2   7 1116.82 120.332   3
   9  -2   8 489.259 86.2446   3
   9  -2   9 82.1879 57.0936   3
   9  -2  10 27.4432 41.6886   3
   9  -2  11 78.3700 55.3645   3
   9  -2  12 89.9224 63.8312   3
   9  -2  13-13.6252 47.0723   3
   9  -2  14 150.674 66.6709   3
  -9   2 -14 105.998 62.4543   5
  -9   2 -15 529.196 106.521   5
  -9   2 -16 698.328 123.974   5
  -9   2 -17 216.391 84.1630   5
  -9   2 -18 43.9239 62.1283   5
  -9   2 -19 45.0238 49.1735   5
   9  -1 -12 468.487 91.1907   2
   9  -1 -11 276.155 78.2906   1
   9  -1 -11 418.540 93.3179   2
   9  -1 -10 178.688 67.5856   1
   9  -1 -10 258.979 66.4422   2
   9  -1  -9 41.8524 41.9403   1
   9  -1  -9 182.189 68.0832   2
   9  -1  -8 320.708 71.8435   1
   9  -1  -8 369.223 78.9387   2
   9  -1  -7 281.987 76.2708   1
   9  -1  -7 328.850 75.0848   2
   9  -1  -6 518.620 91.9159   1
   9  -1  -6 530.251 88.0713   2
   9  -1  -5 516.608 84.9267   2
   9  -1  -5 375.894 77.1231   1
   9  -1  -4 87.1007 52.4711   2
   9  -1  -4 52.3843 32.8434   1
   9  -1  -3 52.8282 46.9636   2
   9  -1  -3 70.3067 46.1272   1
   9  -1  -2 579.304 81.5012   2
   9  -1  -1 516.978 78.6326   2
   9  -1  -1 412.830 67.0219   3
   9  -1   0 1275.81 108.711   3
   9  -1   0 1180.87 111.407   2
   9  -1   1-55.8996 40.9769   2
   9  -1   1 109.681 45.4533   3
   9  -1   2 628.199 80.6033   3
   9  -1   2 551.026 75.3340   2
   9  -1   3 1553.37 124.116   3
   9  -1   3 1417.80 120.824   2
   9  -1   4 996.329 105.388   3
   9  -1   4 914.223 101.782   2
   9  -1   5 1831.64 140.590   3
  -9   1  -5 1711.39 124.918   1
   9  -1   5 1827.87 137.293   2
  -9   1  -6 1005.76 98.6601   1
   9  -1   6 1025.27 110.704   3
   9  -1   6 1077.22 108.985   2
   9  -1   7 69.0838 42.8894   3
  -9   1  -7 17.1457 30.1610   1
   9  -1   8-3.93237 44.4216   3
   9  -1   9-92.3404 54.6851   3
   9  -1  10-40.6901 45.6956   3
   9  -1  11 16.2454 50.5774   3
   9  -1  12-15.6145 43.5491   3
   9  -1  13-12.9882 45.1825   3
   9  -1  14 85.2848 53.1802   3
  -9   1 -14 95.0162 56.4575   5
   9  -1  15 494.653 98.1023   3
  -9   1 -15 522.334 104.341   5
  -9   1 -16 824.370 128.779   5
  -9   1 -17 180.882 79.8190   5
  -9   1 -18 80.4313 67.7125   5
  -9   1 -19 50.9886 60.0766   5
  -9   1 -20 50.8075 56.8845   5
   9   0 -11 275.311 83.7454   1
   9   0 -11 298.029 75.3042   2
   9   0 -10 114.665 56.1274   1
   9   0 -10 133.631 60.1424   2
   9   0  -9 134.400 58.0254   1
   9   0  -9 137.359 55.5695   2
   9   0  -8 99.0926 49.3444   1
   9   0  -8 97.0473 53.0068   2
   9   0  -7-29.8464 47.5012   1
   9   0  -7 114.337 58.9644   2
   9   0  -6-18.9445 37.8982   1
   9   0  -6 37.6189 38.1662   2
   9   0  -5 257.514 67.2264   2
   9   0  -5 226.041 63.2087   1
   9   0  -4 139.516 54.3156   2
   9   0  -4 208.800 59.3543   1
   9   0  -3 442.452 80.4633   2
   9   0  -2 704.554 94.4213   2
   9   0  -1 1587.22 109.321   3
   9   0  -1 1640.33 131.568   2
   9   0   0 1658.23 113.383   3
   9   0   0 1545.83 126.517   2
   9   0   1-4.37310 34.0763   2
   9   0   1 38.5236 30.7978   3
   9   0   2 1316.73 111.210   3
   9   0   2 1291.71 115.842   2
   9   0   3 1421.47 117.787   3
   9   0   3 1352.35 116.066   2
   9   0   4 1049.97 104.817   3
   9   0   4 949.860 99.6007   2
   9   0   5 1179.28 111.058   3
   9   0   5 1196.96 112.449   2
  -9   0  -6 861.939 95.5971   1
   9   0   6 873.002 101.468   3
   9   0   6 722.272 87.3881   2
  -9   0  -7 12.4518 35.0931   1
   9   0   7-6.66138 45.4857   3
   9   0   7 29.2328 39.8537   2
   9   0   8 1.19053 50.1525   3
  -9   0  -8 71.1756 42.8791   1
  -9   0  -9-5.97771 32.6402   1
   9   0   9 106.587 59.0171   3
   9   0  10 872.112 114.015   3
   9   0  11 211.668 68.6739   3
   9   0  12 58.1743 53.0533   3
   9   0  13 165.418 65.8878   3
   9   0  14-2.76073 43.7647   3
   9   0  15 189.920 71.6781   3
  -9   0 -15 338.699 84.8783   5
  -9   0 -16 713.227 124.756   5
  -9   0 -17 228.217 83.9789   5
  -9   0 -18 222.186 86.8189   5
  -9   0 -19 28.1776 57.0663   5
  -9   0 -20 47.2502 72.0799   5
   9   1 -11 354.717 89.3405   2
   9   1 -10 22.0227 43.9489   1
   9   1 -10 39.0439 54.4873   2
   9   1  -9 79.2771 52.8879   1
   9   1  -9 113.565 60.4189   2
   9   1  -8 35.9593 43.8676   1
   9   1  -8 193.204 71.6090   2
   9   1  -7 123.569 62.3382   1
   9   1  -7 131.570 52.5682   2
   9   1  -6 60.1157 49.1003   2
   9   1  -6 37.0858 42.3274   1
   9   1  -5 103.919 51.4368   2
   9   1  -5 138.010 55.8810   1
   9   1  -4-21.8027 41.2181   2
   9   1  -4-2.49972 34.7627   1
   9   1  -3 978.886 109.991   2
   9   1  -2 505.448 80.0773   2
   9   1  -1 2133.01 151.592   2
   9   1   0 2130.63 129.431   3
   9   1   0 2114.17 147.635   2
   9   1   1 1020.56 94.1092   3
   9   1   1 755.602 91.7050   2
   9   1   2 1934.28 132.697   3
   9   1   2 1778.50 133.266   2
   9   1   3 659.503 81.6301   3
   9   1   3 542.632 76.9437   2
   9   1   4 264.735 60.3853   3
   9   1   4 201.945 51.9697   2
   9   1   5 989.679 103.388   3
   9   1   5 1081.37 107.516   2
  -9  -1  -6 1648.98 126.745   1
   9   1   6 1453.49 128.546   3
   9   1   6 1593.70 126.926   2
  -9  -1  -7 85.6885 41.6611   1
   9   1   7 107.720 45.8925   3
   9   1   7 87.2489 42.1281   2
   9   1   8 888.554 107.114   3
  -9  -1  -8 881.945 93.8828   1
   9   1   8 900.723 100.093   2
  -9  -1  -9 67.9886 44.7176   1
   9   1   9-37.3989 44.3633   3
  -9  -1 -10 663.666 88.8427   1
   9   1  10 656.543 98.7789   3
   9   1  11 515.243 97.1237   3
  -9  -1 -11 256.255 55.2664   1
   9   1  12 575.864 98.2404   3
   9   1  13 237.141 73.3694   3
   9   1  14 568.594 106.339   3
   9   1  15 265.947 77.1925   3
  -9  -1 -15 383.161 86.4878   5
   9   1  16 325.630 83.9244   3
  -9  -1 -16 398.807 98.6230   5
  -9  -1 -17 437.794 100.299   5
  -9  -1 -18 50.0772 58.0688   5
  -9  -1 -19 49.8646 68.8540   5
  -9  -1 -20 82.7891 65.2095   5
  -9  -1 -21 101.616 70.3313   5
   9   2 -10 45.7118 56.3318   1
   9   2 -10-19.6168 47.2475   2
   9   2  -9-82.8461 49.7752   1
   9   2  -9 16.5271 50.4447   2
   9   2  -8-9.26050 41.2199   2
   9   2  -8-53.9741 51.8001   1
   9   2  -7 357.945 84.7910   2
   9   2  -7 408.143 85.2849   1
   9   2  -6 265.322 70.6491   2
   9   2  -6 167.874 57.4731   1
   9   2  -5 40.2243 47.6948   2
   9   2  -5 76.0813 41.0002   1
   9   2  -4 198.158 61.1507   2
   9   2  -3 593.121 86.4774   2
   9   2  -2 418.489 74.7938   2
   9   2  -1 3579.51 201.887   2
   9   2   0 1145.08 113.369   2
   9   2   1 1971.35 125.160   3
   9   2   1 1923.87 140.282   2
   9   2   2 141.516 53.1256   2
   9   2   2 163.701 46.6838   3
   9   2   3 520.574 77.1630   3
   9   2   3 494.077 78.3332   2
   9   2   4 416.889 71.9255   2
   9   2   4 534.148 76.6286   3
   9   2   5 617.818 87.8615   3
   9   2   5 530.072 78.1480   2
  -9  -2  -6 736.818 88.5492   1
   9   2   6 704.648 90.0011   3
   9   2   6 757.819 92.8814   2
   9   2   7 95.7482 53.9528   3
  -9  -2  -7 33.8640 40.7151   1
   9   2   7 69.6000 44.0299   2
   9   2   8 1735.80 145.080   3
  -9  -2  -8 1682.88 132.696   1
   9   2   8 1786.12 135.950   2
   9   2   9 2322.89 167.958   3
  -9  -2  -9 2197.11 149.810   1
   9   2   9 2361.68 156.304   2
  -9  -2 -10 559.477 85.2441   1
   9   2  10 562.427 97.5324   3
  -9  -2 -11 1042.09 113.424   1
   9   2  11 1035.88 126.400   3
   9   2  12 235.605 73.3783   3
  -9  -2 -12 211.879 52.8867   1
   9   2  13 205.522 75.5983   3
   9   2  14 639.438 108.954   3
   9   2  15 394.906 84.7069   3
   9   2  16 73.3472 51.8979   3
  -9  -2 -16 297.578 87.9946   5
  -9  -2 -17 135.680 78.9849   5
  -9  -2 -18 124.694 70.9875   5
  -9  -2 -19 41.3513 56.9597   5
  -9  -2 -20 76.6389 60.4292   5
  -9  -2 -21 142.675 74.0882   5
   9   3  -9 53.1365 57.1814   2
   9   3  -9 104.919 51.9070   1
   9   3  -8 127.905 67.4972   2
   9   3  -8 21.1509 36.1830   1
   9   3  -7-22.0867 49.7426   2
   9   3  -7 17.3554 42.9440   1
   9   3  -6-21.2420 42.2756   2
   9   3  -6 24.1671 43.5973   1
   9   3  -5 77.9877 47.5626   2
   9   3  -4 745.886 102.188   2
   9   3  -3 1338.04 132.422   2
   9   3  -2 1117.37 116.178   2
   9   3  -1 1070.97 116.830   2
   9   3   0 3407.14 192.719   2
   9   3   1 1731.17 116.864   3
   9   3   1 1519.64 129.828   2
   9   3   2 82.2784 45.8957   2
   9   3   2 155.669 46.2154   3
   9   3   3 322.276 61.7060   2
   9   3   3 337.747 64.9633   3
   9   3   4 402.130 68.4219   2
   9   3   4 537.953 80.8827   3
   9   3   5 172.593 48.5312   2
   9   3   5 109.562 45.3704   3
  -9  -3  -6 43.0102 44.6567   1
   9   3   6 122.026 54.2211   3
   9   3   6 76.6205 38.6923   2
   9   3   7 169.769 56.3110   3
  -9  -3  -7 96.1186 50.9594   1
   9   3   7 94.5878 43.5942   2
   9   3   8 711.013 98.3352   3
  -9  -3  -8 573.929 84.7090   1
   9   3   8 756.174 88.2759   2
   9   3   9 2580.69 176.547   3
  -9  -3  -9 2471.21 162.647   1
   9   3   9 2299.00 151.425   2
  -9  -3 -10 662.173 91.7903   1
   9   3  10 673.148 103.593   3
  -9  -3 -11 1452.71 134.507   1
   9   3  11 1275.76 138.856   3
  -9  -3 -12 667.402 94.8291   1
   9   3  12 578.489 97.7973   3
  -9  -3 -13 200.290 60.6274   1
   9   3  13 292.062 84.2983   3
  -9  -3 -14 478.875 87.0301   1
   9   3  14 452.132 102.345   3
   9   3  15 150.481 58.9507   3
   9   3  16 201.353 83.6216   3
  -9  -3 -16 130.854 63.6215   5
  -9  -3 -17-25.2146 53.4235   5
  -9  -3 -18 133.721 57.6579   5
  -9  -3 -19-51.9880 54.0636   5
  -9  -3 -20-62.4604 71.5409   5
  -9  -3 -21 149.487 74.6036   5
  -9  -3 -22 33.4835 54.7886   5
   9   4  -9 289.489 76.7958   1
   9   4  -8 418.438 87.8274   2
   9   4  -8 410.271 86.7684   1
   9   4  -7 480.827 94.4193   2
   9   4  -6 186.533 72.8575   2
   9   4  -5 569.642 100.993   2
   9   4  -4 986.015 117.446   2
   9   4  -3 1008.16 116.226   2
   9   4  -2 2153.79 162.704   2
   9   4  -1 336.121 70.8286   2
   9   4   0 1271.74 120.640   2
   9   4   1 1222.39 120.951   2
   9   4   2 37.9635 37.7174   2
   9   4   2 71.5365 42.7403   3
   9   4   3 42.4056 43.1877   2
   9   4   3 75.9598 31.4422   3
   9   4   4 175.056 55.2464   2
   9   4   4 191.008 57.5165   3
   9   4   5 67.2054 43.9983   2
   9   4   5 15.7196 39.1456   3
   9   4   6 160.405 56.1056   3
  -9  -4  -6 204.749 58.8886   1
   9   4   6 304.684 64.7000   2
   9   4   7 304.785 65.7576   3
  -9  -4  -7 370.208 71.1891   1
   9   4   7 406.937 70.5795   2
   9   4   8 1483.53 131.789   3
  -9  -4  -8 1287.80 121.087   1
   9   4   8 1565.36 120.936   2
   9   4   9 1732.21 148.039   3
  -9  -4  -9 1597.25 135.945   1
   9   4   9 1835.36 134.056   2
  -9  -4 -10 255.237 58.9423   1
   9   4  10 281.629 73.2037   3
   9   4  10 284.423 58.9215   2
  -9  -4 -11 1005.00 117.901   1
   9   4  11 1018.33 124.148   3
   9   4  12 328.136 82.4130   3
  -9  -4 -12 295.105 70.2141   1
  -9  -4 -13 268.242 75.4493   1
   9   4  13 185.267 70.9636   3
  -9  -4 -14 465.604 88.8178   1
   9   4  14 635.849 109.696   3
  -9  -4 -15 387.209 79.9337   1
   9   4  15 278.399 71.4761   3
   9   4  16 243.381 83.4405   3
  -9  -4 -16 335.003 86.8684   5
  -9  -4 -17 518.036 99.3923   5
  -9  -4 -18 55.4432 49.7981   5
  -9  -4 -19 333.323 93.5497   5
  -9  -4 -20 150.733 68.0679   5
  -9  -4 -21 44.5935 66.5552   5
  -9  -4 -22 150.353 82.7203   5
   9   5  -8 193.422 63.2862   2
   9   5  -7 320.467 89.4137   2
   9   5  -6 113.399 62.4277   2
   9   5  -5 181.422 62.9324   2
   9   5  -4 504.066 95.3356   2
   9   5  -3 698.048 103.798   2
   9   5  -2 1206.61 128.379   2
   9   5  -1 1157.76 120.750   2
   9   5   0 444.438 77.1641   2
   9   5   1 191.425 57.6418   2
   9   5   2 43.6438 38.7709   2
   9   5   3 55.2818 40.3277   2
   9   5   3 183.791 49.4848   3
   9   5   4 106.249 48.9524   2
   9   5   4 89.6552 42.2690   3
   9   5   5 186.667 52.3445   2
   9   5   5 66.4667 47.9032   3
   9   5   6 494.396 79.3040   3
  -9  -5  -6 501.964 83.4687   1
   9   5   6 463.629 73.7856   2
  -9  -5  -7 342.819 71.4086   1
   9   5   7 318.088 68.3799   3
   9   5   7 319.340 64.7478   2
   9   5   8 1609.20 139.896   3
   9   5   8 1354.94 114.361   2
  -9  -5  -8 1390.48 130.658   1
   9   5   9 50.3456 54.5315   3
  -9  -5  -9 111.195 50.6828   1
   9   5   9 67.5159 36.9246   2
  -9  -5 -10 138.333 57.8577   1
   9   5  10 192.312 65.9196   3
  -9  -5 -11 164.151 59.4509   1
   9   5  11 226.898 71.1716   3
  -9  -5 -12 836.621 110.009   1
   9   5  12 835.324 116.383   3
   9   5  13 133.818 62.1197   3
  -9  -5 -13 209.409 69.9156   1
  -9  -5 -14 76.0131 42.5467   1
   9   5  14-13.8620 49.8502   3
  -9  -5 -15 96.7431 49.5171   1
   9   5  15 86.8268 57.6592   3
   9   5  16 307.923 88.7737   3
  -9  -5 -16 105.757 56.4475   1
  -9  -5 -17 42.2288 55.9776   5
  -9  -5 -17 18.5063 41.8653   1
  -9  -5 -18-7.78832 52.2559   5
  -9  -5 -19 79.8341 60.5945   5
  -9  -5 -20 254.052 78.7069   5
  -9  -5 -21 68.2417 70.3701   5
  -9  -5 -22 35.8726 60.4898   5
   9   6  -7 478.848 99.3696   2
   9   6  -6 15.6858 53.9989   2
   9   6  -5-26.4685 55.8093   2
   9   6  -4 160.045 61.8389   2
   9   6  -3 440.940 88.4282   2
   9   6  -2 417.918 84.2506   2
   9   6  -1 1334.10 134.450   2
   9   6   0 350.984 70.8929   2
   9   6   1 1.87626 35.5641   2
   9   6   2 790.698 98.4522   2
   9   6   3 249.579 62.2116   2
   9   6   3 322.801 65.4772   3
   9   6   4 35.5141 43.9670   2
   9   6   4 44.2784 52.4976   3
   9   6   5 77.2537 39.1226   2
   9   6   5 214.399 55.5392   3
   9   6   6 47.1288 35.5610   2
  -9  -6  -6 217.813 61.5741   1
   9   6   6 172.539 56.6783   3
  -9  -6  -7 609.652 94.2258   1
   9   6   7 552.563 87.4410   3
   9   6   7 605.589 80.5263   2
  -9  -6  -8 427.194 79.2611   1
   9   6   8 423.910 81.4032   3
   9   6   8 508.256 71.0642   2
   9   6   9 303.297 75.4712   3
  -9  -6  -9 389.270 76.6802   1
  -9  -6 -10 595.920 91.2406   1
   9   6  10 640.083 97.1955   3
  -9  -6 -11 668.041 102.310   1
   9   6  11 834.723 118.909   3
   9   6  12 17.7772 58.2940   3
  -9  -6 -12 213.393 63.6858   1
   9   6  13-56.0805 48.2244   3
  -9  -6 -13-29.0610 39.3390   1
  -9  -6 -14 111.379 57.6093   1
   9   6  14 243.708 72.3549   3
  -9  -6 -15 157.136 64.5012   1
   9   6  15 9.94807 45.8396   3
  -9  -6 -16 103.814 59.4392   1
   9   6  16 102.152 60.3927   3
  -9  -6 -17 116.789 68.2938   5
  -9  -6 -17 40.9436 43.3993   1
  -9  -6 -18 34.5238 53.8223   5
  -9  -6 -19 42.2779 53.1998   5
  -9  -6 -20 22.5690 51.5234   5
  -9  -6 -21 112.252 66.5325   5
  -9  -6 -22 166.408 86.1183   5
  -9  -6 -23 213.772 87.8219   5
   9   7  -6 218.052 73.3078   2
   9   7  -5 7.10249 49.4919   2
   9   7  -4 97.3085 47.2749   2
   9   7  -3-68.4349 61.4414   2
   9   7  -2 20.4617 40.7983   2
   9   7  -1 362.217 87.7747   2
   9   7   0 230.682 64.1734   2
   9   7   1 217.887 61.2254   2
   9   7   2 111.929 44.9761   2
   9   7   3-3.62143 41.5559   2
   9   7   4 82.3113 40.7299   2
   9   7   4-2.72091 37.4755   3
   9   7   5 6.92055 33.1082   2
   9   7   5 142.231 53.1633   3
   9   7   6 444.298 73.7977   2
  -9  -7  -6 543.554 88.4030   1
   9   7   6 446.355 77.5491   3
  -9  -7  -7 623.106 93.1476   1
   9   7   7 660.702 94.2560   3
   9   7   7 665.040 86.2142   2
  -9  -7  -8 268.520 70.8467   1
   9   7   8 105.021 55.3486   3
   9   7   9 526.719 92.4611   3
  -9  -7  -9 574.430 90.1664   1
   9   7  10 700.769 109.346   3
  -9  -7 -10 616.929 94.7109   1
  -9  -7 -11 165.638 63.6867   1
   9   7  11 122.936 60.4726   3
   9   7  12 26.3268 48.4210   3
  -9  -7 -12 50.7082 44.5951   1
   9   7  13-12.6760 50.2651   3
  -9  -7 -13 12.1807 41.2512   1
  -9  -7 -14 45.7154 42.1452   1
   9   7  14 130.638 60.6479   3
  -9  -7 -15 50.7669 45.3821   1
   9   7  15 72.1948 48.3687   3
  -9  -7 -16 94.2598 53.7326   1
   9   7  16 120.402 71.6705   3
  -9  -7 -17 39.3224 49.6661   5
  -9  -7 -17-53.4478 54.9120   1
  -9  -7 -18 145.208 68.2472   5
  -9  -7 -19 79.8262 48.7495   5
  -9  -7 -20 235.767 84.9959   5
  -9  -7 -21 115.640 66.7514   5
  -9  -7 -22 47.1063 54.8459   5
  -9  -7 -23 93.8356 64.7227   5
   9   8  -5 240.715 83.1908   2
   9   8  -4 227.731 75.1325   2
   9   8  -3-40.0364 42.5253   2
   9   8  -2 432.106 88.6133   2
   9   8  -1 240.430 72.0803   2
   9   8   0 85.8571 48.4920   2
   9   8   1 132.732 57.9592   2
   9   8   2 606.006 92.6176   2
   9   8   3 503.266 83.0604   2
   9   8   4 36.9545 33.7235   2
   9   8   5 342.892 68.5972   2
   9   8   5 356.221 66.4897   3
   9   8   6 159.382 52.0193   2
   9   8   6 169.934 52.5057   3
  -9  -8  -6 106.073 54.0593   1
   9   8   7 294.014 71.6398   3
  -9  -8  -7 297.597 72.5955   1
  -9  -8  -8 111.838 56.3664   1
   9   8   8 87.0999 54.2649   3
   9   8   9 733.220 108.040   3
  -9  -8  -9 698.933 100.010   1
   9   8  10 1435.81 143.210   3
  -9  -8 -10 1311.39 131.475   1
  -9  -8 -11 218.991 68.2203   1
   9   8  11 263.537 78.9132   3
   9   8  12 45.5434 52.6268   3
  -9  -8 -12 114.839 57.1149   1
   9   8  13 7.31906 56.9214   3
  -9  -8 -13 88.0398 55.7970   1
  -9  -8 -14-11.1987 46.9582   1
   9   8  14 79.7507 63.4065   3
  -9  -8 -15 39.2027 48.8107   1
   9   8  15 34.8169 52.8703   3
  -9  -8 -16 63.3876 48.9036   1
   9   8  16 97.1111 76.9937   3
  -9  -8 -17 225.647 73.5919   5
  -9  -8 -18 233.299 67.0035   5
  -9  -8 -19 286.176 76.6503   5
  -9  -8 -20 239.040 77.8821   5
  -9  -8 -21 20.2665 46.5974   5
  -9  -8 -22 98.1511 67.2488   5
  -9  -8 -23 91.0264 68.4510   5
   9   9  -4 181.830 66.2116   2
   9   9  -3-18.7527 52.3018   2
   9   9  -2 421.567 94.7361   2
   9   9  -1 190.559 68.1126   2
   9   9   0 45.3192 53.7168   2
   9   9   1 474.630 92.1751   2
   9   9   2 491.792 87.6056   2
   9   9   3 349.923 74.4105   2
   9   9   4 962.672 108.324   2
  -9  -9  -5 901.654 116.362   1
   9   9   5 1005.46 108.234   2
  -9  -9  -6 1096.74 123.678   1
   9   9   6 848.267 102.237   3
   9   9   6 1041.56 107.214   2
   9   9   7 24.4773 43.9682   3
  -9  -9  -7 114.970 57.9402   1
  -9  -9  -8 505.784 91.9260   1
   9   9   8 414.531 85.2931   3
   9   9   9 512.707 95.2806   3
  -9  -9  -9 582.562 101.622   1
  -9  -9 -10 689.802 104.688   1
   9   9  10 549.327 93.7171   3
  -9  -9 -11 95.6487 46.9415   1
   9   9  11-10.9243 46.1383   3
   9   9  12 331.056 90.9759   3
  -9  -9 -12 198.489 66.2713   1
   9   9  13-32.3124 52.3482   3
  -9  -9 -13-9.40174 39.0416   1
  -9  -9 -14 71.5818 55.5158   1
   9   9  14-31.1426 58.7050   3
  -9  -9 -15 60.0473 48.2546   1
   9   9  15-47.9996 57.0719   3
  -9  -9 -16 260.732 77.8502   1
   9   9  16 133.844 73.1893   3
  -9  -9 -17 508.122 95.4573   5
  -9  -9 -18 463.649 92.9762   5
  -9  -9 -19 732.258 114.185   5
   9  10  -2-20.4241 49.5158   2
   9  10  -1-119.325 54.9622   2
   9  10   0 5.87844 46.8505   2
   9  10   1 481.844 93.5785   2
   9  10   2 930.908 120.441   2
   9  10   3 768.193 101.391   2
   9  10   4 258.091 60.2090   2
  -9 -10  -5 1030.11 122.434   1
   9  10   5 764.550 96.7263   2
  -9 -10  -6 957.464 124.257   1
   9  10   6 1233.49 125.396   3
   9  10   7 886.763 108.969   3
  -9 -10  -7 1098.83 127.865   1
   9  10   8 929.157 118.884   3
  -9 -10  -8 787.095 109.746   1
   9  10   9-17.6413 41.5193   3
  -9 -10  -9 125.047 58.7081   1
  -9 -10 -10 46.4107 49.8398   1
   9  10  10 85.5720 58.8793   3
  -9 -10 -11 19.3384 42.5119   1
   9  10  11 65.4718 57.6936   3
   9  10  12 77.2404 63.1514   3
  -9 -10 -12-4.38311 45.3332   1
   9  10  13-22.6557 49.8071   3
  -9 -10 -13-4.54664 41.3909   1
  -9 -10 -14 202.393 79.1141   1
   9  10  14 127.539 65.2001   3
  -9 -10 -15 119.034 58.3054   1
   9  10  15 106.475 55.9286   3
  -9 -10 -16 105.550 55.6748   1
   9  10  16 124.040 67.4669   3
   9  11  -1-48.3061 42.6642   2
   9  11   0 320.112 79.2756   2
   9  11   1 626.702 103.403   2
   9  11   2 700.627 100.085   2
   9  11   3 758.437 107.745   2
   9  11   4 476.186 82.7292   2
  -9 -11  -4 555.913 96.9398   1
  -9 -11  -5 321.734 78.3206   1
  -9 -11  -6 420.199 85.2430   1
  -9 -11  -7 554.611 92.6399   1
   9  11   7 361.748 77.7703   3
   9  11   8 257.973 67.8347   3
  -9 -11  -8 318.914 78.0205   1
  -9 -11  -9 132.273 54.1757   1
   9  11   9 183.911 66.7448   3
  -9 -11 -10 14.2878 43.2881   1
   9  11  10 43.7878 52.3076   3
  -9 -11 -11 225.881 68.3654   1
   9  11  11 207.616 75.3711   3
   9  11  12 444.314 87.7071   3
  -9 -11 -12 294.022 81.4116   1
   9  11  13 403.594 93.1659   3
  -9 -11 -13 442.095 95.1762   1
  -9 -11 -14 456.761 98.7904   1
   9  11  14 486.870 104.540   3
  -9 -11 -15 204.718 76.6679   1
   9  11  15 119.577 65.2302   3
   9  12   0 129.074 61.8239   2
   9  12   1 356.348 89.2261   2
   9  12   2 758.020 114.035   2
  -9 -12  -3 754.245 107.140   1
   9  12   3 805.829 110.046   2
  -9 -12  -4 238.532 68.8907   1
  -9 -12  -5 71.2135 48.9369   1
  -9 -12  -6 223.539 72.4022   1
  -9 -12  -7 229.730 63.5075   1
   9  12   8 29.4266 36.7536   3
  -9 -12  -8 26.9663 51.5152   1
  -9 -12  -9 58.1990 48.2942   1
   9  12   9-7.99585 42.8714   3
  -9 -12 -10 163.073 64.0492   1
   9  12  10 15.8437 47.9829   3
  -9 -12 -11 322.646 79.1958   1
   9  12  11 395.783 91.4146   3
   9  12  12 195.339 75.1278   3
  -9 -12 -12 97.2689 55.2468   1
   9  12  13 570.428 112.707   3
  -9 -12 -13 346.721 86.5405   1
  -9 -12 -14 149.925 65.4804   1
   9  12  14 201.722 84.8106   3
   9  12  15 171.894 75.2533   3
   9  13   1 473.420 90.3165   2
  -9 -13  -4 281.831 72.2537   1
  -9 -13  -5-38.1487 44.7405   1
  -9 -13  -6 37.2487 37.2425   1
  -9 -13  -7 85.0377 50.4640   1
  -9 -13  -8 35.6199 38.8582   1
  -9 -13  -9 420.024 84.8392   1
   9  13   9 346.235 84.4281   3
  -9 -13 -10-106.325 54.3176   1
   9  13  10-3.82394 40.8167   3
  -9 -13 -11 460.211 93.4264   1
   9  13  11 554.598 106.274   3
   9  13  12 506.313 104.363   3
  -9 -13 -12 396.880 90.4614   1
   9  13  13 521.509 104.521   3
  -9 -13 -13 306.857 80.7893   1
  -9 -13 -14 179.625 73.1885   1
   9  13  14 144.016 72.4351   3
  -9 -14  -6 95.4168 46.6640   1
  -9 -14  -7 150.505 62.4953   1
  -9 -14  -8 101.428 49.4883   1
  -9 -14  -9 32.1637 39.7368   1
  -9 -14 -10 28.6010 40.2199   1
   9  14  10 100.557 67.4972   3
   9  14  11 205.882 84.0432   3
  -9 -14 -11 381.642 87.2981   1
   9  14  12 764.005 126.468   3
  -9 -14 -12 503.598 101.590   1
   9  14  13 199.026 75.3584   3
  -9 -15  -8 13.8218 46.1037   1
  -9 -15  -9-22.9090 47.0349   1
  -9 -15 -10 183.301 67.0313   1
   9  15  10 319.374 87.3985   3
   9  15  11 516.113 106.581   3
  -9 -15 -11 452.648 89.9032   1
  10 -13  -8 205.344 83.0788   3
  10 -13  -7 498.384 106.736   3
  10 -13  -6 85.1999 62.3285   3
  10 -13  -5 41.1696 73.2796   3
  10 -13  -4 92.5916 59.0673   3
  10 -13  -3 451.870 101.844   3
  10 -12  -7 422.053 91.5982   3
  10 -12  -6 217.748 77.0948   3
  10 -12  -5 92.0690 55.9115   3
  10 -12  -4 75.8436 51.9237   3
  10 -12  -3 308.155 90.5399   3
  10 -12  -2 374.304 105.156   3
  10 -12  -1 402.248 105.827   3
  10 -12   0 195.868 75.0838   3
  10 -11  -7 599.747 102.610   3
  10 -11  -6 251.560 68.9511   3
  10 -11  -5 356.006 90.0753   3
  10 -11  -4 263.079 84.8617   3
  10 -11  -3 53.3628 62.8514   3
  10 -11  -2 443.715 98.9086   3
  10 -11  -1 154.008 74.2717   3
  10 -11   0 82.4215 60.6347   3
  10 -11   1 167.478 72.2635   3
  10 -11   2 172.107 79.0396   3
  10 -11   3-7.03264 55.2351   3
  10 -10  -6 483.087 91.6040   3
  10 -10  -5 84.7260 48.6259   3
  10 -10  -5 69.5841 54.5898   2
  10 -10  -4 128.787 57.8780   3
  10 -10  -4 55.7502 44.2996   2
  10 -10  -3-7.02297 45.7718   3
  10 -10  -2 79.6533 52.7402   3
  10 -10  -1 52.9673 59.9649   3
  10 -10   0-21.4489 53.1907   3
  10 -10   1 119.980 72.9074   3
  10 -10   2 320.450 90.0738   3
  10 -10   3 903.102 130.938   3
  10 -10   4 295.553 82.6678   3
  10  -9 -11 74.3454 52.8146   1
  10  -9 -10 137.929 62.8900   1
  10  -9  -9 72.4817 43.2922   1
  10  -9  -6 587.008 90.4602   2
  10  -9  -5 477.300 87.1789   3
  10  -9  -5 325.673 71.3677   2
  10  -9  -4 129.162 65.5027   3
  10  -9  -4-14.4385 42.9056   2
  10  -9  -3 18.3673 48.4679   3
  10  -9  -3-17.5446 43.5025   2
  10  -9  -2 181.734 66.9202   3
  10  -9  -1-56.3309 52.8207   3
  10  -9   0 127.039 69.1864   3
  10  -9   1 98.6694 50.6942   3
  10  -9   2 547.725 102.628   3
  10  -9   3 789.180 120.385   3
  10  -9   4 460.636 103.179   3
  10  -9   5 277.304 76.4474   3
  10  -9   6 239.750 79.2318   3
  10  -8 -11 103.336 65.1386   1
  10  -8 -10 103.425 55.3896   1
  10  -8  -9 104.117 47.2487   1
  10  -8  -8 14.2782 35.7353   1
  10  -8  -7 322.974 70.9755   1
  10  -8  -7 347.314 80.0552   2
  10  -8  -6 127.489 48.9201   2
  10  -8  -5 140.006 57.5128   3
  10  -8  -5 116.325 51.6594   2
  10  -8  -4 37.8914 56.7809   3
  10  -8  -4-17.5655 36.9349   2
  10  -8  -3 203.437 64.1566   3
  10  -8  -3 138.234 61.7246   2
  10  -8  -2 49.7727 44.0031   3
  10  -8  -2 19.2365 42.8124   2
  10  -8  -1 343.285 80.5311   3
  10  -8  -1 193.442 57.8419   2
  10  -8   0 61.8963 57.0198   3
  10  -8   1 320.166 80.4438   3
  10  -8   2 512.075 99.8350   3
  10  -8   3 827.709 120.535   3
  10  -8   4 184.945 65.8467   3
  10  -8   5 499.919 96.8376   3
  10  -8   6 123.273 52.0379   3
  10  -8   7 142.393 66.8356   3
 -10   8 -10 30.7982 43.0454   5
 -10   8 -11-49.4249 41.0127   5
 -10   8 -12 50.7031 51.7644   5
  10  -7 -11 266.704 77.9515   1
  10  -7 -10 506.195 98.5570   1
  10  -7  -9 281.910 74.3787   1
  10  -7  -8 106.342 48.1941   1
  10  -7  -8 220.055 62.7498   2
  10  -7  -7 3.60776 32.8150   1
  10  -7  -7 15.5741 31.5240   2
  10  -7  -6 9.04080 33.3363   1
  10  -7  -6-0.80835 35.8912   2
  10  -7  -5-36.0007 38.0293   2
  10  -7  -5 112.526 54.1153   1
  10  -7  -4-39.4061 38.2042   3
  10  -7  -4 38.7131 43.9994   2
  10  -7  -3 147.915 59.5430   3
  10  -7  -3 54.1379 45.8064   2
  10  -7  -2-22.9924 50.4096   3
  10  -7  -2 22.3396 36.7391   2
  10  -7  -1 5.12931 42.8541   3
  10  -7  -1-45.3536 50.6126   2
  10  -7   0 69.9829 54.6569   3
  10  -7   0 41.9632 41.6948   2
  10  -7   1 983.721 120.242   3
  10  -7   2 1392.82 142.796   3
  10  -7   3 619.076 100.919   3
  10  -7   4 632.536 108.066   3
  10  -7   5 310.023 87.6345   3
  10  -7   6 42.7431 47.9499   3
  10  -7   7-0.82730 45.0055   3
  10  -7   8 115.303 65.6190   3
  10  -7   9 245.478 80.8345   3
 -10   7 -11 10.3963 51.9863   5
 -10   7 -12 36.4415 51.5467   5
 -10   7 -13 198.584 66.7731   5
 -10   7 -14 411.511 94.5155   5
 -10   7 -15 279.761 83.6782   5
 -10   7 -16 192.997 75.1012   5
  10  -6 -11-5.93848 46.5363   1
  10  -6 -10 321.082 84.0355   1
  10  -6  -9 95.8294 49.9708   1
  10  -6  -8 141.052 54.4677   2
  10  -6  -8 147.070 55.6328   1
  10  -6  -7 125.081 46.7354   2
  10  -6  -7 270.785 72.0321   1
  10  -6  -6 33.0462 39.6270   1
  10  -6  -6 90.4359 47.3245   2
  10  -6  -5 161.309 53.8580   2
  10  -6  -5 127.191 47.2995   1
  10  -6  -4 163.388 56.9857   3
  10  -6  -4 128.626 43.8444   1
  10  -6  -4 173.284 53.4882   2
  10  -6  -3 212.757 61.5703   3
  10  -6  -3 326.005 74.5668   2
  10  -6  -2 566.591 90.0171   3
  10  -6  -2 495.628 86.7572   2
  10  -6  -1 366.356 85.2209   3
  10  -6  -1 415.080 80.3998   2
  10  -6   0 758.990 107.557   3
  10  -6   0 793.346 104.765   2
  10  -6   1 817.722 106.872   3
  10  -6   1 757.157 103.559   2
  10  -6   2 654.609 98.0311   3
  10  -6   2 666.356 100.346   2
  10  -6   3 463.650 86.9429   3
  10  -6   4 1346.89 143.028   3
  10  -6   5 233.020 72.0532   3
  10  -6   6 11.9873 50.6231   3
  10  -6   7 59.9069 52.8709   3
  10  -6   8 56.7694 54.5395   3
  10  -6   9 125.828 56.2395   3
  10  -6  10 164.003 71.4860   3
 -10   6 -12 433.728 91.8898   5
 -10   6 -13 432.460 100.652   5
 -10   6 -14 189.588 68.2368   5
 -10   6 -15 114.597 60.7118   5
 -10   6 -16 109.575 69.3327   5
  10  -5 -11-73.2117 52.6386   1
  10  -5 -10 154.344 67.3767   1
  10  -5  -9 354.599 81.9241   2
  10  -5  -9 423.765 86.0117   1
  10  -5  -8 231.414 66.2807   2
  10  -5  -8 228.504 69.5273   1
  10  -5  -7 208.642 59.4566   2
  10  -5  -7 204.971 67.5655   1
  10  -5  -6 1.67416 41.8477   1
  10  -5  -6 51.4284 43.3500   2
  10  -5  -5 258.561 63.6411   2
  10  -5  -5 230.833 62.6747   1
  10  -5  -4 231.673 63.2303   1
  10  -5  -4 293.702 73.4477   2
  10  -5  -3 877.853 102.505   3
  10  -5  -3 804.914 103.431   2
  10  -5  -2 1035.81 112.193   3
  10  -5  -2 923.795 110.418   2
  10  -5  -1 943.126 109.624   3
  10  -5  -1 907.392 107.866   2
  10  -5   0 571.817 94.1675   3
  10  -5   0 411.906 78.5701   2
  10  -5   1 2474.06 171.425   3
  10  -5   1 2283.09 167.634   2
  10  -5   2 411.077 79.7791   3
  10  -5   2 445.554 80.8958   2
  10  -5   3 245.917 70.8577   3
  10  -5   3 191.695 60.3967   2
  10  -5   4 1546.71 145.832   3
  10  -5   5 16.1386 45.0988   3
  10  -5   6-16.0365 55.6683   3
  10  -5   7 81.4156 59.2764   3
  10  -5   8 129.863 61.1264   3
  10  -5   9 27.4315 41.2430   3
  10  -5  10 36.8778 42.7887   3
  10  -5  11 507.168 112.824   3
 -10   5 -13 405.473 95.2416   5
 -10   5 -14 388.289 98.8020   5
 -10   5 -15 23.2208 50.4479   5
 -10   5 -16 31.6142 52.5025   5
 -10   5 -17 74.5271 65.9460   5
  10  -4 -11 105.527 63.3380   1
  10  -4 -10 13.6130 42.3643   1
  10  -4 -10-51.0782 49.6778   2
  10  -4  -9 67.1138 54.7074   1
  10  -4  -9 118.998 53.1597   2
  10  -4  -8 206.240 70.1748   1
  10  -4  -8 102.549 47.7591   2
  10  -4  -7 165.145 60.4305   1
  10  -4  -7 250.428 67.8095   2
  10  -4  -6 285.257 77.5784   1
  10  -4  -6 313.304 70.6319   2
  10  -4  -5 723.414 105.353   1
  10  -4  -5 705.630 97.1543   2
  10  -4  -4 848.347 106.001   1
  10  -4  -4 775.769 101.486   2
  10  -4  -3 1072.20 113.535   2
  10  -4  -2 1583.12 132.111   3
  10  -4  -2 2063.03 159.675   2
  10  -4  -1 1213.31 119.952   3
  10  -4  -1 1169.88 121.815   2
  10  -4   0 1075.59 112.700   3
  10  -4   0 1062.20 116.044   2
  10  -4   1 834.423 102.994   3
  10  -4   1 816.072 103.972   2
  10  -4   2 447.317 84.1260   3
  10  -4   2 286.385 61.5720   2
  10  -4   3 916.863 114.011   3
  10  -4   3 800.703 106.775   2
  10  -4   4 383.296 78.6086   3
  10  -4   4 414.011 74.9448   2
  10  -4   5 10.0372 51.4781   3
  10  -4   6 194.800 64.5531   3
  10  -4   7 154.512 55.3265   3
  10  -4   8 133.079 62.8013   3
  10  -4   9-44.5264 46.6503   3
  10  -4  10 190.882 68.4632   3
  10  -4  11 476.512 97.3125   3
 -10   4 -13 511.293 103.515   5
 -10   4 -14 228.254 82.4505   5
 -10   4 -15 45.0608 56.9104   5
 -10   4 -16 88.6386 67.4777   5
 -10   4 -17 55.2290 54.2301   5
 -10   4 -18 44.1769 65.5131   5
  10  -3 -10 1.31415 46.3843   1
  10  -3 -10-11.6219 47.6147   2
  10  -3  -9-72.8527 58.5781   1
  10  -3  -9-12.2043 45.6841   2
  10  -3  -8 95.7305 57.5003   1
  10  -3  -8-6.55910 42.1053   2
  10  -3  -7 32.7408 47.1833   1
  10  -3  -7 12.9939 47.3525   2
  10  -3  -6 109.438 50.7678   1
  10  -3  -6 143.512 57.5207   2
  10  -3  -5 652.421 94.5776   2
  10  -3  -5 582.743 92.4584   1
  10  -3  -4 1063.41 123.464   1
  10  -3  -4 1087.52 119.884   2
  10  -3  -3 1254.32 125.532   2
  10  -3  -2 1196.18 110.383   3
  10  -3  -2 1243.97 125.313   2
  10  -3  -1 571.838 87.1275   3
  10  -3  -1 630.496 91.7573   2
  10  -3   0 550.476 85.3318   3
  10  -3   0 394.800 72.4728   2
  10  -3   1 332.862 60.9409   3
  10  -3   1 329.505 72.4867   2
  10  -3   2 64.7112 39.6339   3
  10  -3   2 116.175 48.4764   2
  10  -3   3 116.139 53.3221   3
  10  -3   3 174.829 61.5054   2
  10  -3   4 59.5002 46.6808   3
  10  -3   4 36.3442 42.2293   2
  10  -3   5 90.6165 52.5883   3
  10  -3   5 91.4767 47.8734   2
  10  -3   6 629.762 95.1697   3
  10  -3   7 1438.75 139.974   3
  10  -3   8 537.850 96.6364   3
  10  -3   9 73.2669 47.5414   3
  10  -3  10 185.367 65.8612   3
  10  -3  11 306.003 73.2669   3
  10  -3  12 188.467 63.5186   3
 -10   3 -14 419.365 98.7072   5
 -10   3 -15 203.490 80.6214   5
 -10   3 -16 5.28616 56.9036   5
 -10   3 -17 33.4965 70.2733   5
 -10   3 -18 1.36042 43.5582   5
  10  -2 -11 6.05696 49.2434   2
  10  -2 -10-35.5551 49.1454   1
  10  -2 -10 9.41366 40.3476   2
  10  -2  -9 23.2782 51.6608   1
  10  -2  -9 48.8852 44.5605   2
  10  -2  -8 86.6301 56.3152   1
  10  -2  -8 16.5455 40.7327   2
  10  -2  -7 181.737 66.3260   1
  10  -2  -7 239.535 69.9364   2
  10  -2  -6 479.597 93.1986   2
  10  -2  -6 484.266 88.7605   1
  10  -2  -5 658.747 101.537   1
  10  -2  -5 647.083 103.016   2
  10  -2  -4 478.949 89.5370   2
  10  -2  -4 276.278 70.5759   1
  10  -2  -3 158.213 53.4607   2
  10  -2  -2 446.009 81.9969   2
  10  -2  -1 930.545 94.7388   3
  10  -2  -1 768.973 97.3021   2
  10  -2   0 918.041 99.1780   3
  10  -2   0 794.874 99.4927   2
  10  -2   1 189.637 55.6350   3
  10  -2   1 206.216 64.2447   2
  10  -2   2 162.257 52.1747   3
  10  -2   2 224.636 61.0836   2
  10  -2   3 165.783 56.9869   3
  10  -2   3 204.139 58.4808   2
  10  -2   4 131.229 62.1468   3
  10  -2   4 66.8512 46.4461   2
 -10   2  -5 279.295 62.5824   1
  10  -2   5 358.956 76.6758   3
  10  -2   5 227.128 61.5774   2
  10  -2   6 1522.41 142.073   3
  10  -2   6 1374.04 135.623   2
  10  -2   7 427.272 82.2770   3
  10  -2   8 146.182 61.1740   3
  10  -2   9 139.699 60.9053   3
  10  -2  10 241.133 73.8073   3
  10  -2  11 408.058 89.5618   3
  10  -2  12 446.814 92.6407   3
  10  -2  13 141.436 65.7645   3
 -10   2 -15 57.5874 54.7067   5
 -10   2 -16 105.299 63.8195   5
 -10   2 -17 72.2540 60.8575   5
 -10   2 -18-103.327 65.0419   5
 -10   2 -19 12.8639 57.9116   5
  10  -1 -11-38.7664 51.3660   2
  10  -1 -10 143.605 58.8840   1
  10  -1 -10 123.724 63.6780   2
  10  -1  -9 110.302 56.7501   1
  10  -1  -9-7.92919 42.8089   2
  10  -1  -8-50.3022 61.0730   1
  10  -1  -8 6.23935 46.3327   2
  10  -1  -7 535.327 96.9327   2
  10  -1  -7 531.700 97.6151   1
  10  -1  -6 102.093 51.1377   2
  10  -1  -6 227.884 66.0556   1
  10  -1  -5 984.089 122.227   1
  10  -1  -5 1255.16 132.193   2
  10  -1  -4 681.340 95.6876   2
  10  -1  -4 870.900 116.985   1
  10  -1  -3 452.194 83.1141   2
  10  -1  -2 161.979 58.8463   2
  10  -1  -1 61.8803 49.1446   2
  10  -1   0-47.3551 39.1579   2
  10  -1   0 4.29461 32.7679   3
  10  -1   1 116.389 46.4088   3
  10  -1   1 120.336 48.8546   2
  10  -1   2 832.200 97.6330   3
  10  -1   2 591.660 88.5060   2
  10  -1   3-0.94734 38.3131   3
  10  -1   3 16.7696 41.3315   2
  10  -1   4 349.101 72.7271   3
  10  -1   4 426.710 79.8829   2
  10  -1   5 7.10500 38.8173   3
 -10   1  -5 55.5884 36.3614   1
  10  -1   5 4.27470 49.7699   2
 -10   1  -6 642.108 83.8350   1
  10  -1   6 474.405 84.7062   3
  10  -1   6 499.451 81.4699   2
  10  -1   7 802.887 109.802   3
  10  -1   7 820.610 104.689   2
  10  -1   8 294.853 76.0451   3
  10  -1   9 524.832 94.8606   3
  10  -1  10 284.659 74.7748   3
  10  -1  11 171.046 70.4780   3
  10  -1  12 412.772 91.4901   3
  10  -1  13 361.334 84.1916   3
 -10   1 -15 31.4579 55.5266   5
 -10   1 -16 131.829 68.9389   5
 -10   1 -17 42.9458 59.1166   5
 -10   1 -18 68.3710 64.8998   5
 -10   1 -19 50.7739 54.3318   5
  10   0 -10 99.2244 65.5508   2
  10   0  -9 97.1722 67.2762   1
  10   0  -9 186.500 69.4367   2
  10   0  -8 84.4158 61.7765   2
  10   0  -8 189.243 65.8898   1
  10   0  -7-36.5378 48.6694   2
  10   0  -7 25.1989 42.7582   1
  10   0  -6 753.926 104.417   2
  10   0  -6 915.621 122.136   1
  10   0  -5 909.978 118.166   1
  10   0  -5 948.164 122.142   2
  10   0  -4 325.490 77.8286   2
  10   0  -3 163.353 59.6031   2
  10   0  -2 234.410 66.6999   2
  10   0  -1 250.054 59.9058   2
  10   0   0 20.4046 38.4645   2
  10   0   0 10.2066 38.5309   3
  10   0   1 147.119 52.7172   2
  10   0   1 137.933 51.7444   3
  10   0   2 40.5632 43.3299   3
  10   0   2 13.7166 34.4670   2
  10   0   3 51.6314 43.3972   3
  10   0   3 30.2184 38.7871   2
  10   0   4 134.929 49.9790   3
  10   0   4 5.14358 39.2203   2
  10   0   5 272.731 65.7124   3
  10   0   5 195.690 56.3200   2
  10   0   6 234.199 70.7318   3
 -10   0  -6 316.996 66.1444   1
  10   0   6 264.537 62.6254   2
 -10   0  -7 377.454 73.7626   1
  10   0   7 380.477 80.2971   3
  10   0   7 354.486 71.4889   2
  10   0   8 150.543 51.8835   3
 -10   0  -8 152.938 44.0171   1
  10   0   9 847.417 112.732   3
  10   0  10 450.101 88.1702   3
  10   0  11 177.846 74.6440   3
  10   0  12 107.397 56.0153   3
  10   0  13 245.829 76.6266   3
  10   0  14 131.932 61.5784   3
 -10   0 -16 196.465 71.9519   5
 -10   0 -17 36.2724 55.2580   5
 -10   0 -18-9.98362 56.3704   5
 -10   0 -19 105.250 80.6197   5
 -10   0 -20 255.596 92.4413   5
  10   1  -9 167.091 71.2672   2
  10   1  -9 80.9096 59.3079   1
  10   1  -8 176.951 70.9468   2
  10   1  -8 86.1747 57.7974   1
  10   1  -7 38.8095 49.5824   2
  10   1  -7 15.6044 42.5659   1
  10   1  -6 58.5401 58.5907   2
  10   1  -6 161.731 66.4784   1
  10   1  -5 396.798 86.9026   2
  10   1  -4 1189.86 129.074   2
  10   1  -3 397.919 82.5055   2
  10   1  -2 281.703 75.7736   2
  10   1  -1 109.445 48.4758   2
  10   1   0 171.166 55.8123   2
  10   1   1 34.1665 42.3877   2
  10   1   1 32.2746 32.6803   3
  10   1   2 42.7577 45.2060   2
  10   1   2 211.279 55.5130   3
  10   1   3 505.456 77.4240   3
  10   1   3 517.358 83.7291   2
  10   1   4 973.715 108.129   3
  10   1   4 904.279 106.120   2
  10   1   5 1882.88 149.183   3
  10   1   5 1827.26 146.222   2
 -10  -1  -6 1049.31 107.486   1
  10   1   6 901.383 110.668   3
  10   1   6 1022.98 113.604   2
  10   1   7 1315.19 128.639   3
  10   1   7 1370.99 128.275   2
 -10  -1  -7 1358.72 125.812   1
  10   1   8 923.653 116.827   3
 -10  -1  -8 1009.14 106.418   1
  10   1   8 771.563 101.381   2
 -10  -1  -9 486.142 79.4782   1
  10   1   9 589.289 101.658   3
 -10  -1 -10 19.0251 37.0889   1
  10   1  10-64.6177 59.3770   3
  10   1  11 45.4331 62.5783   3
  10   1  12 727.328 111.992   3
  10   1  13 62.8096 48.3215   3
  10   1  14-23.0217 47.8447   3
 -10  -1 -16 173.974 73.3581   5
 -10  -1 -17 395.844 105.239   5
 -10  -1 -18 204.142 81.3902   5
 -10  -1 -19 160.299 80.5527   5
 -10  -1 -20 144.952 73.0309   5
  10   2  -8 123.070 72.4851   2
  10   2  -8 245.079 79.5316   1
  10   2  -7 173.576 69.0233   2
  10   2  -7 159.905 67.5244   1
  10   2  -6 559.876 101.465   2
  10   2  -5 251.125 74.7432   2
  10   2  -4 374.142 84.0465   2
  10   2  -3 1314.24 137.826   2
  10   2  -2 15.1805 45.9266   2
  10   2  -1 367.755 71.9299   2
  10   2   0-19.0701 44.6072   2
  10   2   1-50.7470 48.6065   2
  10   2   2 114.921 50.4083   2
  10   2   2 138.706 50.0966   3
  10   2   3-25.5231 36.5484   2
  10   2   3 16.8273 34.4584   3
  10   2   4 1606.41 132.023   3
  10   2   4 1444.28 127.592   2
  10   2   5 2020.46 150.974   3
  10   2   5 1805.91 141.704   2
 -10  -2  -6 1535.27 133.297   1
  10   2   6 1469.16 133.633   3
  10   2   6 1429.88 128.425   2
 -10  -2  -7 968.902 109.320   1
  10   2   7 1141.07 124.355   3
  10   2   7 1026.74 110.946   2
  10   2   8 929.373 115.835   3
 -10  -2  -8 928.917 103.842   1
  10   2   8 977.885 109.447   2
  10   2   9 565.891 97.5075   3
 -10  -2  -9 449.889 83.8505   1
  10   2   9 484.503 80.8471   2
 -10  -2 -10 305.990 67.7666   1
  10   2  10 206.226 64.1491   3
  10   2  11-40.1184 50.2923   3
 -10  -2 -11 51.4054 37.0151   1
  10   2  12 12.0268 44.3734   3
  10   2  13 0.00000 38.9763   3
  10   2  14-31.1325 50.9079   3
  10   2  15 83.8053 60.8267   3
 -10  -2 -16 149.021 72.7887   5
 -10  -2 -17 472.845 103.924   5
 -10  -2 -18 513.019 108.127   5
 -10  -2 -19 130.433 77.8011   5
 -10  -2 -20 8.83387 53.6435   5
 -10  -2 -21 142.891 82.3883   5
  10   3  -8 332.606 86.1886   2
  10   3  -7 265.797 81.0315   2
  10   3  -6 540.307 105.099   2
  10   3  -5 1009.91 129.441   2
  10   3  -4 150.661 64.4113   2
  10   3  -3-8.66950 39.8788   2
  10   3  -2 98.4772 50.2065   2
  10   3  -1 423.764 83.9883   2
  10   3   0 66.1643 51.4699   2
  10   3   1 340.069 70.5038   2
  10   3   2-21.4294 39.3999   2
  10   3   2-30.3124 30.6413   3
  10   3   3 89.0396 46.7062   2
  10   3   3 67.5455 40.4903   3
  10   3   4 1266.17 116.715   3
  10   3   4 1075.40 112.552   2
  10   3   5 2019.81 154.391   3
  10   3   5 2201.79 155.409   2
 -10  -3  -6 1454.31 130.689   1
  10   3   6 1634.31 141.680   3
  10   3   6 1509.13 129.120   2
 -10  -3  -7 432.169 81.6789   1
  10   3   7 490.677 88.2151   3
  10   3   7 445.737 77.5384   2
  10   3   8 713.186 103.348   3
  10   3   8 806.970 98.7352   2
 -10  -3  -8 808.192 103.980   1
  10   3   9 252.731 76.0611   3
 -10  -3  -9 137.641 53.6352   1
  10   3   9 197.921 56.7475   2
 -10  -3 -10 62.1636 44.2549   1
  10   3  10 194.887 70.6381   3
  10   3  10 104.231 50.0393   2
 -10  -3 -11 118.771 56.4441   1
  10   3  11-2.41765 47.2765   3
  10   3  12 64.5096 57.3299   3
 -10  -3 -12-12.2441 39.7056   1
  10   3  13 43.6264 46.8944   3
 -10  -3 -13 64.9271 46.5699   1
  10   3  14 109.010 58.3767   3
  10   3  15 198.242 76.9626   3
 -10  -3 -17 771.662 126.884   5
 -10  -3 -18 316.204 91.2684   5
 -10  -3 -19 60.1565 57.4432   5
 -10  -3 -20 80.0111 62.1559   5
 -10  -3 -21 139.361 79.1137   5
  10   4  -7 463.686 100.743   2
  10   4  -6 521.704 108.070   2
  10   4  -5 247.753 75.7680   2
  10   4  -4 27.5676 51.3264   2
  10   4  -3 92.1450 51.7480   2
  10   4  -2 1370.59 139.869   2
  10   4  -1 131.244 59.8096   2
  10   4   0 93.0919 47.9289   2
  10   4   1 1413.31 133.850   2
  10   4   2-23.1269 36.2342   2
  10   4   3 33.1268 38.7787   2
  10   4   3 6.01359 32.4975   3
  10   4   4 890.329 104.040   3
  10   4   4 758.643 97.7486   2
  10   4   5 1854.27 147.678   3
  10   4   5 1710.32 137.250   2
 -10  -4  -6 1785.34 148.254   1
  10   4   6 1880.55 142.898   2
 -10  -4  -7 379.984 80.5295   1
  10   4   7 328.405 73.5769   3
  10   4   7 495.092 80.2622   2
 -10  -4  -8 79.2879 52.4720   1
  10   4   8 14.4157 47.1795   3
  10   4   8 105.396 48.0067   2
  10   4   9 169.147 66.9747   3
 -10  -4  -9 20.5538 35.4628   1
  10   4   9 132.016 48.2879   2
 -10  -4 -10-62.5669 47.7918   1
  10   4  10 25.2298 55.9560   3
 -10  -4 -11 314.055 70.8711   1
  10   4  11 251.908 79.3210   3
  10   4  12 13.9861 46.8637   3
 -10  -4 -12 98.0415 46.9031   1
  10   4  13 58.2885 53.1132   3
 -10  -4 -13 38.1986 37.5500   1
 -10  -4 -14 10.6264 42.2605   1
  10   4  14-13.2304 49.0900   3
  10   4  15 12.2724 50.4062   3
 -10  -4 -17 944.576 135.233   5
 -10  -4 -18 308.385 88.2272   5
 -10  -4 -19 126.788 63.9969   5
 -10  -4 -20 170.110 80.7232   5
 -10  -4 -21-4.85496 61.9238   5
  10   5  -6 416.886 100.662   2
  10   5  -5 230.867 75.7892   2
  10   5  -4 128.292 63.1815   2
  10   5  -3 135.480 53.4802   2
  10   5  -2 650.333 101.995   2
  10   5  -1 151.475 53.9902   2
  10   5   0 766.383 104.343   2
  10   5   1 753.595 103.206   2
  10   5   2 486.249 85.4978   2
  10   5   3 369.288 73.8338   2
  10   5   4 582.015 89.6985   2
  10   5   4 708.161 93.2524   3
  10   5   5 856.949 100.418   3
  10   5   5 750.327 96.2394   2
 -10  -5  -6 778.753 105.604   1
  10   5   6 665.569 98.8813   3
  10   5   6 673.662 90.9022   2
 -10  -5  -7 464.165 82.7398   1
  10   5   7 550.541 91.7427   3
  10   5   7 441.230 77.5012   2
 -10  -5  -8 0.16401 37.9944   1
  10   5   8-43.2230 48.2831   3
  10   5   8 64.9849 44.5848   2
  10   5   9-42.2996 42.8573   3
 -10  -5  -9 20.5183 38.3529   1
  10   5   9 21.4998 37.0919   2
 -10  -5 -10 89.9212 50.0188   1
  10   5  10 10.5564 43.6796   3
 -10  -5 -11 122.662 57.1759   1
  10   5  11 119.266 56.9444   3
  10   5  12 30.0215 60.2943   3
 -10  -5 -12-24.3498 36.1590   1
  10   5  13 42.0060 49.0025   3
 -10  -5 -13 108.214 56.4950   1
 -10  -5 -14 155.878 61.4776   1
  10   5  14 255.650 79.4285   3
 -10  -5 -15 189.411 62.2285   1
  10   5  15 286.966 93.7470   3
 -10  -5 -16 350.452 80.5810   1
 -10  -5 -17 224.800 73.1177   5
 -10  -5 -18 344.515 92.5126   5
 -10  -5 -19 160.542 73.2105   5
 -10  -5 -20 165.934 82.2737   5
 -10  -5 -21 146.707 73.0667   5
 -10  -5 -22 117.388 79.0194   5
  10   6  -5 72.3052 62.3901   2
  10   6  -4 55.2314 49.2029   2
  10   6  -3 37.1822 41.7199   2
  10   6  -2 418.570 90.6683   2
  10   6  -1 347.590 79.4735   2
  10   6   0 912.401 118.946   2
  10   6   1 841.776 108.750   2
  10   6   2 360.949 73.5420   2
  10   6   3 181.193 60.7010   2
  10   6   4 644.319 88.3743   3
  10   6   4 621.609 92.0401   2
  10   6   5 572.032 84.9863   3
  10   6   5 708.696 97.1167   2
 -10  -6  -6 786.292 110.285   1
  10   6   6 752.201 102.294   3
  10   6   6 681.403 93.4683   2
  10   6   7 259.987 60.3302   2
 -10  -6  -7 313.458 79.9759   1
  10   6   7 303.316 71.7428   3
 -10  -6  -8 62.5859 49.4123   1
  10   6   8 7.16794 51.5412   3
  10   6   8 64.3119 44.0207   2
  10   6   9 15.3674 48.7867   3
 -10  -6  -9 50.7362 50.9904   1
  10   6  10 772.584 114.755   3
 -10  -6 -10 433.067 91.0629   1
 -10  -6 -11 33.1568 45.3744   1
  10   6  11 139.218 71.0311   3
  10   6  12 93.6575 63.3246   3
 -10  -6 -12 8.77166 41.4661   1
  10   6  13 112.857 66.6239   3
 -10  -6 -13 175.148 58.7220   1
 -10  -6 -14 104.933 55.9403   1
  10   6  14 205.444 74.7828   3
 -10  -6 -15 596.754 108.897   1
  10   6  15 616.114 113.020   3
 -10  -6 -16 441.516 91.9276   1
 -10  -6 -18 214.403 74.0338   5
 -10  -6 -19 68.1893 61.4083   5
 -10  -6 -20 71.2738 60.8343   5
 -10  -6 -21 133.807 72.2642   5
 -10  -6 -22 23.0760 50.9673   5
  10   7  -4 48.3289 52.9664   2
  10   7  -3 31.9532 38.1248   2
  10   7  -2 156.192 61.9574   2
  10   7  -1 914.856 126.215   2
  10   7   0 480.344 91.6541   2
  10   7   1 196.729 62.8545   2
  10   7   2 294.366 75.4955   2
  10   7   3 99.8450 51.4394   2
  10   7   4 324.181 79.8095   2
  10   7   5 1082.85 112.563   3
  10   7   5 1277.61 126.483   2
 -10  -7  -6 553.712 89.6813   1
  10   7   6 655.503 97.3238   3
  10   7   6 644.181 90.9504   2
  10   7   7 49.7935 39.3924   2
 -10  -7  -7-27.0790 45.0852   1
  10   7   7-66.7358 49.9821   3
 -10  -7  -8 23.6904 38.7594   1
  10   7   8 12.8217 43.1160   3
  10   7   9 356.819 84.9353   3
 -10  -7  -9 307.529 76.6436   1
  10   7  10 1047.54 131.394   3
 -10  -7 -10 727.049 106.580   1
 -10  -7 -11 375.061 80.6949   1
  10   7  11 380.367 90.6723   3
 -10  -7 -12 107.918 60.8863   1
  10   7  12 157.271 68.9350   3
  10   7  13 120.401 69.2226   3
 -10  -7 -13 225.052 73.9345   1
  10   7  14 179.295 81.0535   3
 -10  -7 -14 138.350 60.0795   1
  10   7  15 826.646 133.119   3
 -10  -7 -15 802.422 123.500   1
 -10  -7 -16 385.788 91.3900   1
 -10  -7 -18 237.119 76.2066   5
 -10  -7 -19 89.7035 62.4841   5
 -10  -7 -20-77.1781 55.9710   5
 -10  -7 -21 36.4664 48.1887   5
 -10  -7 -22 100.320 59.7107   5
  10   8  -3 280.798 85.2977   2
  10   8  -2 423.216 87.5327   2
  10   8  -1 1135.00 137.595   2
  10   8   0 216.668 69.3339   2
  10   8   1 135.382 60.9791   2
  10   8   2 299.024 76.4463   2
  10   8   3 185.290 61.5682   2
  10   8   4 28.8571 46.2186   2
  10   8   5 243.624 64.1181   2
 -10  -8  -6 188.894 64.0802   1
  10   8   6 180.794 53.0196   2
  10   8   6 122.729 46.0586   3
  10   8   7 27.4937 40.4645   3
 -10  -8  -7-19.5800 42.8338   1
 -10  -8  -8 140.048 55.6644   1
  10   8   8 284.243 73.7171   3
  10   8   9 1633.74 161.877   3
 -10  -8  -9 1643.30 155.531   1
  10   8  10 2138.27 181.220   3
 -10  -8 -10 1890.11 166.084   1
 -10  -8 -11 699.894 106.044   1
  10   8  11 684.531 112.935   3
 -10  -8 -12 410.475 82.3667   1
  10   8  12 414.570 94.3915   3
  10   8  13 151.129 67.4729   3
 -10  -8 -13 65.3740 43.1185   1
  10   8  14 232.566 80.3417   3
 -10  -8 -14 112.241 54.5342   1
 -10  -8 -15 578.582 107.666   1
  10   8  15 601.040 116.355   3
 -10  -8 -18-16.9522 38.9442   5
 -10  -8 -19-19.3633 44.1156   5
 -10  -8 -20 26.7565 41.6302   5
 -10  -8 -21 156.868 76.7126   5
 -10  -8 -22 299.100 91.7779   5
 -10  -8 -23-25.6198 53.8167   5
  10   9  -2 986.316 139.452   2
  10   9  -1 475.948 93.1032   2
  10   9   0 200.012 67.0914   2
  10   9   1 32.8112 46.6424   2
  10   9   2-70.9898 41.5063   2
  10   9   3 70.4095 47.6554   2
  10   9   4 181.075 59.8368   2
  10   9   5 338.894 70.7615   2
 -10  -9  -5 394.074 87.9908   1
 -10  -9  -6-23.0926 41.5179   1
  10   9   7 114.106 50.6950   3
 -10  -9  -7 220.721 75.3728   1
 -10  -9  -8 396.369 84.2718   1
  10   9   8 608.421 98.5891   3
  10   9   9 1201.05 134.387   3
 -10  -9  -9 1031.52 131.293   1
  10   9  10 957.133 126.665   3
 -10  -9 -10 843.768 116.805   1
 -10  -9 -11 702.788 106.308   1
  10   9  11 1051.65 136.960   3
 -10  -9 -12 168.803 60.0098   1
  10   9  12 367.402 86.9974   3
  10   9  13 60.4971 60.9728   3
 -10  -9 -13 32.8068 45.6198   1
  10   9  14 403.764 99.2062   3
 -10  -9 -14 362.492 83.6132   1
 -10  -9 -15 190.862 69.6489   1
  10   9  15 359.999 92.0595   3
  10  10  -1 543.589 107.861   2
  10  10   0 182.275 67.1923   2
  10  10   1 120.930 60.4358   2
  10  10   2 101.567 55.7744   2
  10  10   3-17.1567 35.9802   2
  10  10   4 120.680 65.1763   2
 -10 -10  -5 21.9702 42.7656   1
 -10 -10  -6 262.856 74.3227   1
  10  10   7 22.9725 38.4341   3
 -10 -10  -7-31.1834 43.1168   1
 -10 -10  -8 206.797 68.2720   1
  10  10   8 210.489 70.5488   3
  10  10   9 1025.67 127.403   3
 -10 -10  -9 943.836 122.152   1
  10  10  10 1117.10 136.516   3
 -10 -10 -10 1095.46 133.893   1
 -10 -10 -11 719.228 111.794   1
  10  10  11 836.678 123.366   3
 -10 -10 -12 481.138 100.332   1
  10  10  12 508.738 100.507   3
  10  10  13 163.523 65.7004   3
 -10 -10 -13 26.7678 48.1084   1
  10  10  14 153.421 72.3707   3
 -10 -10 -14 199.334 70.8282   1
  10  11   0 272.998 74.8259   2
  10  11   1 92.4566 61.5528   2
  10  11   2 104.181 51.4300   2
  10  11   3 187.342 63.1737   2
 -10 -11  -4 94.4283 55.4794   1
 -10 -11  -5 131.087 62.3954   1
 -10 -11  -6 290.826 85.1384   1
 -10 -11  -7 449.078 91.3102   1
 -10 -11  -8 427.770 90.2013   1
  10  11   8 485.972 92.1729   3
  10  11   9 330.109 79.5486   3
 -10 -11  -9 580.806 97.8901   1
 -10 -11 -10 565.767 101.108   1
  10  11  10 454.450 94.8076   3
 -10 -11 -11 151.246 67.4506   1
  10  11  11 63.0442 52.8166   3
 -10 -11 -12 11.0187 48.5178   1
  10  11  12-8.37733 48.8084   3
  10  11  13 255.532 81.2145   3
 -10 -11 -13 101.995 72.1049   1
  10  11  14 2.05166 64.9824   3
  10  12   2 15.0696 41.0012   2
 -10 -12  -3 119.770 52.4269   1
 -10 -12  -4 164.272 68.5622   1
 -10 -12  -5 206.130 69.8273   1
 -10 -12  -6 50.6593 43.9613   1
 -10 -12  -7 252.966 74.1814   1
 -10 -12  -8 546.795 99.8013   1
  10  12   9 856.770 120.998   3
 -10 -12  -9 774.630 116.173   1
 -10 -12 -10 300.934 69.0720   1
  10  12  10 320.838 81.8043   3
 -10 -12 -11 82.7379 56.5320   1
  10  12  11 21.3914 55.3428   3
 -10 -12 -12-58.6111 49.5149   1
  10  12  12 17.1984 51.1731   3
  10  12  13 0.67581 53.6418   3
 -10 -13  -4 49.8308 48.5589   1
 -10 -13  -5 39.8859 56.8799   1
 -10 -13  -6 153.271 62.3833   1
 -10 -13  -7 129.915 58.1539   1
 -10 -13  -8 228.516 72.3261   1
 -10 -13  -9 618.167 108.704   1
 -10 -13 -10 383.754 90.6420   1
  10  13  10 333.747 92.8424   3
 -10 -13 -11 62.4976 55.2011   1
  10  13  11 55.1199 46.4622   3
  10  13  12 172.490 73.0546   3
 -10 -14  -6 128.332 56.5305   1
 -10 -14  -7 265.823 77.8994   1
 -10 -14  -8 232.568 70.5864   1
  10  14  11-35.8822 50.6318   3
  11 -12  -6-2.93380 48.9904   3
  11 -12  -5 14.6319 53.4813   3
  11 -12  -4 39.2000 49.2567   3
  11 -11  -6-3.00167 43.8672   3
  11 -11  -5 173.585 73.3986   3
  11 -11  -4-18.1883 51.1032   3
  11 -11  -3 124.644 73.2889   3
  11 -11  -2 278.419 89.5796   3
  11 -11  -1 752.186 126.403   3
  11 -10  -5 145.343 72.6130   3
  11 -10  -5 90.9235 52.2843   2
  11 -10  -4 224.317 68.9796   3
  11 -10  -4 206.555 69.8909   2
  11 -10  -3 333.330 96.5224   3
  11 -10  -2 360.405 89.1616   3
  11 -10  -1 381.218 100.999   3
  11 -10   0 552.238 107.855   3
  11 -10   1 508.999 108.168   3
  11 -10   2 394.873 97.0117   3
  11  -9  -6 455.308 85.0730   2
  11  -9  -5 367.380 83.0541   2
  11  -9  -4 53.9494 47.9117   3
  11  -9  -4 145.669 58.9422   2
  11  -9  -3 64.9020 47.1257   3
  11  -9  -3 129.579 58.7788   2
  11  -9  -2 395.957 88.8050   3
  11  -9  -2 226.369 72.0211   2
  11  -9  -1 614.583 115.916   3
  11  -9   0 388.368 90.5442   3
  11  -9   1 191.046 79.3172   3
  11  -9   2 76.5967 65.8488   3
  11  -9   3 120.013 77.6798   3
  11  -9   4 39.1266 59.7578   3
  11  -8 -10 102.272 60.9950   1
  11  -8  -9-63.6390 57.6909   1
  11  -8  -8 125.925 56.0954   1
  11  -8  -7 409.813 84.3578   2
  11  -8  -6 150.647 56.7026   2
  11  -8  -5 161.282 55.3710   2
  11  -8  -4 413.418 90.7561   3
  11  -8  -4 648.899 102.142   2
  11  -8  -3 44.1030 40.7884   3
  11  -8  -3-7.75890 41.5558   2
  11  -8  -2 138.832 59.0262   3
  11  -8  -2 76.9537 62.8354   2
  11  -8  -1 463.385 91.3763   3
  11  -8  -1 388.584 84.8575   2
  11  -8   0 499.875 96.4148   3
  11  -8   1 287.721 81.9438   3
  11  -8   2 290.410 83.1082   3
  11  -8   3 217.993 76.6007   3
  11  -8   4 242.587 79.7825   3
  11  -8   5 349.807 103.042   3
 -11   8 -11 291.589 86.2856   5
  11  -7 -10-4.77939 46.8632   1
  11  -7  -9 152.843 66.2930   1
  11  -7  -8 172.383 66.4583   1
  11  -7  -7 554.867 96.0454   2
  11  -7  -7 430.904 88.5767   1
  11  -7  -6 93.7773 41.8211   2
  11  -7  -6 276.355 72.0383   1
  11  -7  -5-34.5065 44.2025   2
  11  -7  -4 132.762 53.5670   2
  11  -7  -3 307.905 74.2038   3
  11  -7  -3 440.316 93.4768   2
  11  -7  -2 149.598 59.4969   3
  11  -7  -2 142.622 64.2905   2
  11  -7  -1 511.373 95.8951   3
  11  -7  -1 449.481 87.3181   2
  11  -7   0 573.803 98.0549   3
  11  -7   0 634.384 98.9508   2
  11  -7   1 3.62381 48.5101   3
  11  -7   1 17.0761 46.2118   2
  11  -7   2 88.5613 60.5512   3
  11  -7   3 49.1722 53.9535   3
  11  -7   4 504.149 102.512   3
  11  -7   5 307.754 79.2960   3
  11  -7   6 433.542 103.964   3
  11  -7   7 459.489 102.682   3
 -11   7 -12 136.021 63.8315   5
 -11   7 -13 23.7748 47.3785   5
 -11   7 -14-18.3511 46.8108   5
 -11   7 -15 115.153 61.6657   5
  11  -6  -9 260.361 75.0446   1
  11  -6  -8 233.515 62.4966   2
  11  -6  -8 81.5479 38.0760   1
  11  -6  -7 542.264 96.2362   2
  11  -6  -7 499.335 93.4504   1
  11  -6  -6 362.661 80.7892   1
  11  -6  -6 503.767 89.9939   2
  11  -6  -5 61.7205 41.5673   1
  11  -6  -5 63.8709 54.8447   2
  11  -6  -4-32.9546 47.7671   2
  11  -6  -3 154.237 61.8079   3
  11  -6  -3 30.0541 50.2344   2
  11  -6  -2 11.0572 37.9585   3
  11  -6  -2 126.807 58.9095   2
  11  -6  -1 254.809 70.0835   3
  11  -6  -1 193.321 63.0989   2
  11  -6   0 274.491 82.0375   3
  11  -6   0 227.685 71.9634   2
  11  -6   1-17.2556 45.8219   3
  11  -6   1-30.6683 49.7934   2
  11  -6   2 180.919 69.1274   3
  11  -6   2 230.916 75.3238   2
  11  -6   3 251.725 73.2861   3
  11  -6   4 880.403 119.727   3
  11  -6   5 745.072 116.113   3
  11  -6   6 330.266 90.0944   3
  11  -6   7 241.193 83.7170   3
  11  -6   8 432.239 93.2563   3
 -11   6 -12 3.04659 54.5892   5
 -11   6 -13-4.86940 48.3692   5
 -11   6 -14 160.330 71.3424   5
 -11   6 -15 113.497 68.8553   5
 -11   6 -16 17.5238 46.9019   5
  11  -5  -9 232.325 77.1333   1
  11  -5  -9 269.688 73.7679   2
  11  -5  -8 467.540 95.2766   1
  11  -5  -8 530.573 95.4969   2
  11  -5  -7 395.814 79.7976   2
  11  -5  -7 430.881 90.0442   1
  11  -5  -6 832.089 115.673   1
  11  -5  -6 814.593 109.488   2
  11  -5  -5 254.806 70.8572   1
  11  -5  -5 195.808 57.8744   2
  11  -5  -4 23.6589 42.8453   2
  11  -5  -3 204.113 66.0848   2
  11  -5  -2 83.0335 47.2500   3
  11  -5  -2 127.465 51.4072   2
  11  -5  -1 294.874 71.4476   3
  11  -5  -1 340.827 76.3149   2
  11  -5   0 81.6917 53.8623   3
  11  -5   0-28.6483 42.0967   2
  11  -5   1 130.646 60.9407   3
  11  -5   1 128.531 60.8382   2
  11  -5   2 671.919 103.179   3
  11  -5   2 575.206 94.6914   2
  11  -5   3 537.229 99.8138   3
  11  -5   3 509.067 95.6234   2
  11  -5   4 553.204 97.8851   3
  11  -5   5 480.766 97.6826   3
  11  -5   6 345.817 84.4282   3
  11  -5   7 87.2508 47.6251   3
  11  -5   8 396.861 92.1591   3
  11  -5   9 447.609 100.859   3
 -11   5 -13 127.605 67.2231   5
 -11   5 -14 140.192 71.7016   5
 -11   5 -15 190.324 80.0272   5
 -11   5 -16 432.564 106.076   5
  11  -4  -9 187.159 65.5225   1
  11  -4  -9 176.807 67.8298   2
  11  -4  -8 337.710 91.1886   1
  11  -4  -8 271.552 75.4054   2
  11  -4  -7 436.659 86.3902   2
  11  -4  -7 282.018 77.1564   1
  11  -4  -6 739.418 112.555   2
  11  -4  -6 600.680 103.251   1
  11  -4  -5 248.045 72.1397   2
  11  -4  -5 165.065 66.7868   1
  11  -4  -4 43.8454 50.2643   2
  11  -4  -3 51.7326 45.3220   2
  11  -4  -2 2.74277 52.6197   2
  11  -4  -1 86.0647 44.6840   3
  11  -4  -1 20.4899 41.5939   2
  11  -4   0 8.70471 39.5429   3
  11  -4   0 56.6829 45.1936   2
  11  -4   1-73.7896 47.9682   3
  11  -4   1 134.961 62.6834   2
  11  -4   2 204.679 61.9927   3
  11  -4   2 247.406 70.7614   2
  11  -4   3 1222.18 131.713   3
  11  -4   3 883.749 120.560   2
  11  -4   4 1507.91 149.596   3
  11  -4   4 1682.39 160.520   2
  11  -4   5 870.999 119.613   3
  11  -4   6 327.767 81.5789   3
  11  -4   7 211.465 73.9694   3
  11  -4   8 336.174 87.1463   3
  11  -4   9-56.2041 57.9821   3
  11  -4  10 193.790 72.1273   3
 -11   4 -14-24.3067 51.5678   5
 -11   4 -15 172.349 80.5849   5
 -11   4 -16 203.234 78.0180   5
 -11   4 -17 68.1792 54.3858   5
  11  -3 -10 51.7829 51.3020   2
  11  -3  -9 239.287 80.7091   1
  11  -3  -9 377.333 83.1764   2
  11  -3  -8 489.328 93.0055   2
  11  -3  -8 582.449 108.639   1
  11  -3  -7 601.710 106.254   2
  11  -3  -7 576.361 106.186   1
  11  -3  -6 160.418 65.4914   2
  11  -3  -6 104.059 59.6197   1
  11  -3  -5 111.173 61.9715   2
  11  -3  -5 15.6750 46.9530   1
  11  -3  -4 90.9654 52.5096   2
  11  -3  -3 19.4349 44.5283   2
  11  -3  -2 38.4562 43.6850   2
  11  -3  -1 36.8862 37.8517   3
  11  -3  -1 25.4213 50.6069   2
  11  -3   0 36.9794 37.3479   3
  11  -3   0-34.9968 40.3152   2
  11  -3   1 47.3948 49.4194   3
  11  -3   1 103.857 51.3289   2
  11  -3   2 172.276 61.1164   3
  11  -3   2 164.567 59.0125   2
  11  -3   3 2121.15 164.394   3
  11  -3   3 2124.37 170.892   2
  11  -3   4 2507.09 185.589   3
  11  -3   4 2356.88 180.970   2
  11  -3   5 1286.29 137.319   3
  11  -3   5 1195.50 133.733   2
  11  -3   6 148.347 62.2147   3
  11  -3   7 98.2575 59.2990   3
  11  -3   8 304.726 83.9309   3
  11  -3   9 119.755 58.9627   3
  11  -3  10 158.276 72.2592   3
 -11   3 -14 82.5524 66.0905   5
 -11   3 -15 300.690 87.7096   5
 -11   3 -16 151.134 82.7895   5
 -11   3 -17-16.6700 47.5356   5
  11  -2  -9 372.614 89.0576   2
  11  -2  -8 369.251 86.7142   2
  11  -2  -8 329.535 89.2158   1
  11  -2  -7 379.097 84.1291   2
  11  -2  -7 416.639 94.4489   1
  11  -2  -6 338.966 81.3777   2
  11  -2  -6 260.577 81.7059   1
  11  -2  -5 75.8588 53.5776   2
  11  -2  -4 120.045 55.7655   2
  11  -2  -3 269.794 73.8738   2
  11  -2  -2 52.4999 45.7049   2
  11  -2  -1-11.3043 40.4011   2
  11  -2   0 33.9550 39.1612   3
  11  -2   0 211.385 66.5025   2
  11  -2   1 143.298 52.9671   3
  11  -2   1 83.9353 45.6180   2
  11  -2   2 227.493 63.4482   3
  11  -2   2 118.661 54.3712   2
  11  -2   3 1450.73 135.133   3
  11  -2   3 1489.51 141.971   2
  11  -2   4 1476.67 140.974   3
  11  -2   4 1765.47 153.422   2
  11  -2   5 584.709 100.195   3
  11  -2   5 459.892 91.0131   2
  11  -2   6 298.545 82.5511   3
  11  -2   6 269.530 73.7387   2
  11  -2   7 252.758 79.9770   3
  11  -2   8 4.55531 46.5852   3
  11  -2   9-54.7892 59.2969   3
  11  -2  10 139.593 64.2902   3
  11  -2  11 14.5947 54.4303   3
 -11   2 -15 648.525 121.291   5
 -11   2 -16 124.155 72.1638   5
 -11   2 -17 84.9808 58.8069   5
 -11   2 -18 53.4979 51.3177   5
  11  -1  -9 694.443 118.212   2
  11  -1  -8 745.754 122.095   2
  11  -1  -8 716.471 119.235   1
  11  -1  -7 307.323 82.5454   2
  11  -1  -7 366.829 87.6765   1
  11  -1  -6 107.395 54.6726   2
  11  -1  -6 47.2407 48.7077   1
  11  -1  -5 35.7208 45.0627   2
  11  -1  -4 178.386 59.2575   2
  11  -1  -3 342.832 79.4468   2
  11  -1  -2 117.979 47.9796   2
  11  -1  -1 34.1222 39.7216   2
  11  -1   0 160.730 57.8170   2
  11  -1   1 98.4087 42.8830   3
  11  -1   1 106.519 54.2695   2
  11  -1   2 640.658 90.2479   3
  11  -1   2 642.663 95.5737   2
  11  -1   3 674.434 97.4338   3
  11  -1   3 753.778 103.201   2
  11  -1   4 922.433 112.384   3
  11  -1   4 778.733 103.807   2
  11  -1   5 250.267 65.6024   3
  11  -1   5 132.850 62.1988   2
 -11   1  -6 55.0815 40.1759   1
  11  -1   6 20.3417 44.4569   3
  11  -1   6 12.1064 42.2777   2
  11  -1   7 98.8463 47.1448   3
  11  -1   7 68.0878 48.7763   2
  11  -1   8 157.222 66.6549   3
  11  -1   9 101.436 58.4168   3
  11  -1  10 162.209 71.6947   3
  11  -1  11 58.5424 62.4119   3
  11  -1  12 87.1921 62.6102   3
 -11   1 -16 363.448 98.7384   5
 -11   1 -17 92.3168 65.0951   5
 -11   1 -18-86.8969 57.7191   5
 -11   1 -19 173.509 83.1462   5
  11   0  -8 184.848 72.6381   2
  11   0  -7 456.221 102.768   2
  11   0  -7 287.255 81.1603   1
  11   0  -6-56.2156 45.0898   2
  11   0  -5 111.000 56.4925   2
  11   0  -4 219.243 74.1970   2
  11   0  -3 750.903 114.234   2
  11   0  -2 225.915 71.7065   2
  11   0  -1 106.650 56.5399   2
  11   0   0 231.739 68.9134   2
  11   0   1 780.279 94.3506   3
  11   0   1 736.181 106.028   2
  11   0   2 1624.51 135.427   3
  11   0   2 2132.68 165.339   2
  11   0   3 1443.32 134.977   3
  11   0   3 1223.93 129.492   2
  11   0   4 373.702 77.1141   3
  11   0   4 232.932 65.5156   2
  11   0   5-54.1098 49.3535   3
  11   0   5 57.6997 47.7388   2
  11   0   6 52.1525 51.3676   3
 -11   0  -6 150.899 57.7103   1
  11   0   6 84.4683 50.5626   2
  11   0   7 12.0619 51.3864   3
 -11   0  -7 33.3552 32.8124   1
  11   0   7-57.0201 52.0745   2
  11   0   8 46.3988 46.7450   3
  11   0   8-18.2452 48.5593   2
  11   0   9 21.2172 52.3870   3
  11   0  10 52.5518 59.5981   3
  11   0  11 177.590 63.1481   3
  11   0  12 400.543 92.5659   3
 -11   0 -16 188.190 78.9774   5
 -11   0 -17 176.914 82.6521   5
 -11   0 -18 181.761 83.7078   5
 -11   0 -19 113.478 65.6795   5
  11   1  -7 93.4586 53.5097   2
  11   1  -6 46.7481 54.5253   2
  11   1  -5 277.799 82.5792   2
  11   1  -4 418.324 91.5511   2
  11   1  -3 701.975 112.710   2
  11   1  -2 277.938 75.1826   2
  11   1  -1 480.745 91.5426   2
  11   1   0 121.007 54.3378   2
  11   1   1 349.299 79.4728   2
  11   1   2 590.554 91.5854   2
  11   1   2 500.623 81.6209   3
  11   1   3 1023.75 113.598   3
  11   1   3 987.036 116.308   2
  11   1   4 754.133 103.698   3
  11   1   4 706.373 97.9623   2
  11   1   5 73.9227 54.9684   3
  11   1   5 50.8454 45.7576   2
 -11  -1  -6 393.634 76.6233   1
  11   1   6 502.112 94.6324   3
  11   1   6 492.907 86.0479   2
  11   1   7-71.2832 52.0255   3
 -11  -1  -7 26.4856 38.5153   1
  11   1   7 89.8555 56.4511   2
 -11  -1  -8 90.5310 41.5633   1
  11   1   8 32.5989 48.6454   3
  11   1   8 87.3024 51.7835   2
  11   1   9 492.767 96.9898   3
 -11  -1  -9 366.680 73.8208   1
  11   1  10 301.078 87.4443   3
  11   1  11 188.024 73.0900   3
  11   1  12 165.524 66.3308   3
  11   1  13 235.073 84.1527   3
 -11  -1 -17 89.6246 69.5418   5
 -11  -1 -18-56.7775 57.7767   5
 -11  -1 -19 130.767 71.1757   5
 -11  -1 -20-0.28272 58.7571   5
  11   2  -7 58.5132 63.4008   2
  11   2  -6 85.0246 51.1575   2
  11   2  -5 165.167 68.2900   2
  11   2  -4 742.273 116.954   2
  11   2  -3 839.382 119.779   2
  11   2  -2 279.417 78.6616   2
  11   2  -1 627.958 104.608   2
  11   2   0 547.500 93.6703   2
  11   2   1 601.930 93.8793   2
  11   2   2 539.131 91.6770   2
  11   2   3 166.920 54.1129   2
  11   2   3 148.984 55.0650   3
  11   2   4 230.020 66.6671   3
  11   2   4 160.298 60.8443   2
  11   2   5 105.465 48.5151   3
  11   2   5 11.1986 39.4003   2
 -11  -2  -6 700.366 106.332   1
  11   2   6 613.261 99.5568   3
  11   2   6 643.268 91.3857   2
 -11  -2  -7 789.688 109.934   1
  11   2   7 756.230 108.001   3
  11   2   7 812.415 109.222   2
 -11  -2  -8 27.5485 43.5352   1
  11   2   8 51.1255 50.0678   3
  11   2   8 61.5668 51.8326   2
  11   2   9 866.791 119.461   3
 -11  -2  -9 622.956 90.6081   1
  11   2   9 619.406 95.5157   2
 -11  -2 -10 119.460 48.6362   1
  11   2  10 79.8521 61.8486   3
 -11  -2 -11 216.746 62.7509   1
  11   2  11 222.602 85.5766   3
  11   2  12 649.897 114.055   3
  11   2  13 1047.52 142.700   3
 -11  -2 -17 16.6550 54.0041   5
 -11  -2 -18-25.2649 56.4128   5
 -11  -2 -19-30.5327 54.0404   5
 -11  -2 -20-146.794 77.2575   5
  11   3  -6 62.8443 50.2109   2
  11   3  -5 82.8641 53.6945   2
  11   3  -4 679.807 117.426   2
  11   3  -3 403.304 92.2572   2
  11   3  -2 1033.30 133.871   2
  11   3  -1 1156.70 133.016   2
  11   3   0 424.530 80.9402   2
  11   3   1 50.1026 45.1170   2
  11   3   2 302.121 74.6709   2
  11   3   3 310.586 79.1542   2
  11   3   3 332.775 73.3528   3
  11   3   4 173.614 61.9684   2
  11   3   4 126.841 52.6591   3
  11   3   5 119.630 58.6757   3
  11   3   5 96.0661 46.8429   2
 -11  -3  -6 402.093 80.2239   1
  11   3   6 373.165 79.3732   3
  11   3   6 502.646 87.3484   2
 -11  -3  -7 1470.51 145.864   1
  11   3   7 1419.77 143.557   3
  11   3   7 1368.87 134.463   2
  11   3   8 1110.75 134.177   3
  11   3   8 690.391 95.9143   2
 -11  -3  -8 992.505 118.011   1
 -11  -3  -9 617.238 95.3447   1
  11   3   9 500.115 85.4697   2
 -11  -3 -10 141.087 52.2036   1
  11   3  10 244.003 67.4920   2
 -11  -3 -11 194.318 58.7914   1
  11   3  11 278.998 82.6937   3
  11   3  12 412.930 96.9612   3
 -11  -3 -12 310.089 74.5543   1
  11   3  13 866.580 135.081   3
 -11  -3 -17 19.3983 52.1641   5
 -11  -3 -18 119.229 71.4205   5
 -11  -3 -19 33.3630 77.6168   5
 -11  -3 -20 155.708 68.5270   5
  11   4  -5 639.914 110.457   2
  11   4  -4 1121.49 143.348   2
  11   4  -3 431.935 91.4758   2
  11   4  -2 113.701 57.6607   2
  11   4  -1 486.955 95.8368   2
  11   4   0 927.603 120.640   2
  11   4   1 213.785 67.5112   2
  11   4   2 225.788 68.3423   2
  11   4   3 271.292 69.9887   2
  11   4   4 45.1734 48.9295   2
  11   4   4 73.0002 50.7902   3
  11   4   5 32.9138 36.9509   2
  11   4   5 48.6567 46.1923   3
 -11  -4  -6 261.104 71.8175   1
  11   4   6 120.253 57.2527   3
  11   4   6 71.1427 50.9666   2
 -11  -4  -7 1083.41 125.496   1
  11   4   7 1138.83 132.004   3
  11   4   7 1395.16 133.054   2
  11   4   8 1287.56 142.164   3
  11   4   8 1234.45 122.429   2
 -11  -4  -8 1208.06 133.591   1
  11   4   9 219.675 75.3326   3
  11   4   9 187.939 55.8911   2
 -11  -4  -9 280.995 69.9573   1
 -11  -4 -10 150.161 60.0891   1
  11   4  10 382.510 90.5413   3
 -11  -4 -11 354.331 76.6845   1
  11   4  11 551.631 103.210   3
  11   4  12 685.701 116.337   3
 -11  -4 -12 447.736 91.8893   1
  11   4  13 232.871 88.5666   3
 -11  -4 -13 245.438 73.1550   1
 -11  -4 -14 511.469 99.7276   1
 -11  -4 -18 47.9613 56.1288   5
 -11  -4 -19 119.378 60.9699   5
 -11  -4 -20-48.3158 52.0486   5
 -11  -4 -21 210.691 83.6435   5
  11   5  -4 838.661 124.873   2
  11   5  -3 560.106 103.844   2
  11   5  -2 108.680 61.0893   2
  11   5  -1 97.1418 56.7252   2
  11   5   0 278.388 76.3855   2
  11   5   1 98.2379 57.4442   2
  11   5   2 40.7617 39.5896   2
  11   5   3-9.97895 40.4244   2
  11   5   4 251.064 68.3629   2
  11   5   5 516.384 87.0038   2
  11   5   5 385.911 74.9494   3
  11   5   6 364.059 77.7489   2
 -11  -5  -6 541.301 98.8436   1
  11   5   6 387.895 89.1516   3
 -11  -5  -7 727.097 108.806   1
  11   5   7 637.681 102.688   3
  11   5   7 691.991 96.4719   2
  11   5   8 668.526 102.475   3
 -11  -5  -8 684.434 108.238   1
  11   5   8 420.176 79.5705   2
  11   5   9 0.55471 56.3685   3
 -11  -5  -9-24.3626 40.1215   1
  11   5  10 314.970 86.0237   3
 -11  -5 -10 339.637 80.8870   1
  11   5  11 1072.10 138.372   3
 -11  -5 -11 848.475 114.155   1
  11   5  12 397.829 88.8698   3
 -11  -5 -12 312.539 76.1670   1
  11   5  13 282.544 90.2632   3
 -11  -5 -13 205.748 65.8130   1
  11   5  14 66.0235 59.2060   3
 -11  -5 -14 214.608 65.9222   1
 -11  -5 -15-60.6106 53.4595   1
 -11  -5 -18 258.027 82.4710   5
 -11  -5 -19 53.6574 63.6840   5
 -11  -5 -20 26.1721 51.4345   5
 -11  -5 -21 76.9970 58.5835   5
  11   6  -3 546.142 105.931   2
  11   6  -2 101.766 53.1061   2
  11   6  -1 29.6774 39.4285   2
  11   6   0-40.1709 54.2680   2
  11   6   1 74.8560 59.8016   2
  11   6   2 34.3870 42.2742   2
  11   6   3 24.8539 47.8657   2
  11   6   4 151.758 53.5436   2
  11   6   5 1087.45 123.968   3
  11   6   5 1220.93 126.730   2
 -11  -6  -6 633.104 104.791   1
  11   6   6 364.721 75.2874   3
  11   6   6 591.174 93.8899   2
 -11  -6  -7 513.987 99.5616   1
  11   6   7 356.475 78.4744   3
  11   6   7 282.357 66.7839   2
  11   6   8 299.574 83.3198   3
 -11  -6  -8 135.306 53.4848   1
  11   6   8 214.296 58.3549   2
 -11  -6  -9 59.4840 47.4376   1
  11   6   9 111.853 56.3166   3
  11   6  10 180.139 72.7158   3
 -11  -6 -10 194.708 64.1643   1
 -11  -6 -11 581.399 97.8828   1
  11   6  11 495.089 99.1989   3
 -11  -6 -12 36.2237 39.8463   1
  11   6  12 104.558 64.7189   3
  11   6  13 175.209 80.5566   3
 -11  -6 -13 32.5638 34.8608   1
  11   6  14 190.346 71.8955   3
 -11  -6 -14 405.227 86.9317   1
 -11  -6 -18 266.953 87.1989   5
 -11  -6 -19 137.896 71.6290   5
 -11  -6 -20 138.109 78.6398   5
 -11  -6 -21 13.7619 58.0866   5
  11   7  -2 130.584 65.2583   2
  11   7  -1 13.8738 40.5646   2
  11   7   0 127.919 67.2912   2
  11   7   1 30.5854 50.9152   2
  11   7   2 60.9008 51.1697   2
  11   7   3 125.592 61.5071   2
  11   7   4 258.823 71.1612   2
  11   7   5 418.902 76.8845   2
  11   7   6 320.366 68.4753   2
  11   7   6 493.330 91.4723   3
 -11  -7  -6 580.930 101.060   1
  11   7   7 448.594 79.0429   2
 -11  -7  -7 483.903 95.5117   1
  11   7   7 324.309 74.8519   3
 -11  -7  -8 195.299 74.9122   1
  11   7   8 291.177 75.9639   3
 -11  -7  -9 186.449 64.7879   1
  11   7   9 307.689 83.4717   3
  11   7  10 249.305 84.6608   3
 -11  -7 -10 326.824 79.8927   1
 -11  -7 -11 146.831 54.7145   1
  11   7  11 202.586 70.1781   3
 -11  -7 -12 24.4944 43.4014   1
  11   7  12 15.3825 55.9760   3
  11   7  13 40.0304 48.7744   3
 -11  -7 -13 85.1955 54.1088   1
 -11  -7 -14 33.2063 52.4951   1
 -11  -7 -18 8.35543 48.8494   5
 -11  -7 -19 93.1198 60.6895   5
 -11  -7 -20-36.3510 50.0239   5
 -11  -7 -21 50.1579 59.2281   5
 -11  -7 -22 213.247 77.8902   5
  11   8  -1 49.3343 59.0844   2
  11   8   0 129.484 57.9183   2
  11   8   1 152.455 60.8106   2
  11   8   2-8.62836 43.5562   2
  11   8   3 130.570 57.1056   2
  11   8   4 126.134 47.4998   2
  11   8   5 279.666 68.7498   2
  11   8   6 314.725 75.4213   2
 -11  -8  -6 85.3007 55.2143   1
 -11  -8  -7 165.290 69.4670   1
  11   8   7 101.637 47.1824   3
 -11  -8  -8 524.618 103.964   1
  11   8   8 507.686 95.4550   3
 -11  -8  -9-1.77194 35.9921   1
  11   8   9-12.6828 45.5864   3
  11   8  10-28.3014 51.5516   3
 -11  -8 -10-19.3642 36.2537   1
 -11  -8 -11 13.1283 35.3375   1
  11   8  11 56.5717 64.9970   3
 -11  -8 -12-35.6212 43.7768   1
  11   8  12 124.787 67.3526   3
  11   8  13-71.9723 69.8917   3
 -11  -8 -13-6.06059 43.5999   1
 -11  -8 -18 150.504 60.1418   5
 -11  -8 -19-23.5894 50.7845   5
 -11  -8 -20-69.0823 57.4760   5
 -11  -8 -21 34.5375 56.6957   5
 -11  -8 -22 83.5418 65.8655   5
  11   9   0 182.604 72.4142   2
  11   9   1-27.0194 45.4970   2
  11   9   2 89.0556 62.5482   2
  11   9   3 113.395 51.5020   2
  11   9   4 438.082 90.7257   2
  11   9   5 330.425 77.4695   2
 -11  -9  -5 338.809 84.9276   1
 -11  -9  -6 234.955 74.7547   1
 -11  -9  -7 71.7498 54.5330   1
 -11  -9  -8 173.897 67.4745   1
  11   9   8 100.443 52.5737   3
  11   9   9 143.416 64.4294   3
 -11  -9  -9 229.577 79.2013   1
  11   9  10 42.4196 61.2138   3
 -11  -9 -10-12.6420 43.3063   1
 -11  -9 -11 4.37210 44.0131   1
  11   9  11 52.9241 54.2987   3
 -11  -9 -12 14.7604 40.3642   1
  11   9  12-20.2440 51.1531   3
  11   9  13-25.0638 52.2815   3
 -11  -9 -13 100.374 59.2503   1
  11  10   1 328.775 83.1704   2
  11  10   2 160.486 69.5723   2
  11  10   3 293.237 78.5722   2
  11  10   4 858.643 115.646   2
 -11 -10  -5 543.303 99.6980   1
 -11 -10  -6 226.539 82.4423   1
 -11 -10  -7 175.308 69.8021   1
 -11 -10  -8-2.53303 43.9083   1
  11  10   8 87.1101 57.4043   3
  11  10   9 46.5860 50.9705   3
 -11 -10  -9 55.2212 58.3468   1
 -11 -10 -10 27.5688 49.6018   1
  11  10  10-20.7405 47.4699   3
 -11 -10 -11 10.3056 45.9084   1
  11  10  11 37.1205 52.2865   3
 -11 -10 -12 110.237 58.0894   1
  11  10  12 64.8264 52.1925   3
  11  11   2 188.959 59.8005   2
  11  11   3 182.513 65.9610   2
 -11 -11  -4 712.976 112.036   1
 -11 -11  -5 1100.39 141.402   1
 -11 -11  -6 333.845 88.9479   1
 -11 -11  -7 113.093 55.0083   1
 -11 -11  -8 90.7686 61.7402   1
  11  11   9-40.2709 52.6765   3
 -11 -11  -9 50.5640 53.0453   1
 -11 -11 -10 20.3874 49.4326   1
  11  11  10 120.494 63.8783   3
  11  11  11-1.31863 57.3496   3
  11  11  12 25.8416 54.3354   3
 -11 -12  -7 106.016 62.2070   1
  11  12  10 63.4351 50.8962   3
  11  12  11 302.132 87.1686   3
  12 -10  -4 147.409 67.0853   3
  12 -10  -4 192.311 71.8462   2
  12 -10  -3 279.558 84.7861   3
  12 -10  -2-24.3259 50.8559   3
  12  -9  -5 15.8666 41.7888   2
  12  -9  -4-15.8915 40.6479   2
  12  -9  -3 109.079 59.0902   3
  12  -9  -3-11.9506 45.5607   2
  12  -9  -2 27.3520 49.0390   3
  12  -9  -2 39.8081 54.0508   2
  12  -9  -1 412.275 92.8913   3
  12  -9   0 323.373 95.4956   3
  12  -9   1 257.207 80.1514   3
  12  -8  -6 70.4178 56.1046   2
  12  -8  -5 68.1513 47.8378   2
  12  -8  -4-8.31931 40.2032   2
  12  -8  -3 166.564 64.4988   3
  12  -8  -3 101.051 64.7955   2
  12  -8  -2-64.2255 52.4532   3
  12  -8  -2 13.2305 54.9407   2
  12  -8  -1 256.380 79.6192   3
  12  -8  -1 281.135 76.8143   2
  12  -8   0 321.078 85.2373   3
  12  -8   1 655.425 123.000   3
  12  -8   2 156.663 68.2667   3
  12  -8   3 131.745 78.0781   3
  12  -7  -8 37.7672 42.9589   1
  12  -7  -7 62.8428 39.1132   1
  12  -7  -7 70.7905 53.3211   2
  12  -7  -6-11.8117 44.6850   2
  12  -7  -5-6.84905 42.1910   2
  12  -7  -4 60.8780 50.6956   2
  12  -7  -3 201.471 68.6232   2
  12  -7  -2 37.0567 41.8062   3
  12  -7  -2 133.179 60.8238   2
  12  -7  -1 8.56278 38.2239   3
  12  -7  -1 63.6306 50.0309   2
  12  -7   0 543.393 101.729   3
  12  -7   0 522.146 102.244   2
  12  -7   1 814.896 122.558   3
  12  -7   1 609.522 105.634   2
  12  -7   2 322.691 88.0203   3
  12  -7   3-13.1917 58.2010   3
  12  -7   4 210.183 85.5849   3
 -12   7 -12 158.370 71.1369   5
 -12   7 -13 78.1736 57.9465   5
 -12   7 -14 157.114 79.8231   5
  12  -6  -8 128.792 57.1065   2
  12  -6  -7-22.7729 49.1423   1
  12  -6  -7 49.5836 49.0630   2
  12  -6  -6 122.257 58.2667   2
  12  -6  -5 97.4671 58.7370   2
  12  -6  -4 65.0056 49.1957   2
  12  -6  -3 18.2992 55.1260   2
  12  -6  -2 112.639 58.7632   3
  12  -6  -2 91.7271 59.0785   2
  12  -6  -1 205.262 65.2046   3
  12  -6  -1 310.149 87.4928   2
  12  -6   0 630.453 103.148   3
  12  -6   0 714.061 111.645   2
  12  -6   1 419.002 97.9727   3
  12  -6   1 303.960 77.5856   2
  12  -6   2 275.600 74.8315   3
  12  -6   2 183.898 70.6463   2
  12  -6   3 275.422 79.6337   3
  12  -6   4 76.8422 63.4050   3
  12  -6   5 33.5387 62.6337   3
  12  -6   6-58.2358 61.3156   3
 -12   6 -13 217.686 75.8242   5
 -12   6 -14 192.842 78.4467   5
 -12   6 -15 70.0858 59.2414   5
  12  -5  -8 12.1816 44.7862   2
  12  -5  -7 88.3852 52.0704   2
  12  -5  -7 39.8706 49.3348   1
  12  -5  -6 98.6582 57.1274   2
  12  -5  -5 162.451 68.6062   2
  12  -5  -4-10.9298 49.0247   2
  12  -5  -3 272.467 78.2371   2
  12  -5  -2 330.745 81.3080   2
  12  -5  -1 501.267 94.8284   3
  12  -5  -1 466.650 91.7701   2
  12  -5   0 836.611 115.958   3
  12  -5   0 1031.72 131.354   2
  12  -5   1 431.270 90.1762   3
  12  -5   1 600.628 104.567   2
  12  -5   2 387.177 90.2437   3
  12  -5   2 210.081 70.6755   2
  12  -5   3 63.3726 58.3059   3
  12  -5   3 39.1692 51.8854   2
  12  -5   4 96.0483 68.4475   3
  12  -5   5-73.2353 55.6379   3
  12  -5   6 22.0416 51.5810   3
  12  -5   7-149.401 69.1821   3
 -12   5 -14 99.8194 66.4424   5
 -12   5 -15 65.7552 66.0714   5
  12  -4  -8 102.957 59.3547   2
  12  -4  -7 59.6488 44.5726   2
  12  -4  -7 138.650 66.9562   1
  12  -4  -6 308.564 77.4476   2
  12  -4  -5 467.137 97.9856   2
  12  -4  -4 613.317 109.484   2
  12  -4  -3 253.912 76.0993   2
  12  -4  -2 662.792 107.913   2
  12  -4  -1 856.785 116.999   2
  12  -4   0 344.386 78.9428   3
  12  -4   0 411.307 88.7043   2
  12  -4   1 435.775 91.4777   3
  12  -4   1 322.842 81.9752   2
  12  -4   2 306.956 75.7719   3
  12  -4   2 429.380 89.1466   2
  12  -4   3 320.029 82.5899   3
  12  -4   3 361.857 91.1273   2
  12  -4   4-20.2307 50.8589   3
  12  -4   4 14.8491 44.6702   2
  12  -4   5 35.0744 56.5831   3
  12  -4   6-55.6800 59.9348   3
  12  -4   7 49.7427 59.9147   3
  12  -4   8 99.8219 63.7489   3
 -12   4 -14 60.7638 64.5162   5
 -12   4 -15 51.0581 60.8177   5
 -12   4 -16 92.3728 65.6413   5
  12  -3  -7 324.500 88.1053   2
  12  -3  -7 180.498 70.3899   1
  12  -3  -6 324.025 88.9536   2
  12  -3  -5 424.578 90.4493   2
  12  -3  -4 764.432 118.202   2
  12  -3  -3 579.526 106.227   2
  12  -3  -2 1158.55 137.867   2
  12  -3  -1 1092.65 134.158   2
  12  -3   0 456.224 83.3567   3
  12  -3   0 501.605 94.3691   2
  12  -3   1 159.408 57.9897   3
  12  -3   1 147.768 64.3354   2
  12  -3   2 86.4614 55.7205   3
  12  -3   2 68.3365 60.4530   2
  12  -3   3 37.6205 53.6245   3
  12  -3   3 94.0927 62.0110   2
  12  -3   4-60.4569 51.1847   3
  12  -3   4 11.8544 43.3315   2
  12  -3   5 299.219 77.9698   3
  12  -3   5 171.857 62.1674   2
  12  -3   6 206.231 72.3689   3
  12  -3   7 102.503 67.3902   3
  12  -3   8 374.336 88.8821   3
  12  -3   9 836.551 126.790   3
 -12   3 -15-138.519 77.4238   5
 -12   3 -16-28.1065 48.1259   5
 -12   3 -17-10.9800 63.3211   5
  12  -2  -7 255.222 83.5127   2
  12  -2  -6 279.443 86.2873   2
  12  -2  -5 530.110 106.186   2
  12  -2  -4 334.952 82.7726   2
  12  -2  -3 228.457 69.7081   2
  12  -2  -2 638.506 105.816   2
  12  -2  -1 573.758 98.0275   2
  12  -2   0 41.2032 52.0406   2
  12  -2   1 33.2977 32.7189   3
  12  -2   1 29.5925 45.0851   2
  12  -2   2-2.16692 36.2017   3
  12  -2   2 25.5478 58.6840   2
  12  -2   3 15.6349 43.5159   3
  12  -2   3 131.694 59.6854   2
  12  -2   4 377.689 84.8850   3
  12  -2   4 550.658 99.8200   2
  12  -2   5 866.070 119.418   3
  12  -2   5 1210.76 139.472   2
  12  -2   6 324.663 88.3198   3
  12  -2   6 473.187 94.8188   2
  12  -2   7 153.181 74.0331   3
  12  -2   8-16.4423 51.6360   3
  12  -2   9 326.933 88.9352   3
 -12   2 -16 21.9699 46.0307   5
 -12   2 -17-4.07480 50.2583   5
  12  -1  -6 628.186 112.484   2
  12  -1  -5 234.197 72.4849   2
  12  -1  -4 169.537 72.4649   2
  12  -1  -3 103.871 57.8256   2
  12  -1  -2 638.752 104.969   2
  12  -1  -1 216.277 68.2635   2
  12  -1   0 323.998 80.7183   2
  12  -1   1-2.96519 45.4114   2
  12  -1   2 11.3580 34.8657   3
  12  -1   2 26.1023 43.1935   2
  12  -1   3-32.7015 45.8559   3
  12  -1   3 12.1715 44.6679   2
  12  -1   4 425.873 90.2642   3
  12  -1   4 390.782 85.3443   2
  12  -1   5 745.209 108.173   3
 -12   1  -5 623.922 99.6073   1
  12  -1   5 736.830 117.101   2
  12  -1   6 155.917 64.4494   3
  12  -1   6 170.900 61.8130   2
  12  -1   7 274.687 82.6639   3
  12  -1   7 134.881 65.3087   2
  12  -1   8 323.209 90.0274   3
  12  -1   9 232.769 71.3091   3
  12  -1  10 708.280 121.536   3
 -12   1 -16-7.54134 50.5844   5
 -12   1 -17-16.7782 56.6085   5
 -12   1 -18 162.641 77.9799   5
  12   0  -6 473.400 96.6720   2
  12   0  -5 183.311 75.4423   2
  12   0  -4-101.189 60.1343   2
  12   0  -3 182.059 60.2715   2
  12   0  -2 411.274 93.9654   2
  12   0  -1-17.2845 46.8675   2
  12   0   0 2.04243 42.6322   2
  12   0   1 68.0881 53.6831   2
  12   0   2-65.3753 45.0721   3
  12   0   2 36.5021 43.5845   2
  12   0   3 84.5148 51.4987   3
  12   0   3 60.8338 56.2254   2
  12   0   4 276.938 72.9191   3
  12   0   4 193.141 64.7002   2
  12   0   5 430.164 90.0436   3
  12   0   5 436.542 86.4473   2
  12   0   6 118.984 57.8661   3
 -12   0  -6 127.949 57.4280   1
  12   0   6 173.734 58.5061   2
  12   0   7 110.343 61.3436   3
  12   0   7 162.018 58.9643   2
  12   0   8 352.842 88.9286   3
  12   0   8 243.095 68.9025   2
  12   0   9 428.756 101.568   3
  12   0  10 193.329 71.2431   3
 -12   0 -17-20.2516 62.5226   5
 -12   0 -18 130.767 75.1871   5
  12   1  -5 164.746 72.1362   2
  12   1  -4-22.4116 47.1832   2
  12   1  -3 6.00051 53.4412   2
  12   1  -2 35.4685 54.6123   2
  12   1  -1-52.8872 49.2108   2
  12   1   0 107.477 58.8748   2
  12   1   1 79.1668 61.4613   2
  12   1   2 294.564 82.1016   2
  12   1   3 222.980 61.6473   3
  12   1   3 363.582 78.8439   2
  12   1   4 231.652 65.2641   3
  12   1   4 159.020 64.4616   2
  12   1   5 194.811 74.4393   3
  12   1   5 222.456 75.2845   2
 -12  -1  -6 302.891 71.2545   1
  12   1   6 385.144 89.7580   3
  12   1   6 340.163 79.0448   2
  12   1   7 48.0759 59.3015   3
 -12  -1  -7 51.4931 37.1307   1
  12   1   7 42.3483 50.3982   2
 -12  -1  -8 480.633 86.3562   1
  12   1   8 443.902 93.3178   3
  12   1   8 207.133 62.0929   2
  12   1   9 452.267 97.5828   3
  12   1   9 78.9931 40.8274   2
  12   1  10 567.804 112.118   3
  12   1  11 375.709 96.6809   3
 -12  -1 -17 49.0185 64.5881   5
 -12  -1 -18-26.7703 57.1938   5
 -12  -1 -19 259.565 87.9856   5
  12   2  -4 15.6309 47.3773   2
  12   2  -3 2.32883 45.4372   2
  12   2  -2 26.0355 61.4967   2
  12   2  -1 74.6814 61.5871   2
  12   2   0 19.8808 43.1550   2
  12   2   1 62.8986 51.8511   2
  12   2   2 1007.85 124.835   2
  12   2   3 1327.42 145.633   2
  12   2   4 358.974 76.5722   3
  12   2   4 580.000 99.2752   2
  12   2   5 472.176 89.9736   3
  12   2   5 364.803 81.7894   2
 -12  -2  -6 571.563 100.108   1
  12   2   6 292.893 79.9697   3
  12   2   6 457.702 88.3603   2
 -12  -2  -7 126.633 56.9537   1
  12   2   7 121.544 70.3705   3
  12   2   7 35.2360 45.1343   2
 -12  -2  -8 58.8834 36.3851   1
  12   2   8 107.334 53.6205   2
  12   2   9 502.513 97.0660   3
 -12  -2  -9 460.610 87.1002   1
  12   2   9 236.462 67.9468   2
 -12  -2 -10 212.690 59.3407   1
  12   2  10 323.844 89.0252   3
  12   2  11 98.6856 67.3744   3
 -12  -2 -17 81.4807 70.9181   5
 -12  -2 -18 69.2088 65.6042   5
 -12  -2 -19 402.816 110.091   5
  12   3  -4 47.7579 58.5841   2
  12   3  -3 29.1798 56.2957   2
  12   3  -2 8.62443 49.9159   2
  12   3  -1 118.366 60.7036   2
  12   3   0-65.2429 44.5104   2
  12   3   1-9.48264 51.2675   2
  12   3   2 480.838 95.8704   2
  12   3   3 1279.66 140.191   2
  12   3   4 883.483 111.260   3
  12   3   4 794.062 109.041   2
  12   3   5 284.410 71.0443   3
  12   3   5 309.250 73.0023   2
  12   3   6 769.667 111.609   3
  12   3   6 676.814 103.604   2
 -12  -3  -6 701.099 105.172   1
 -12  -3  -7 265.296 71.7802   1
  12   3   7 301.120 77.2598   3
  12   3   7 377.675 80.1017   2
 -12  -3  -8 10.6133 38.7335   1
  12   3   8 27.2868 50.2193   3
  12   3   8 57.6863 46.0792   2
  12   3   9 370.014 84.7216   3
 -12  -3  -9 200.826 62.3957   1
  12   3   9 166.011 57.6333   2
 -12  -3 -10 22.9071 36.8402   1
  12   3  10 95.6079 65.7542   3
  12   3  10-45.4570 47.8142   2
 -12  -3 -11 36.0636 37.3789   1
  12   3  11 34.1190 53.1184   3
 -12  -3 -18 85.3567 61.4732   5
 -12  -3 -19 84.8406 62.3037   5
 -12  -3 -20 199.048 85.3718   5
  12   4  -3 242.888 78.9075   2
  12   4  -2 101.420 57.3868   2
  12   4  -1 17.5897 43.3658   2
  12   4   0 59.6417 51.7978   2
  12   4   1 60.0276 49.7464   2
  12   4   2 306.314 81.9617   2
  12   4   3 1188.78 138.959   2
  12   4   4 1458.41 144.846   2
  12   4   5 184.606 57.9220   3
  12   4   5 323.008 74.5993   2
 -12  -4  -6 128.372 54.8669   1
  12   4   6 24.0375 42.7878   2
 -12  -4  -7 287.335 76.0262   1
  12   4   7 246.942 73.5933   3
  12   4   7 128.998 50.7862   2
  12   4   8 33.3315 64.6139   3
 -12  -4  -8 51.7590 43.4586   1
  12   4   8 53.3782 46.8071   2
  12   4   9 318.460 84.4295   3
  12   4   9 192.967 63.9556   2
 -12  -4  -9 234.854 72.7699   1
  12   4  10-10.3244 52.7456   3
 -12  -4 -10 31.3297 39.2457   1
 -12  -4 -11 26.4277 38.0693   1
  12   4  11 113.370 65.6961   3
  12   4  12 43.1463 56.8943   3
 -12  -4 -12 150.331 54.8419   1
 -12  -4 -13 27.6848 38.8687   1
 -12  -4 -18 85.7481 63.3395   5
 -12  -4 -19 61.6061 73.8385   5
 -12  -4 -20 122.435 75.5038   5
  12   5  -2 182.140 77.4013   2
  12   5  -1 265.682 75.4060   2
  12   5   0 307.723 85.0457   2
  12   5   1 121.469 59.8029   2
  12   5   2 304.741 85.4095   2
  12   5   3 496.644 94.0803   2
  12   5   4 902.559 119.631   2
  12   5   5 321.004 69.9951   2
 -12  -5  -6 60.2257 55.1704   1
  12   5   6 105.590 53.3244   3
  12   5   6 36.9965 34.7893   2
 -12  -5  -7-30.8703 44.7054   1
  12   5   7 51.2915 44.4157   3
  12   5   7-4.96816 34.0547   2
  12   5   8 51.6465 59.2543   3
 -12  -5  -8 38.0823 56.0868   1
  12   5   8 92.5476 56.6829   2
 -12  -5  -9-75.6477 48.6019   1
  12   5   9-30.6038 50.1424   3
  12   5  10 84.8049 73.2681   3
 -12  -5 -10 30.0814 46.0393   1
 -12  -5 -11 14.9460 42.1210   1
  12   5  11 70.8184 57.7812   3
 -12  -5 -12 40.3589 45.8704   1
  12   5  12 194.429 73.1885   3
 -12  -5 -13 147.177 65.3807   1
 -12  -5 -18 33.2202 57.0125   5
 -12  -5 -19 181.454 83.1410   5
 -12  -5 -20 33.8902 53.8117   5
  12   6  -1 159.593 68.1241   2
  12   6   0 100.714 59.9593   2
  12   6   1 82.1279 53.5222   2
  12   6   2 243.571 73.9785   2
  12   6   3 577.745 102.438   2
  12   6   4 679.108 111.065   2
  12   6   5 29.2183 42.4812   2
  12   6   6-41.0316 43.9972   2
 -12  -6  -6 38.5477 43.2606   1
 -12  -6  -7 68.4855 51.3184   1
  12   6   7 55.4821 43.9289   3
  12   6   7 144.550 59.0506   2
  12   6   8-30.7988 46.6269   3
 -12  -6  -8 7.51651 36.2609   1
 -12  -6  -9 54.6715 47.0864   1
  12   6   9-12.0068 46.1955   3
  12   6  10 14.6279 47.5859   3
 -12  -6 -10-8.55662 35.1025   1
 -12  -6 -11 73.9636 49.0448   1
  12   6  11 79.9522 66.6596   3
 -12  -6 -12 202.425 70.3582   1
  12   6  12 213.834 80.4689   3
 -12  -6 -19 45.7384 62.3136   5
 -12  -6 -20-116.168 70.5466   5
  12   7   0 313.977 90.6006   2
  12   7   1 139.706 61.9146   2
  12   7   2 60.3012 41.3931   2
  12   7   3 263.309 79.1959   2
  12   7   4 186.299 68.2313   2
  12   7   5 223.426 70.1118   2
  12   7   6 46.0276 49.4690   2
 -12  -7  -6 23.4970 52.9213   1
 -12  -7  -7-11.0758 53.2202   1
  12   7   7 150.179 69.7123   3
  12   7   8 9.37816 40.1570   3
 -12  -7  -8 20.2368 53.1654   1
 -12  -7  -9 51.5007 50.3136   1
  12   7   9 158.783 63.3863   3
  12   7  10 0.42531 49.5774   3
 -12  -7 -10-12.8055 40.0975   1
 -12  -7 -11 35.8368 48.9520   1
  12   7  11 160.759 69.9202   3
 -12  -7 -12 131.489 76.2843   1
  12   7  12 164.905 65.2957   3
 -12  -7 -19-30.9252 50.8174   5
 -12  -7 -20-55.1845 57.4172   5
 -12  -7 -21 15.5248 51.1626   5
  12   8   1 7.14954 47.4260   2
  12   8   2 217.975 80.8402   2
  12   8   3 386.352 88.2662   2
  12   8   4 128.274 54.8187   2
  12   8   5 0.00000 54.3201   2
 -12  -8  -5 50.6487 54.3561   1
 -12  -8  -6 32.2620 57.9316   1
  12   8   6 61.5253 55.9230   2
 -12  -8  -7 356.946 92.4650   1
 -12  -8  -8 314.411 87.6566   1
  12   8   8 243.844 74.0147   3
 -12  -8  -9 261.539 76.0899   1
  12   8   9 143.056 64.2963   3
  12   8  10 333.401 89.8049   3
 -12  -8 -10 250.824 75.2125   1
 -12  -8 -11 97.4682 57.8471   1
  12   8  11 135.210 72.4796   3
 -12  -8 -19 142.299 72.2564   5
 -12  -8 -20 8.35694 52.8113   5
 -12  -8 -21 54.7216 49.9703   5
  12   9   3 5.96622 43.1898   2
  12   9   4 107.315 50.0236   2
  12   9   5 84.6168 57.2175   2
 -12  -9  -5-53.5317 55.5854   1
 -12  -9  -6 248.048 83.1409   1
 -12  -9  -7 392.069 97.2080   1
 -12  -9  -8 440.011 98.0014   1
  12   9   9 562.805 110.994   3
 -12  -9  -9 761.271 118.948   1
  12   9  10 725.482 119.644   3
  12   9  11 71.3507 59.7063   3
  12  10   4 24.1482 40.0532   2
  12  10  10 831.685 127.888   3
  13  -8  -2 299.944 87.7198   3
  13  -7  -1 164.318 79.3448   3
  13  -7   0 88.6109 56.7979   3
  13  -7   1 34.9642 62.3778   3
 -13   7 -13-3.13120 47.7851   5
  13  -6  -3 367.901 88.1215   2
  13  -6  -2 255.117 73.1490   2
  13  -6  -1 325.680 87.5633   2
  13  -6   0 93.2362 57.4058   3
  13  -6   0 172.597 66.8374   2
  13  -6   1 192.708 70.8103   3
  13  -6   1 277.154 86.7537   2
  13  -6   2 96.8666 66.3437   3
  13  -6   3 258.008 81.4969   3
 -13   6 -13 78.2179 60.9296   5
 -13   6 -14 115.823 74.7190   5
  13  -5  -4 321.155 89.6492   2
  13  -5  -3 290.470 84.2334   2
  13  -5  -2 137.168 68.0057   2
  13  -5  -1-61.7558 44.4614   2
  13  -5   0 203.826 68.9733   3
  13  -5   0 148.327 65.2874   2
  13  -5   1 592.649 103.975   3
  13  -5   1 683.126 118.507   2
  13  -5   2 128.415 61.6161   3
  13  -5   2 84.4370 64.9651   2
  13  -5   3 321.897 87.0775   3
  13  -5   3 158.170 69.9890   2
  13  -5   4 318.333 91.1515   3
 -13   5 -14 307.917 95.8995   5
  13  -4  -4-20.9198 46.6198   2
  13  -4  -3 44.5294 51.8815   2
  13  -4  -2 58.6760 57.6016   2
  13  -4  -1 116.253 67.8874   2
  13  -4   0 475.528 91.1608   2
  13  -4   1 579.837 104.779   3
  13  -4   1 607.658 104.700   2
  13  -4   2 233.072 66.5046   3
  13  -4   2 280.055 81.0585   2
  13  -4   3 182.058 73.9417   3
  13  -4   3 44.2409 45.2234   2
  13  -4   4 298.926 82.1015   3
  13  -4   4 225.935 82.2142   2
  13  -4   5 249.140 75.8231   3
 -13   4 -15 361.017 100.084   5
  13  -3  -4 155.987 68.8937   2
  13  -3  -3 76.6355 65.1978   2
  13  -3  -2 64.9479 66.0295   2
  13  -3  -1 108.609 58.8497   2
  13  -3   0 181.603 75.7750   2
  13  -3   1 831.077 114.172   3
  13  -3   1 774.265 123.289   2
  13  -3   2 842.588 121.874   3
  13  -3   2 981.221 133.911   2
  13  -3   3 591.865 101.800   3
  13  -3   3 710.117 112.788   2
  13  -3   4 385.432 92.5878   3
  13  -3   4 482.133 96.5188   2
  13  -3   5 53.1284 53.6131   3
  13  -3   5 109.204 55.9836   2
  13  -3   6-20.9624 54.0429   3
 -13   3 -15 197.070 78.2774   5
 -13   3 -16 105.660 67.6194   5
  13  -2  -3-13.4351 47.5245   2
  13  -2  -2 105.987 64.9597   2
  13  -2  -1-27.8414 54.2325   2
  13  -2   0 152.083 74.8542   2
  13  -2   1 418.213 91.8545   2
  13  -2   2 966.270 122.602   3
  13  -2   2 904.368 124.194   2
  13  -2   3 344.953 80.0784   3
  13  -2   3 516.976 99.0075   2
  13  -2   4 471.094 93.4915   3
  13  -2   4 526.449 101.549   2
  13  -2   5 73.6160 72.8570   3
  13  -2   5 48.6991 48.8261   2
  13  -2   6 124.346 69.9726   3
  13  -2   6 61.1199 59.0224   2
  13  -2   7 141.060 69.3025   3
 -13   2 -16 70.9499 62.7226   5
  13  -1  -3 151.500 65.4091   2
  13  -1  -2 232.461 82.1185   2
  13  -1  -1 179.502 76.4975   2
  13  -1   0 206.498 72.6195   2
  13  -1   1 406.613 92.9838   2
  13  -1   2 354.110 83.1787   2
  13  -1   3 360.022 85.6236   3
  13  -1   3 320.097 83.0141   2
  13  -1   4 50.4250 38.9231   3
  13  -1   4 29.7721 37.4367   2
  13  -1   5 0.39888 47.3036   3
  13  -1   5 26.6122 38.3830   2
  13  -1   6 49.9474 53.7273   3
  13  -1   6 104.616 52.6775   2
  13  -1   7 254.975 79.2449   3
  13  -1   7 121.715 61.0106   2
  13  -1   8 134.475 69.8231   3
 -13   1 -16 8.69364 55.6727   5
 -13   1 -17 183.745 83.2676   5
  13   0  -3 55.2326 45.2442   2
  13   0  -2 86.2329 52.2948   2
  13   0  -1 222.253 74.3549   2
  13   0   0 602.963 108.882   2
  13   0   1 707.906 115.267   2
  13   0   2 174.239 62.3869   2
  13   0   3 233.077 70.3264   3
  13   0   3 89.2155 54.7712   2
  13   0   4-45.7344 47.8404   3
  13   0   4 32.4585 38.9099   2
  13   0   5 31.0021 36.5842   3
 -13   0  -5 128.937 58.9369   1
  13   0   5 117.756 55.5004   2
  13   0   6-19.8232 47.6991   3
  13   0   6 92.3739 47.8587   2
  13   0   7 16.6175 55.3278   3
  13   0   7-10.0256 37.3952   2
  13   0   8 36.4883 56.8105   3
  13   0   8 35.1407 55.3657   2
 -13   0 -17 226.801 85.1691   5
  13   1  -2 89.2300 60.6856   2
  13   1  -1 308.954 89.5955   2
  13   1   0 797.578 122.044   2
  13   1   1 734.762 121.403   2
  13   1   2 415.249 92.0516   2
  13   1   3 109.504 57.9142   2
  13   1   4 52.5961 50.8589   3
  13   1   4-4.07484 38.9415   2
  13   1   5-0.38227 38.2269   3
  13   1   5 52.4042 48.9509   2
 -13  -1  -6 42.7848 47.9352   1
  13   1   6 0.80842 37.8088   2
  13   1   7 30.2464 52.8202   3
 -13  -1  -7 181.501 63.7692   1
  13   1   7 55.6480 42.9091   2
  13   1   8-13.7924 65.4314   3
  13   1   8 0.63400 44.3313   2
  13   1   9 402.613 94.2278   3
  13   1   9 472.459 96.0795   2
 -13  -1 -17 33.3474 58.7569   5
 -13  -1 -18-7.52957 51.2386   5
  13   2  -1 354.310 93.7156   2
  13   2   0 446.261 92.3907   2
  13   2   1 224.252 68.7323   2
  13   2   2 258.992 73.6565   2
  13   2   3 34.8514 39.5150   2
  13   2   4 14.2907 39.7460   2
  13   2   5 45.7782 47.8191   3
  13   2   5 62.2347 48.9040   2
 -13  -2  -6 56.4096 50.5365   1
  13   2   6 83.1353 46.3556   3
  13   2   6 11.2066 35.8379   2
  13   2   7 187.724 72.7884   3
  13   2   7 79.0422 53.5127   2
 -13  -2  -7 99.8212 56.0201   1
 -13  -2  -8 8.22843 43.8242   1
  13   2   8 84.3213 53.2912   3
  13   2   9 484.570 109.478   3
 -13  -2  -9 454.333 89.7077   1
  13   2   9 427.086 97.1885   2
 -13  -2 -18-43.6386 67.0773   5
  13   3   0 133.377 71.0677   2
  13   3   1 220.281 78.9909   2
  13   3   2 236.617 79.4577   2
  13   3   3 9.17490 44.8273   2
  13   3   4 68.3726 43.6062   2
  13   3   5 616.953 101.584   3
  13   3   5 356.959 80.9367   2
 -13  -3  -6 197.107 68.2883   1
  13   3   6 255.874 78.1190   3
  13   3   6 184.799 61.6384   2
 -13  -3  -7 165.452 64.5128   1
  13   3   7 86.6420 52.6116   3
  13   3   7 219.383 75.3903   2
 -13  -3  -8 489.840 96.5263   1
  13   3   8 421.110 93.6608   3
  13   3   8 428.203 91.7654   2
  13   3   9 629.150 109.668   3
  13   3   9 411.051 87.5765   2
 -13  -3  -9 417.016 88.5046   1
 -13  -3 -10 221.848 65.9005   1
 -13  -3 -18-52.9793 61.5477   5
  13   4   0 95.3894 60.8638   2
  13   4   1 48.3816 45.9656   2
  13   4   2 30.3148 47.5404   2
  13   4   3-15.9466 42.1847   2
  13   4   4 36.4487 37.7323   2
  13   4   5 644.775 106.211   2
  13   4   6 847.467 122.344   3
 -13  -4  -6 512.821 98.2151   1
  13   4   6 881.634 122.170   2
 -13  -4  -7 145.723 64.7221   1
  13   4   7 208.062 66.9058   3
  13   4   7 227.145 68.8811   2
  13   4   8 491.387 98.8324   3
 -13  -4  -8 408.341 88.1782   1
  13   4   8 513.862 98.9849   2
  13   4   9 272.580 89.0157   3
 -13  -4  -9 377.676 86.9367   1
 -13  -4 -10 445.633 97.8773   1
 -13  -4 -11 288.533 77.0353   1
 -13  -4 -18 19.8014 51.0447   5
 -13  -4 -19 64.4992 61.8021   5
  13   5   1-68.5027 59.5598   2
  13   5   2-29.2145 55.9225   2
  13   5   3-25.8594 50.6451   2
  13   5   4 203.388 68.5108   2
  13   5   5 636.774 105.626   2
 -13  -5  -6 368.993 91.5984   1
  13   5   6 497.667 98.7214   2
 -13  -5  -7 223.862 85.2048   1
  13   5   7 18.6795 49.5050   3
  13   5   7 125.755 59.7071   2
  13   5   8 82.9052 56.6575   3
 -13  -5  -8 125.174 60.1243   1
  13   5   8 201.818 72.7489   2
 -13  -5  -9 430.816 101.011   1
  13   5   9 482.288 103.489   3
 -13  -5 -10 273.007 82.8003   1
 -13  -5 -19-31.6814 52.9129   5
  13   6   2 125.763 67.2214   2
  13   6   3 271.513 85.4251   2
  13   6   4 616.506 109.421   2
  13   6   5 302.938 86.6079   2
 -13  -6  -6 159.424 73.3858   1
  13   6   6 194.716 72.5000   2
 -13  -6  -7 5.11628 48.4285   1
  13   6   7 147.071 57.4441   2
  13   6   8 143.337 65.0620   3
 -13  -6  -8 95.6996 54.8624   1
  13   6   9 129.321 64.0918   3
 -13  -6 -19 72.9775 56.1136   5
  13   7   4 684.735 115.277   2
  13   7   5 389.430 90.5183   2
  13   7   6 117.863 60.8255   2
  13   7   8 254.653 79.8582   3
  13   7   9 97.8313 62.7238   3
 -13  -7 -19 151.186 68.8699   5
 -13  -7 -20 7.83283 49.3264   5
  13   8   5 333.334 86.0232   2
  13   8   9 72.7448 67.5471   3
 -13  -8 -19 199.765 79.9179   5
 -13  -8 -20 309.806 96.5558   5
  14  -4   2 98.6892 55.2315   3
  14  -3   3-54.9257 52.9493   3
  14  -2   3 177.567 67.4723   3
  14  -2   4 35.7503 44.3057   3
  14  -1   4 350.412 88.4225   3
  14  -1   5 147.976 61.6024   3
  14   0   5 229.733 76.5203   3
  14   1   5 20.1957 46.4787   3
 -14  -1  -5 22.0691 40.9177   1
  14   1   6 216.482 76.0224   3
 -14  -1  -6 351.309 90.0372   1
  14   2   6 75.0835 65.9079   3
 -14  -2  -6 27.9190 43.4724   1
  14   3   7 158.100 60.9018   3
  14   4   7 10.2163 42.7867   3
   0   0   0    0.00    0.00   0
;
_shelx_hkl_checksum              74776
loop_
_space_group_symop_operation_xyz
'x, y, z'
'-x, -y, -z'
loop_
_atom_site_label
_atom_site_type_symbol
_atom_site_fract_x
_atom_site_fract_y
_atom_site_fract_z
_atom_site_U_iso_or_equiv
_atom_site_adp_type
_atom_site_occupancy
_atom_site_site_symmetry_order
_atom_site_calc_flag
_atom_site_refinement_flags_posn
_atom_site_refinement_flags_adp
_atom_site_refinement_flags_occupancy
_atom_site_disorder_assembly
_atom_site_disorder_group
Pd1 Pd 0.23073(3) 0.45907(2) 0.46271(2) 0.02590(11) Uani 1 1 d . . . . .
N22 N 0.1859(3) 0.5914(2) 0.4706(2) 0.0254(7) Uani 1 1 d . . . . .
N24 N 0.2726(3) 0.3343(2) 0.4409(2) 0.0263(7) Uani 1 1 d . . . . .
S23 S 0.08549(9) 0.49274(7) 0.36000(7) 0.0255(2) Uani 1 1 d . . . . .
C1 C 0.4004(4) 0.3239(3) 0.6094(3) 0.0315(9) Uani 1 1 d . . . . .
C2 C 0.4658(4) 0.3227(3) 0.6907(3) 0.0367(10) Uani 1 1 d . . . . .
C2A C 0.5404(5) 0.2510(4) 0.7554(4) 0.0550(14) Uani 1 1 d . . . . .
H2A H 0.5574 0.1889 0.7523 0.066 Uiso 1 1 calc R U . A 1
C3 C 0.4403(4) 0.4130(3) 0.6972(3) 0.0346(10) Uani 1 1 d . . . . .
C3A C 0.4954(4) 0.4357(4) 0.7641(3) 0.0475(13) Uani 1 1 d . . . . .
H3A H 0.4834 0.4991 0.7655 0.057 Uiso 1 1 calc R U . B 1
C4 C 0.3536(4) 0.4713(3) 0.6240(3) 0.0299(9) Uani 1 1 d . . . . .
C5 C 0.2878(4) 0.5561(3) 0.6195(3) 0.0286(9) Uani 1 1 d . . . . .
C5A C 0.2964(4) 0.5919(3) 0.6962(3) 0.0321(9) Uani 1 1 d . . . . .
C5B C 0.2278(4) 0.5381(3) 0.7935(3) 0.0317(9) Uani 1 1 d . . . . .
H5B H 0.1737 0.4792 0.8105 0.038 Uiso 1 1 calc R U . . .
C5C C 0.2366(4) 0.5686(3) 0.8665(3) 0.0382(10) Uani 1 1 d . . . . .
H5C H 0.1897 0.5304 0.9330 0.046 Uiso 1 1 calc R U . . .
C5D C 0.3137(4) 0.6549(3) 0.8420(3) 0.0407(11) Uani 1 1 d . . . . .
H5D H 0.3191 0.6769 0.8913 0.049 Uiso 1 1 calc R U . . .
C5E C 0.3827(5) 0.7089(4) 0.7460(4) 0.0475(12) Uani 1 1 d . . . . .
H5E H 0.4366 0.7678 0.7295 0.057 Uiso 1 1 calc R U . . .
C5F C 0.3744(4) 0.6780(4) 0.6732(3) 0.0443(12) Uani 1 1 d . . . . .
H5F H 0.4224 0.7160 0.6071 0.053 Uiso 1 1 calc R U . . .
C6 C 0.2082(4) 0.6098(3) 0.5488(3) 0.0268(9) Uani 1 1 d . . . . .
C7 C 0.1419(4) 0.6968(3) 0.5438(3) 0.0301(9) Uani 1 1 d . . . . .
H7 H 0.1398 0.7245 0.5896 0.036 Uiso 1 1 calc R U . . .
C8 C 0.0826(4) 0.7326(3) 0.4620(3) 0.0302(9) Uani 1 1 d . . . . .
H8 H 0.0316 0.7901 0.4401 0.036 Uiso 1 1 calc R U . . .
C9 C 0.1100(4) 0.6689(3) 0.4145(3) 0.0253(8) Uani 1 1 d . . . . .
C10 C 0.0695(4) 0.6904(3) 0.3214(3) 0.0261(8) Uani 1 1 d . . . . .
C10A C 0.0228(4) 0.7934(3) 0.2582(3) 0.0283(9) Uani 1 1 d . . . . .
C10B C 0.0950(4) 0.8853(3) 0.2276(3) 0.0305(9) Uani 1 1 d . . . . .
H10B H 0.1741 0.8835 0.2500 0.037 Uiso 1 1 calc R U . . .
C10C C 0.0512(4) 0.9790(3) 0.1647(3) 0.0326(10) Uani 1 1 d . . . . .
H10C H 0.1003 1.0410 0.1453 0.039 Uiso 1 1 calc R U . . .
C10D C -0.0633(4) 0.9840(3) 0.1294(3) 0.0332(10) Uani 1 1 d . . . . .
C10E C -0.1336(4) 0.8932(3) 0.1593(3) 0.0303(9) Uani 1 1 d . . . . .
H10E H -0.2116 0.8951 0.1353 0.036 Uiso 1 1 calc R U . . .
C10F C -0.0921(4) 0.7985(3) 0.2241(3) 0.0283(9) Uani 1 1 d . . . . .
H10F H -0.1430 0.7369 0.2452 0.034 Uiso 1 1 calc R U . . .
C11 C 0.0737(3) 0.6219(3) 0.2817(3) 0.0240(8) Uani 1 1 d . . . . .
C12 C 0.0767(3) 0.6363(3) 0.1823(3) 0.0264(8) Uani 1 1 d . . . . .
H12 H 0.0591 0.6995 0.1282 0.032 Uiso 1 1 calc R U . . .
C13 C 0.1071(4) 0.5511(3) 0.1707(3) 0.0282(9) Uani 1 1 d . . . . .
H13 H 0.1122 0.5498 0.1081 0.034 Uiso 1 1 calc R U . . .
C14 C 0.1304(4) 0.4645(3) 0.2614(3) 0.0263(9) Uani 1 1 d . . . . .
C15 C 0.1863(3) 0.3731(3) 0.2791(3) 0.0265(9) Uani 1 1 d . . . . .
C15A C 0.1967(4) 0.3431(3) 0.1967(3) 0.0291(9) Uani 1 1 d . . . . .
C15B C 0.0888(4) 0.3349(3) 0.1586(3) 0.0328(9) Uani 1 1 d . . . . .
H15B H 0.0081 0.3479 0.1856 0.039 Uiso 1 1 calc R U . . .
C15C C 0.0973(4) 0.3078(3) 0.0813(3) 0.0364(10) Uani 1 1 d . . . . .
H15C H 0.0225 0.3030 0.0561 0.044 Uiso 1 1 calc R U . . .
C15D C 0.2131(4) 0.2878(3) 0.0406(3) 0.0352(10) Uani 1 1 d . . . . .
C15E C 0.3212(4) 0.2982(3) 0.0769(3) 0.0368(10) Uani 1 1 d . . . . .
H15E H 0.4019 0.2865 0.0487 0.044 Uiso 1 1 calc R U . . .
C15F C 0.3135(4) 0.3253(3) 0.1542(3) 0.0338(10) Uani 1 1 d . . . . .
H15F H 0.3888 0.3318 0.1781 0.041 Uiso 1 1 calc R U . . .
C16 C 0.2390(4) 0.3100(3) 0.3679(3) 0.0277(9) Uani 1 1 d . . . . .
C17 C 0.2753(4) 0.2089(3) 0.3902(3) 0.0352(10) Uani 1 1 d . . . . .
H17 H 0.2623 0.1735 0.3531 0.042 Uiso 1 1 calc R U . . .
C18 C 0.3315(4) 0.1722(3) 0.4737(3) 0.0370(10) Uani 1 1 d . . . . .
H18 H 0.3647 0.1065 0.5057 0.044 Uiso 1 1 calc R U . . .
C19 C 0.3316(4) 0.2504(3) 0.5048(3) 0.0289(9) Uani 1 1 d . . . . .
C20 C 0.3939(4) 0.2453(3) 0.5825(3) 0.0325(10) Uani 1 1 d . . . . .
C20A C 0.4585(4) 0.1468(3) 0.6345(3) 0.0346(10) Uani 1 1 d . . . . .
C20B C 0.3894(4) 0.0569(3) 0.7058(3) 0.0349(10) Uani 1 1 d . . . . .
H20B H 0.2996 0.0566 0.7229 0.042 Uiso 1 1 calc R U . . .
C20C C 0.4503(5) -0.0333(3) 0.7528(3) 0.0441(11) Uani 1 1 d . . . . .
H20C H 0.4023 -0.0946 0.8029 0.053 Uiso 1 1 calc R U . . .
C20D C 0.5798(4) -0.0341(3) 0.7270(3) 0.0408(11) Uani 1 1 d . . . . .
H20D H 0.6211 -0.0961 0.7589 0.049 Uiso 1 1 calc R U . . .
C20E C 0.6494(4) 0.0548(4) 0.6551(3) 0.0479(12) Uani 1 1 d . . . . .
H20E H 0.7389 0.0546 0.6370 0.057 Uiso 1 1 calc R U . . .
C20F C 0.5884(4) 0.1449(4) 0.6092(4) 0.0501(13) Uani 1 1 d . . . . .
H20F H 0.6367 0.2063 0.5595 0.060 Uiso 1 1 calc R U . . .
C21 C 0.3386(3) 0.4172(3) 0.5697(3) 0.0264(9) Uani 1 1 d . . . . .
C22 C -0.1093(5) 1.0865(3) 0.0585(3) 0.0432(11) Uani 1 1 d . . . . .
H22A H -0.0648 1.1424 0.0621 0.065 Uiso 1 1 calc R U . . .
H22B H -0.2013 1.0869 0.0785 0.065 Uiso 1 1 calc R U . . .
H22C H -0.0916 1.0963 -0.0109 0.065 Uiso 1 1 calc R U . . .
C23 C 0.2238(5) 0.2571(3) -0.0421(3) 0.0440(11) Uani 1 1 d . . . . .
H23A H 0.2930 0.2997 -0.0969 0.066 Uiso 1 1 calc R U . . .
H23B H 0.1433 0.2673 -0.0684 0.066 Uiso 1 1 calc R U . . .
H23C H 0.2421 0.1844 -0.0148 0.066 Uiso 1 1 calc R U . . .
C2B1 C 0.5890(5) 0.2722(5) 0.8241(4) 0.0651(17) Uani 0.434(8) 1 d . . P C 1
C3B1 C 0.5681(4) 0.3624(5) 0.8279(3) 0.0583(16) Uani 0.434(8) 1 d . . P C 1
H3B1 H 0.6039 0.3752 0.8752 0.070 Uiso 0.434(8) 1 calc R U P C 1
C24 C 0.6409(10) 0.2091(8) 0.9144(8) 0.041(3) Uani 0.434(8) 1 d . . P C 1
H24 H 0.6580 0.1427 0.9215 0.049 Uiso 0.434(8) 1 calc R U P C 1
O24 O 0.6683(7) 0.2211(8) 0.9845(5) 0.041(2) Uani 0.434(8) 1 d . . P C 1
C2B2 C 0.5890(5) 0.2722(5) 0.8241(4) 0.0651(17) Uani 0.566(8) 1 d . . P C 2
H2B2 H 0.6379 0.2232 0.8694 0.078 Uiso 0.566(8) 1 calc R U P C 2
C3B2 C 0.5681(4) 0.3624(5) 0.8279(3) 0.0583(16) Uani 0.566(8) 1 d . . P C 2
C25 C 0.6129(7) 0.3619(6) 0.9104(5) 0.035(2) Uani 0.566(8) 1 d . . P C 2
H25 H 0.6060 0.4246 0.9141 0.041 Uiso 0.566(8) 1 calc R U P C 2
O25 O 0.6601(5) 0.2928(7) 0.9795(4) 0.0432(18) Uani 0.566(8) 1 d . . P C 2
C26 C 0.8531(8) 0.1117(6) 0.3123(6) 0.0462(17) Uani 0.807(5) 1 d . . P D 3
H26A H 0.8533 0.1106 0.2481 0.069 Uiso 0.807(5) 1 calc R U P D 3
H26B H 0.8745 0.1822 0.2989 0.069 Uiso 0.807(5) 1 calc R U P D 3
H26C H 0.7683 0.0877 0.3539 0.069 Uiso 0.807(5) 1 calc R U P D 3
C27 C 0.9511(9) 0.0413(8) 0.3681(7) 0.047(2) Uani 0.807(5) 1 d . . P D 3
H27A H 0.9306 -0.0292 0.3792 0.057 Uiso 0.807(5) 1 calc R U P D 3
H27B H 1.0362 0.0655 0.3251 0.057 Uiso 0.807(5) 1 calc R U P D 3
C28 C 0.9567(5) 0.0373(4) 0.4691(4) 0.0426(15) Uani 0.807(5) 1 d . . P D 3
H28A H 0.9842 0.1070 0.4568 0.051 Uiso 0.807(5) 1 calc R U P D 3
H28B H 0.8695 0.0196 0.5090 0.051 Uiso 0.807(5) 1 calc R U P D 3
C29 C 0.899(4) 0.012(3) 0.378(3) 0.041(9) Uani 0.193(5) 1 d . . P D 4
H29A H 0.8977 -0.0160 0.3301 0.049 Uiso 0.193(5) 1 calc R U P D 4
H29B H 0.8765 -0.0453 0.4475 0.049 Uiso 0.193(5) 1 calc R U P D 4
Cl1 Cl 0.7866(10) 0.1025(9) 0.3576(12) 0.097(5) Uani 0.193(5) 1 d . . P D 4
Cl2 Cl 1.0527(8) 0.0673(6) 0.3613(5) 0.058(3) Uani 0.193(5) 1 d . . P D 4
Cl3 Cl 0.6117(2) -0.0234(2) 0.95032(17) 0.0749(7) Uani 0.64 1 d D . P . .
C30 C 0.5484(8) 0.0140(12) 1.0380(10) 0.055(4) Uani 0.32 1 d D . P . .
H30A H 0.5689 -0.0360 1.1046 0.066 Uiso 0.32 1 calc R U P . .
H30B H 0.5901 0.0819 1.0196 0.066 Uiso 0.32 1 calc R U P . .
loop_
_atom_site_aniso_label
_atom_site_aniso_U_11
_atom_site_aniso_U_22
_atom_site_aniso_U_33
_atom_site_aniso_U_23
_atom_site_aniso_U_13
_atom_site_aniso_U_12
Pd1 0.02709(18) 0.02288(17) 0.02383(17) -0.00715(12) -0.00627(12) 0.00141(12)
N22 0.0231(17) 0.0248(17) 0.0241(16) -0.0076(14) -0.0054(13) -0.0019(13)
N24 0.0235(17) 0.0230(17) 0.0248(17) -0.0052(14) -0.0032(14) 0.0030(14)
S23 0.0273(5) 0.0204(5) 0.0262(5) -0.0085(4) -0.0062(4) 0.0016(4)
C1 0.024(2) 0.033(2) 0.027(2) -0.0047(18) -0.0049(17) 0.0017(18)
C2 0.028(2) 0.040(3) 0.030(2) -0.0050(19) -0.0086(18) -0.0001(19)
C2A 0.051(3) 0.049(3) 0.046(3) -0.001(2) -0.027(2) 0.006(2)
C3 0.020(2) 0.051(3) 0.023(2) -0.0092(19) -0.0060(17) 0.0006(19)
C3A 0.024(2) 0.087(4) 0.030(2) -0.027(2) -0.0028(19) 0.002(2)
C4 0.023(2) 0.036(2) 0.023(2) -0.0082(18) -0.0022(16) -0.0046(18)
C5 0.023(2) 0.034(2) 0.025(2) -0.0122(17) -0.0012(16) -0.0050(17)
C5A 0.029(2) 0.035(2) 0.032(2) -0.0147(19) -0.0095(18) -0.0028(18)
C5B 0.028(2) 0.033(2) 0.036(2) -0.0167(19) -0.0065(18) 0.0016(18)
C5C 0.040(3) 0.043(3) 0.035(2) -0.019(2) -0.012(2) 0.009(2)
C5D 0.044(3) 0.044(3) 0.047(3) -0.027(2) -0.024(2) 0.013(2)
C5E 0.054(3) 0.039(3) 0.051(3) -0.017(2) -0.028(3) -0.005(2)
C5F 0.046(3) 0.045(3) 0.036(2) -0.014(2) -0.008(2) -0.015(2)
C6 0.026(2) 0.028(2) 0.026(2) -0.0124(17) -0.0019(17) -0.0062(17)
C7 0.036(2) 0.025(2) 0.028(2) -0.0114(17) -0.0057(18) -0.0039(18)
C8 0.032(2) 0.025(2) 0.032(2) -0.0128(18) -0.0047(18) -0.0010(18)
C9 0.026(2) 0.0184(19) 0.029(2) -0.0092(16) -0.0041(16) -0.0008(16)
C10 0.024(2) 0.022(2) 0.026(2) -0.0072(16) -0.0029(16) 0.0009(16)
C10A 0.035(2) 0.023(2) 0.027(2) -0.0121(17) -0.0040(17) 0.0048(17)
C10B 0.036(2) 0.024(2) 0.028(2) -0.0095(17) -0.0023(18) -0.0025(18)
C10C 0.045(3) 0.020(2) 0.028(2) -0.0092(17) 0.0016(19) -0.0001(18)
C10D 0.050(3) 0.027(2) 0.023(2) -0.0132(17) -0.0016(19) 0.008(2)
C10E 0.038(2) 0.029(2) 0.026(2) -0.0142(18) -0.0091(18) 0.0096(18)
C10F 0.035(2) 0.023(2) 0.027(2) -0.0124(17) -0.0036(17) 0.0021(17)
C11 0.024(2) 0.0177(19) 0.028(2) -0.0083(16) -0.0063(16) 0.0017(16)
C12 0.027(2) 0.022(2) 0.029(2) -0.0095(16) -0.0091(17) 0.0037(16)
C13 0.032(2) 0.028(2) 0.027(2) -0.0126(17) -0.0089(17) 0.0014(17)
C14 0.028(2) 0.022(2) 0.031(2) -0.0125(17) -0.0076(17) -0.0018(16)
C15 0.024(2) 0.022(2) 0.033(2) -0.0122(17) -0.0067(17) 0.0001(16)
C15A 0.036(2) 0.020(2) 0.032(2) -0.0121(17) -0.0082(18) 0.0025(17)
C15B 0.036(2) 0.027(2) 0.036(2) -0.0145(18) -0.0106(19) 0.0041(18)
C15C 0.044(3) 0.028(2) 0.038(2) -0.0133(19) -0.014(2) -0.002(2)
C15D 0.053(3) 0.019(2) 0.030(2) -0.0072(17) -0.010(2) 0.0018(19)
C15E 0.043(3) 0.030(2) 0.036(2) -0.0136(19) -0.011(2) 0.013(2)
C15F 0.038(2) 0.031(2) 0.036(2) -0.0166(19) -0.0132(19) 0.0090(19)
C16 0.031(2) 0.020(2) 0.030(2) -0.0093(17) -0.0055(17) 0.0019(17)
C17 0.043(3) 0.026(2) 0.032(2) -0.0103(18) -0.0072(19) 0.0069(19)
C18 0.043(3) 0.023(2) 0.035(2) -0.0048(18) -0.006(2) 0.0092(19)
C19 0.030(2) 0.021(2) 0.026(2) -0.0036(16) -0.0013(17) 0.0024(17)
C20 0.027(2) 0.028(2) 0.029(2) -0.0035(18) -0.0021(17) 0.0020(18)
C20A 0.034(2) 0.031(2) 0.028(2) -0.0056(18) -0.0053(18) 0.0058(19)
C20B 0.033(2) 0.033(2) 0.033(2) -0.0113(19) -0.0037(19) 0.0057(19)
C20C 0.051(3) 0.027(2) 0.040(3) -0.006(2) -0.002(2) 0.002(2)
C20D 0.047(3) 0.030(2) 0.042(3) -0.014(2) -0.011(2) 0.014(2)
C20E 0.036(3) 0.053(3) 0.047(3) -0.015(2) -0.010(2) 0.014(2)
C20F 0.030(3) 0.041(3) 0.050(3) 0.003(2) -0.006(2) 0.004(2)
C21 0.022(2) 0.026(2) 0.0214(19) -0.0042(16) -0.0010(16) -0.0027(16)
C22 0.063(3) 0.027(2) 0.034(2) -0.0102(19) -0.005(2) 0.012(2)
C23 0.065(3) 0.032(2) 0.038(3) -0.018(2) -0.011(2) 0.003(2)
C2B1 0.042(3) 0.077(4) 0.043(3) 0.005(3) -0.022(2) -0.008(3)
C3B1 0.024(3) 0.115(5) 0.020(2) -0.018(3) -0.0037(19) -0.007(3)
C24 0.043(6) 0.040(6) 0.040(6) -0.015(5) -0.020(5) 0.027(5)
O24 0.045(5) 0.054(6) 0.029(4) -0.020(4) -0.016(3) 0.013(4)
C2B2 0.042(3) 0.077(4) 0.043(3) 0.005(3) -0.022(2) -0.008(3)
C3B2 0.024(3) 0.115(5) 0.020(2) -0.018(3) -0.0037(19) -0.007(3)
C25 0.028(4) 0.053(5) 0.036(4) -0.033(4) 0.000(3) 0.001(4)
O25 0.045(4) 0.063(5) 0.033(3) -0.029(3) -0.017(3) 0.018(3)
C26 0.054(5) 0.041(4) 0.051(4) -0.024(3) -0.023(4) 0.006(4)
C27 0.050(8) 0.053(6) 0.051(4) -0.032(4) -0.019(5) 0.010(5)
C28 0.040(3) 0.048(4) 0.052(4) -0.034(3) -0.002(3) -0.001(3)
C29 0.06(3) 0.04(2) 0.056(19) -0.038(16) -0.03(2) 0.016(17)
Cl1 0.057(7) 0.081(7) 0.194(15) -0.090(9) -0.055(7) 0.029(6)
Cl2 0.052(5) 0.062(5) 0.055(4) -0.021(3) -0.014(3) -0.006(4)
Cl3 0.0793(16) 0.0912(18) 0.0579(13) -0.0395(13) -0.0069(12) 0.0107(13)
C30 0.038(9) 0.083(12) 0.032(8) -0.016(8) -0.009(7) -0.013(8)
loop_
_atom_type_symbol
_atom_type_description
_atom_type_scat_dispersion_real
_atom_type_scat_dispersion_imag
_atom_type_scat_source
C C 0.0033 0.0016 'International Tables Vol C Tables 4.2.6.8 and 6.1.1.4'
H H 0.0000 0.0000 'International Tables Vol C Tables 4.2.6.8 and 6.1.1.4'
N N 0.0061 0.0033 'International Tables Vol C Tables 4.2.6.8 and 6.1.1.4'
O O 0.0106 0.0060 'International Tables Vol C Tables 4.2.6.8 and 6.1.1.4'
Cl Cl 0.1484 0.1585 'International Tables Vol C Tables 4.2.6.8 and 6.1.1.4'
S S 0.1246 0.1234 'International Tables Vol C Tables 4.2.6.8 and 6.1.1.4'
Pd Pd -0.9988 1.0072 'International Tables Vol C Tables 4.2.6.8 and 6.1.1.4'
loop_
_geom_angle_atom_site_label_1
_geom_angle_atom_site_label_2
_geom_angle_atom_site_label_3
_geom_angle
_geom_angle_site_symmetry_1
_geom_angle_site_symmetry_3
C21 Pd1 N24 92.20(15) . .
C21 Pd1 N22 92.67(14) . .
N24 Pd1 N22 174.54(12) . .
C21 Pd1 S23 171.67(11) . .
N24 Pd1 S23 87.87(9) . .
N22 Pd1 S23 87.66(9) . .
C6 N22 C9 106.3(3) . .
C6 N22 Pd1 123.4(2) . .
C9 N22 Pd1 129.3(2) . .
C19 N24 C16 106.1(3) . .
C19 N24 Pd1 124.6(3) . .
C16 N24 Pd1 129.0(2) . .
C11 S23 C14 94.15(18) . .
C11 S23 Pd1 114.58(13) . .
C14 S23 Pd1 114.03(13) . .
C20 C1 C21 126.5(4) . .
C20 C1 C2 126.7(4) . .
C21 C1 C2 106.7(4) . .
C3 C2 C2A 119.8(4) . .
C3 C2 C1 107.8(4) . .
C2A C2 C1 132.4(5) . .
C2B1 C2A C2 118.9(5) . .
C2B1 C2A H2A 120.6 . .
C2 C2A H2A 120.6 . .
C2 C3 C3A 120.6(4) . .
C2 C3 C4 108.2(4) . .
C3A C3 C4 131.3(4) . .
C3B1 C3A C3 117.9(5) . .
C3B1 C3A H3A 121.0 . .
C3 C3A H3A 121.0 . .
C5 C4 C21 126.7(4) . .
C5 C4 C3 126.0(4) . .
C21 C4 C3 106.8(4) . .
C6 C5 C4 124.4(4) . .
C6 C5 C5A 115.8(3) . .
C4 C5 C5A 119.8(3) . .
C5B C5A C5F 118.2(4) . .
C5B C5A C5 120.4(4) . .
C5F C5A C5 121.4(4) . .
C5C C5B C5A 121.3(4) . .
C5C C5B H5B 119.3 . .
C5A C5B H5B 119.3 . .
C5D C5C C5B 119.7(4) . .
C5D C5C H5C 120.2 . .
C5B C5C H5C 120.2 . .
C5E C5D C5C 119.8(4) . .
C5E C5D H5D 120.1 . .
C5C C5D H5D 120.1 . .
C5D C5E C5F 120.5(4) . .
C5D C5E H5E 119.7 . .
C5F C5E H5E 119.7 . .
C5E C5F C5A 120.5(4) . .
C5E C5F H5F 119.7 . .
C5A C5F H5F 119.7 . .
N22 C6 C5 126.3(4) . .
N22 C6 C7 109.3(3) . .
C5 C6 C7 124.3(3) . .
C8 C7 C6 107.5(3) . .
C8 C7 H7 126.2 . .
C6 C7 H7 126.2 . .
C7 C8 C9 108.1(4) . .
C7 C8 H8 126.0 . .
C9 C8 H8 126.0 . .
N22 C9 C10 128.9(3) . .
N22 C9 C8 108.7(3) . .
C10 C9 C8 122.3(3) . .
C11 C10 C9 124.3(3) . .
C11 C10 C10A 115.7(3) . .
C9 C10 C10A 120.0(3) . .
C10F C10A C10B 118.6(4) . .
C10F C10A C10 119.4(3) . .
C10B C10A C10 121.9(4) . .
C10C C10B C10A 120.1(4) . .
C10C C10B H10B 120.0 . .
C10A C10B H10B 120.0 . .
C10B C10C C10D 121.3(4) . .
C10B C10C H10C 119.4 . .
C10D C10C H10C 119.4 . .
C10E C10D C10C 118.3(4) . .
C10E C10D C22 120.5(4) . .
C10C C10D C22 121.1(4) . .
C10D C10E C10F 121.1(4) . .
C10D C10E H10E 119.5 . .
C10F C10E H10E 119.5 . .
C10A C10F C10E 120.6(4) . .
C10A C10F H10F 119.7 . .
C10E C10F H10F 119.7 . .
C10 C11 C12 132.5(3) . .
C10 C11 S23 119.3(3) . .
C12 C11 S23 108.1(3) . .
C13 C12 C11 114.2(3) . .
C13 C12 H12 122.9 . .
C11 C12 H12 122.9 . .
C12 C13 C14 113.7(3) . .
C12 C13 H13 123.1 . .
C14 C13 H13 123.1 . .
C15 C14 C13 132.1(4) . .
C15 C14 S23 120.0(3) . .
C13 C14 S23 107.7(3) . .
C14 C15 C16 124.1(4) . .
C14 C15 C15A 116.9(3) . .
C16 C15 C15A 118.9(3) . .
C15F C15A C15B 118.1(4) . .
C15F C15A C15 121.5(3) . .
C15B C15A C15 120.3(4) . .
C15C C15B C15A 120.9(4) . .
C15C C15B H15B 119.6 . .
C15A C15B H15B 119.6 . .
C15D C15C C15B 121.0(4) . .
C15D C15C H15C 119.5 . .
C15B C15C H15C 119.5 . .
C15C C15D C15E 118.2(4) . .
C15C C15D C23 121.8(4) . .
C15E C15D C23 120.1(4) . .
C15D C15E C15F 121.1(4) . .
C15D C15E H15E 119.4 . .
C15F C15E H15E 119.4 . .
C15A C15F C15E 120.6(4) . .
C15A C15F H15F 119.7 . .
C15E C15F H15F 119.7 . .
N24 C16 C17 108.9(3) . .
N24 C16 C15 129.3(3) . .
C17 C16 C15 121.6(4) . .
C18 C17 C16 107.9(4) . .
C18 C17 H17 126.0 . .
C16 C17 H17 126.0 . .
C17 C18 C19 107.6(4) . .
C17 C18 H18 126.2 . .
C19 C18 H18 126.2 . .
N24 C19 C20 125.9(4) . .
N24 C19 C18 109.5(3) . .
C20 C19 C18 124.4(4) . .
C1 C20 C19 124.6(4) . .
C1 C20 C20A 121.4(4) . .
C19 C20 C20A 114.0(4) . .
C20B C20A C20F 118.9(4) . .
C20B C20A C20 121.1(4) . .
C20F C20A C20 120.1(4) . .
C20A C20B C20C 120.3(4) . .
C20A C20B H20B 119.8 . .
C20C C20B H20B 119.8 . .
C20D C20C C20B 120.3(4) . .
C20D C20C H20C 119.9 . .
C20B C20C H20C 119.9 . .
C20C C20D C20E 119.9(4) . .
C20C C20D H20D 120.1 . .
C20E C20D H20D 120.1 . .
C20D C20E C20F 119.7(4) . .
C20D C20E H20E 120.2 . .
C20F C20E H20E 120.2 . .
C20A C20F C20E 121.0(4) . .
C20A C20F H20F 119.5 . .
C20E C20F H20F 119.5 . .
C4 C21 C1 110.3(3) . .
C4 C21 Pd1 124.5(3) . .
C1 C21 Pd1 124.9(3) . .
C10D C22 H22A 109.5 . .
C10D C22 H22B 109.5 . .
H22A C22 H22B 109.5 . .
C10D C22 H22C 109.5 . .
H22A C22 H22C 109.5 . .
H22B C22 H22C 109.5 . .
C15D C23 H23A 109.5 . .
C15D C23 H23B 109.5 . .
H23A C23 H23B 109.5 . .
C15D C23 H23C 109.5 . .
H23A C23 H23C 109.5 . .
H23B C23 H23C 109.5 . .
C3B1 C2B1 C2A 121.3(5) . .
C3B1 C2B1 C24 104.3(6) . .
C2A C2B1 C24 133.1(7) . .
C2B1 C3B1 C3A 121.3(5) . .
C2B1 C3B1 H3B1 119.3 . .
C3A C3B1 H3B1 119.3 . .
O24 C24 C2B1 135.0(10) . .
O24 C24 H24 112.5 . .
C2B1 C24 H24 112.5 . .
O25 C25 H25 114.8 . .
C27 C26 H26A 109.5 . .
C27 C26 H26B 109.5 . .
H26A C26 H26B 109.5 . .
C27 C26 H26C 109.5 . .
H26A C26 H26C 109.5 . .
H26B C26 H26C 109.5 . .
C28 C27 C26 113.2(7) . .
C28 C27 H27A 108.9 . .
C26 C27 H27A 108.9 . .
C28 C27 H27B 108.9 . .
C26 C27 H27B 108.9 . .
H27A C27 H27B 107.7 . .
C28 C28 C27 115.4(7) 2_756 .
C28 C28 H28A 108.4 2_756 .
C27 C28 H28A 108.4 . .
C28 C28 H28B 108.4 2_756 .
C27 C28 H28B 108.4 . .
H28A C28 H28B 107.5 . .
Cl1 C29 Cl2 111.1(19) . .
Cl1 C29 H29A 109.4 . .
Cl2 C29 H29A 109.4 . .
Cl1 C29 H29B 109.4 . .
Cl2 C29 H29B 109.4 . .
H29A C29 H29B 108.0 . .
C30 Cl3 C30 65.2(8) 2_657 .
Cl3 C30 Cl3 114.8(8) 2_657 .
Cl3 C30 C30 57.7(4) 2_657 2_657
Cl3 C30 C30 57.1(4) . 2_657
Cl3 C30 H30A 108.6 2_657 .
Cl3 C30 H30A 108.6 . .
C30 C30 H30A 126.2 2_657 .
Cl3 C30 H30B 108.6 2_657 .
Cl3 C30 H30B 108.6 . .
C30 C30 H30B 126.2 2_657 .
H30A C30 H30B 107.5 . .
loop_
_geom_bond_atom_site_label_1
_geom_bond_atom_site_label_2
_geom_bond_distance
_geom_bond_site_symmetry_2
Pd1 C21 1.986(4) .
Pd1 N24 2.043(3) .
Pd1 N22 2.051(3) .
Pd1 S23 2.2474(13) .
N22 C6 1.386(5) .
N22 C9 1.400(5) .
N24 C19 1.382(5) .
N24 C16 1.402(5) .
S23 C11 1.723(4) .
S23 C14 1.727(4) .
C1 C20 1.398(6) .
C1 C21 1.418(5) .
C1 C2 1.496(6) .
C2 C3 1.397(6) .
C2 C2A 1.400(6) .
C2A C2B1 1.383(8) .
C2A H2A 0.9500 .
C3 C3A 1.407(6) .
C3 C4 1.491(5) .
C3A C3B1 1.390(7) .
C3A H3A 0.9500 .
C4 C5 1.403(6) .
C4 C21 1.409(5) .
C5 C6 1.400(5) .
C5 C5A 1.495(5) .
C5A C5B 1.388(5) .
C5A C5F 1.390(6) .
C5B C5C 1.388(5) .
C5B H5B 0.9500 .
C5C C5D 1.380(6) .
C5C H5C 0.9500 .
C5D C5E 1.376(6) .
C5D H5D 0.9500 .
C5E C5F 1.389(6) .
C5E H5E 0.9500 .
C5F H5F 0.9500 .
C6 C7 1.431(5) .
C7 C8 1.354(5) .
C7 H7 0.9500 .
C8 C9 1.428(5) .
C8 H8 0.9500 .
C9 C10 1.428(5) .
C10 C11 1.390(5) .
C10 C10A 1.496(5) .
C10A C10F 1.385(5) .
C10A C10B 1.398(5) .
C10B C10C 1.387(5) .
C10B H10B 0.9500 .
C10C C10D 1.390(6) .
C10C H10C 0.9500 .
C10D C10E 1.378(6) .
C10D C22 1.516(5) .
C10E C10F 1.394(5) .
C10E H10E 0.9500 .
C10F H10F 0.9500 .
C11 C12 1.414(5) .
C12 C13 1.373(5) .
C12 H12 0.9500 .
C13 C14 1.427(5) .
C13 H13 0.9500 .
C14 C15 1.388(5) .
C15 C16 1.429(5) .
C15 C15A 1.494(5) .
C15A C15F 1.390(6) .
C15A C15B 1.392(5) .
C15B C15C 1.391(6) .
C15B H15B 0.9500 .
C15C C15D 1.383(6) .
C15C H15C 0.9500 .
C15D C15E 1.387(6) .
C15D C23 1.505(6) .
C15E C15F 1.393(5) .
C15E H15E 0.9500 .
C15F H15F 0.9500 .
C16 C17 1.426(5) .
C17 C18 1.354(6) .
C17 H17 0.9500 .
C18 C19 1.431(6) .
C18 H18 0.9500 .
C19 C20 1.409(6) .
C20 C20A 1.507(5) .
C20A C20B 1.378(6) .
C20A C20F 1.380(6) .
C20B C20C 1.389(6) .
C20B H20B 0.9500 .
C20C C20D 1.374(6) .
C20C H20C 0.9500 .
C20D C20E 1.374(6) .
C20D H20D 0.9500 .
C20E C20F 1.386(6) .
C20E H20E 0.9500 .
C20F H20F 0.9500 .
C22 H22A 0.9800 .
C22 H22B 0.9800 .
C22 H22C 0.9800 .
C23 H23A 0.9800 .
C23 H23B 0.9800 .
C23 H23C 0.9800 .
C2B1 C3B1 1.368(8) .
C2B1 C24 1.440(10) .
C3B1 H3B1 0.9500 .
C24 O24 1.230(12) .
C24 H24 0.9500 .
C25 O25 1.240(10) .
C25 H25 0.9500 .
C26 C27 1.517(12) .
C26 H26A 0.9800 .
C26 H26B 0.9800 .
C26 H26C 0.9800 .
C27 C28 1.513(11) .
C27 H27A 0.9900 .
C27 H27B 0.9900 .
C28 C28 1.487(11) 2_756
C28 H28A 0.9900 .
C28 H28B 0.9900 .
C29 Cl1 1.72(4) .
C29 Cl2 1.76(3) .
C29 H29A 0.9900 .
C29 H29B 0.9900 .
Cl3 C30 1.696(8) 2_657
Cl3 C30 1.708(8) .
C30 Cl3 1.696(8) 2_657
C30 C30 1.83(3) 2_657
C30 H30A 0.9900 .
C30 H30B 0.9900 .
