#------------------------------------------------------------------------------
#$Date: 2019-11-23 06:22:36 +0200 (Sat, 23 Nov 2019) $
#$Revision: 232321 $
#$URL: file:///home/coder/svn-repositories/cod/cif/4/34/74/4347444.cif $
#------------------------------------------------------------------------------
#
# This file is available in the Crystallography Open Database (COD),
# http://www.crystallography.net/
#
# All data on this site have been placed in the public domain by the
# contributors.
#
data_4347444
loop_
_publ_author_name
'He, Mingrui'
'Li, Xiangjun'
'Liu, Yanhong'
'Li, Jianfeng'
_publ_section_title
;
 Axial Mn-CCN Bonds of Cyano Manganese(II) Porphyrin Complexes: Flexible
 and Weak?
;
_journal_issue                   12
_journal_name_full               'Inorganic chemistry'
_journal_page_first              5871
_journal_page_last               5879
_journal_paper_doi               10.1021/acs.inorgchem.6b00173
_journal_volume                  55
_journal_year                    2016
_chemical_formula_moiety         'C45 H28 Mn N5, C18 H36 K N2 O6'
_chemical_formula_sum            'C63 H64 K Mn N7 O6'
_chemical_formula_weight         1109.25
_chemical_name_common            '[K(222)][Mn(TPP)(CN)]'
_space_group_crystal_system      monoclinic
_space_group_IT_number           14
_space_group_name_Hall           '-P 2yn'
_space_group_name_H-M_alt        'P 1 21/n 1'
_atom_sites_solution_hydrogens   geom
_atom_sites_solution_primary     direct
_atom_sites_solution_secondary   difmap
_audit_creation_method           SHELXL-2014/6
_cell_angle_alpha                90
_cell_angle_beta                 109.549(6)
_cell_angle_gamma                90
_cell_formula_units_Z            4
_cell_length_a                   13.2466(8)
_cell_length_b                   25.3523(14)
_cell_length_c                   17.9030(10)
_cell_measurement_reflns_used    4254
_cell_measurement_temperature    150(2)
_cell_measurement_theta_max      29.1631
_cell_measurement_theta_min      3.0716
_cell_volume                     5665.8(6)
_computing_cell_refinement
'CrysAlisPro, Oxford Diffraction Ltd.,Version 1.171.35.19'
_computing_data_collection
'CrysAlisPro, Oxford Diffraction Ltd.,Version 1.171.35.19'
_computing_data_reduction
'CrysAlisPro, Oxford Diffraction Ltd.,Version 1.171.35.19'
_computing_molecular_graphics    'SHELXP-2014/6 (Sheldrick, 2014)'
_computing_publication_material
'SHELXCIF-2014/6 (Sheldrick, 2014)/enCEFer(CCDC, 2014)'
_computing_structure_refinement  'SHELXL-2014/6 (Sheldrick, 2014)'
_computing_structure_solution    'SHELXS-2014/6 (Sheldrick, 2014)'
_diffrn_ambient_temperature      150(2)
_diffrn_detector_area_resol_mean 16.2141
_diffrn_measured_fraction_theta_full 0.997
_diffrn_measured_fraction_theta_max 0.996
_diffrn_measurement_device_type  'Xcalibur, Eos, Gemini'
_diffrn_measurement_method       '\w scans'
_diffrn_radiation_type           MoK\a
_diffrn_radiation_wavelength     0.71073
_diffrn_reflns_av_R_equivalents  0.0847
_diffrn_reflns_av_unetI/netI     0.1798
_diffrn_reflns_Laue_measured_fraction_full 0.997
_diffrn_reflns_Laue_measured_fraction_max 0.996
_diffrn_reflns_limit_h_max       16
_diffrn_reflns_limit_h_min       -14
_diffrn_reflns_limit_k_max       31
_diffrn_reflns_limit_k_min       -27
_diffrn_reflns_limit_l_max       20
_diffrn_reflns_limit_l_min       -22
_diffrn_reflns_number            23619
_diffrn_reflns_point_group_measured_fraction_full 0.997
_diffrn_reflns_point_group_measured_fraction_max 0.996
_diffrn_reflns_theta_full        25.242
_diffrn_reflns_theta_max         25.999
_diffrn_reflns_theta_min         3.181
_diffrn_source                   'Enhance (Mo) X-ray Source'
_exptl_absorpt_coefficient_mu    0.365
_exptl_absorpt_correction_T_max  0.978
_exptl_absorpt_correction_T_min  0.916
_exptl_absorpt_correction_type   multi-scan
_exptl_absorpt_process_details
;
CrysAlisPro, Oxford Diffraction Ltd.,
Version 1.171.34.44 (release 25-10-2010 CrysAlis171 .NET)
(compiled Oct 25 2010,18:11:34)
Empirical absorption correction using spherical harmonics,
 implemented in SCALE3 ABSPACK scaling algorithm.
;
_exptl_crystal_colour            'dark green'
_exptl_crystal_density_diffrn    1.300
_exptl_crystal_density_method    'not measured'
_exptl_crystal_description       sheet
_exptl_crystal_F_000             2332
_exptl_crystal_size_max          0.250
_exptl_crystal_size_mid          0.200
_exptl_crystal_size_min          0.060
_refine_diff_density_max         0.703
_refine_diff_density_min         -0.363
_refine_diff_density_rms         0.064
_refine_ls_extinction_method     none
_refine_ls_goodness_of_fit_ref   0.894
_refine_ls_hydrogen_treatment    constr
_refine_ls_matrix_type           full
_refine_ls_number_parameters     704
_refine_ls_number_reflns         11091
_refine_ls_number_restraints     6
_refine_ls_restrained_S_all      0.899
_refine_ls_R_factor_all          0.1407
_refine_ls_R_factor_gt           0.0607
_refine_ls_shift/su_max          0.001
_refine_ls_shift/su_mean         0.000
_refine_ls_structure_factor_coef Fsqd
_refine_ls_weighting_details     'w=1/[\s^2^(Fo^2^)] where P=(Fo^2^+2Fc^2^)/3'
_refine_ls_weighting_scheme      calc
_refine_ls_wR_factor_gt          0.0781
_refine_ls_wR_factor_ref         0.1017
_reflns_Friedel_coverage         0.000
_reflns_number_gt                5455
_reflns_number_total             11091
_reflns_threshold_expression     'I > 2\s(I)'
_cod_data_source_file            ic6b00173_si_004.cif
_cod_data_source_block           20140604_MnTPPCN_K222_2
_cod_original_sg_symbol_H-M      'P 21/n'
_cod_database_code               4347444
_shelx_space_group_comment
;
The symmetry employed for this shelxl refinement is uniquely defined
by the following loop, which should always be used as a source of
symmetry information in preference to the above space-group names.
They are only intended as comments.
;
_shelx_estimated_absorpt_t_min   0.914
_shelx_estimated_absorpt_t_max   0.978
_shelxl_version_number           2014/6
_shelx_res_file
;
TITL 20140604_MnTPPCN_K222_2 in P2(1)/n
CELL 0.71073  13.2466  25.3523  17.9030  90.000 109.549  90.000
ZERR    4.00   0.0008   0.0014   0.0010   0.000   0.006   0.000
LATT 1
SYMM 0.5-X, 0.5+Y, 0.5-Z
SFAC C  H  N  O  K  Mn
UNIT 252  256  28  24  4  4
L.S. 4
BOND $H
ISOR 0.01 0.02 C17
OMIT -3 52
SIZE 0.25 0.20 0.06
TEMP -123.140
TWIN
ACTA
FMAP 2
PLAN 20
WGHT    0.000000
BASF   0.01000
FVAR       0.21919
MN1   6    0.374191    0.671716    0.176529    11.00000    0.02937    0.01901 =
         0.01955   -0.00057    0.00500   -0.00217
C1    1    0.526469    0.636819    0.178349    11.00000    0.02177    0.04379 =
         0.01899    0.00677    0.00076   -0.00252
N1    3    0.598535    0.613378    0.173867    11.00000    0.06150    0.05646 =
         0.02977    0.00052    0.00900   -0.01252
C(A1  1    0.257859    0.572533    0.221112    11.00000    0.03340    0.01942 =
         0.02188   -0.00113    0.00947    0.00082
C(A2  1    0.236299    0.573320    0.093797    11.00000    0.02012    0.02114 =
         0.02393   -0.00159    0.00499    0.00051
C(A3  1    0.257659    0.641297   -0.002343    11.00000    0.02283    0.02494 =
         0.02459   -0.00068    0.00194    0.00130
C(A4  1    0.301929    0.725247    0.006852    11.00000    0.02541    0.01913 =
         0.01814    0.00145    0.00118    0.00099
C(A5  1    0.364533    0.790976    0.117968    11.00000    0.02328    0.01949 =
         0.02343    0.00183    0.00399   -0.00201
C(A6  1    0.396107    0.788171    0.247057    11.00000    0.02336    0.02194 =
         0.02242   -0.00140    0.00560   -0.00211
C(A7  1    0.385611    0.718940    0.343575    11.00000    0.03988    0.01646 =
         0.02158   -0.00373    0.00370   -0.00178
C(A8  1    0.332332    0.635888    0.334229    11.00000    0.03073    0.01735 =
         0.01884    0.00282    0.00411    0.00090
C(B1  1    0.205995    0.523247    0.187682    11.00000    0.03357    0.01653 =
         0.02918    0.00101    0.01169    0.00107
AFIX  43
H(BA  2    0.185677    0.495508    0.215394    11.00000   -1.20000
AFIX   0
C(B2  1    0.192435    0.524675    0.109665    11.00000    0.03226    0.01679 =
         0.02848   -0.00552    0.00413   -0.00045
AFIX  43
H(BB  2    0.159604    0.498121    0.071911    11.00000   -1.20000
AFIX   0
C(B3  1    0.250173    0.658790   -0.081596    11.00000    0.03772    0.03038 =
         0.01696    0.00064    0.00508   -0.00221
AFIX  43
H(BC  2    0.231322    0.637948   -0.128357    11.00000   -1.20000
AFIX   0
C(B4  1    0.275477    0.710676   -0.075139    11.00000    0.03493    0.02700 =
         0.02217    0.00354    0.00757    0.00434
AFIX  43
H(BD  2    0.275733    0.733430   -0.117235    11.00000   -1.20000
AFIX   0
C(B5  1    0.384085    0.844494    0.146971    11.00000    0.03012    0.02476 =
         0.02566    0.00525    0.00826   -0.00328
AFIX  43
H(BE  2    0.383226    0.875198    0.116346    11.00000   -1.20000
AFIX   0
C(B6  1    0.403928    0.842482    0.226418    11.00000    0.03332    0.01855 =
         0.02355   -0.00964    0.01083   -0.00339
AFIX  43
H(BF  2    0.420020    0.871603    0.261856    11.00000   -1.20000
AFIX   0
C(B7  1    0.376920    0.703693    0.419692    11.00000    0.04124    0.02347 =
         0.01769   -0.00032    0.00810   -0.00016
AFIX  43
H(BG  2    0.391564    0.725541    0.465202    11.00000   -1.20000
AFIX   0
C(B8  1    0.344572    0.653338    0.413939    11.00000    0.04316    0.02095 =
         0.02150    0.00381    0.01002   -0.00136
AFIX  43
H(BH  2    0.332015    0.632905    0.454440    11.00000   -1.20000
AFIX   0
C(M1  1    0.285197    0.587567    0.301496    11.00000    0.02679    0.01979 =
         0.02570    0.00217    0.01049    0.00333
C(M2  1    0.233310    0.590140    0.017463    11.00000    0.02049    0.02212 =
         0.02238   -0.00223    0.00297    0.00184
C(M3  1    0.333081    0.776509    0.037842    11.00000    0.02435    0.02105 =
         0.01509    0.00267    0.00040    0.00132
C(M4  1    0.402422    0.770458    0.323402    11.00000    0.02421    0.02140 =
         0.02444   -0.00824    0.00726    0.00426
N2    3    0.273843    0.601954    0.162426    11.00000    0.02928    0.01279 =
         0.01779   -0.00176    0.00546   -0.00319
N3    3    0.291493    0.682361    0.049817    11.00000    0.02498    0.01880 =
         0.01882    0.00228    0.00157   -0.00313
N4    3    0.374487    0.757513    0.180436    11.00000    0.02996    0.01653 =
         0.01994    0.00018    0.00386   -0.00642
N5    3    0.360640    0.675836    0.293935    11.00000    0.03979    0.02245 =
         0.02198   -0.00125    0.01155   -0.00067
C2    1    0.258036    0.551051    0.356915    11.00000    0.04915    0.01104 =
         0.02473   -0.00425    0.01506    0.00127
C3    1    0.151690    0.536363    0.344097    11.00000    0.05689    0.02246 =
         0.03513   -0.00774    0.02132   -0.00960
AFIX  43
H3A   2    0.096837    0.549319    0.298636    11.00000   -1.20000
AFIX   0
C4    1    0.124185    0.503047    0.396626    11.00000    0.07910    0.03763 =
         0.05606   -0.01637    0.04006   -0.02519
AFIX  43
H4A   2    0.051695    0.493089    0.386563    11.00000   -1.20000
AFIX   0
C5    1    0.204097    0.484793    0.463485    11.00000    0.11916    0.02802 =
         0.05227   -0.00276    0.04802   -0.02090
AFIX  43
H5A   2    0.186259    0.462278    0.499622    11.00000   -1.20000
AFIX   0
C6    1    0.308980    0.499045    0.477858    11.00000    0.10214    0.02649 =
         0.02819   -0.00566    0.02179    0.00360
AFIX  43
H6A   2    0.363230    0.486454    0.523955    11.00000   -1.20000
AFIX   0
C7    1    0.336008    0.531763    0.425308    11.00000    0.06093    0.02753 =
         0.02731   -0.00333    0.01471    0.00190
AFIX  43
H7A   2    0.408869    0.541250    0.435976    11.00000   -1.20000
AFIX   0
C8    1    0.194495    0.550901   -0.048115    11.00000    0.02908    0.01700 =
         0.01891   -0.00089    0.00622   -0.00163
C9    1    0.101963    0.558773   -0.112397    11.00000    0.03144    0.02456 =
         0.02718   -0.00573    0.00776    0.00207
AFIX  43
H9A   2    0.061970    0.590243   -0.115069    11.00000   -1.20000
AFIX   0
C10   1    0.066205    0.522065   -0.172804    11.00000    0.03349    0.03051 =
         0.02657   -0.00345    0.00170   -0.00475
AFIX  43
H10A  2    0.002801    0.528453   -0.216421    11.00000   -1.20000
AFIX   0
C11   1    0.123478    0.476161   -0.169055    11.00000    0.04778    0.02545 =
         0.03085   -0.00681    0.01618   -0.01146
AFIX  43
H11A  2    0.098701    0.450923   -0.210403    11.00000   -1.20000
AFIX   0
C12   1    0.216315    0.466081   -0.106308    11.00000    0.04679    0.01873 =
         0.03692   -0.00541    0.02057    0.00117
AFIX  43
H12A  2    0.255566    0.434453   -0.104384    11.00000   -1.20000
AFIX   0
C13   1    0.250827    0.503469   -0.045999    11.00000    0.03616    0.02449 =
         0.02332    0.00171    0.00692    0.00075
AFIX  43
H13A  2    0.313996    0.496794   -0.002315    11.00000   -1.20000
AFIX   0
C14   1    0.326714    0.819884   -0.020351    11.00000    0.04988    0.02013 =
         0.01672   -0.00056    0.00259    0.00341
C15   1    0.229048    0.834325   -0.075170    11.00000    0.08193    0.02911 =
         0.03678    0.00095   -0.00426    0.00683
AFIX  43
H15A  2    0.165849    0.816117   -0.076359    11.00000   -1.20000
AFIX   0
C16   1    0.222453    0.875520   -0.128917    11.00000    0.13891    0.04097 =
         0.02807   -0.00636   -0.00831    0.03900
AFIX  43
H16A  2    0.154974    0.885607   -0.165573    11.00000   -1.20000
AFIX   0
C17   1    0.313263    0.900978   -0.128287    11.00000    0.17480    0.04733 =
         0.03579    0.01123    0.04966    0.03059
AFIX  43
H17A  2    0.308699    0.928126   -0.165855    11.00000   -1.20000
AFIX   0
C18   1    0.410889    0.888192   -0.074585    11.00000    0.14442    0.02415 =
         0.06706   -0.00015    0.07617   -0.01205
AFIX  43
H18A  2    0.473429    0.906888   -0.073706    11.00000   -1.20000
AFIX   0
C19   1    0.417298    0.846856   -0.020568    11.00000    0.06909    0.02530 =
         0.04118   -0.00293    0.03490   -0.00005
AFIX  43
H19A  2    0.485026    0.837365    0.016326    11.00000   -1.20000
AFIX   0
C20   1    0.413868    0.811522    0.386221    11.00000    0.03020    0.01356 =
         0.02478   -0.00160    0.01033   -0.00178
C21   1    0.328708    0.846237    0.378922    11.00000    0.04146    0.02056 =
         0.02444    0.00247    0.00543   -0.00210
AFIX  43
H21A  2    0.266486    0.844961    0.333017    11.00000   -1.20000
AFIX   0
C22   1    0.334789    0.882213    0.438010    11.00000    0.04321    0.02136 =
         0.04755    0.00120    0.02210    0.00738
AFIX  43
H22A  2    0.276200    0.905192    0.432887    11.00000   -1.20000
AFIX   0
C23   1    0.425723    0.885160    0.504898    11.00000    0.05984    0.02054 =
         0.03284   -0.00970    0.02667   -0.00722
AFIX  43
H23A  2    0.429870    0.910350    0.545104    11.00000   -1.20000
AFIX   0
C24   1    0.510338    0.851145    0.512630    11.00000    0.04184    0.02553 =
         0.02442   -0.00210    0.01011   -0.00883
AFIX  43
H24A  2    0.572627    0.852928    0.558434    11.00000   -1.20000
AFIX   0
C25   1    0.504730    0.814519    0.453977    11.00000    0.03382    0.02178 =
         0.02688   -0.00247    0.01156   -0.00491
AFIX  43
H25A  2    0.563139    0.791267    0.459896    11.00000   -1.20000
AFIX   0
K1    5    0.960281    0.834303    0.266120    11.00000    0.03083    0.02975 =
         0.02763   -0.00047    0.00858    0.00021
N6    3    0.998522    0.718598    0.247507    11.00000    0.05838    0.03196 =
         0.03877    0.00059    0.02274    0.00494
N7    3    0.922718    0.951127    0.281585    11.00000    0.06004    0.02584 =
         0.03819    0.00239    0.02872    0.01020
O1    4    1.095443    0.801918    0.179101    11.00000    0.04384    0.03271 =
         0.03252    0.00015    0.01535    0.00087
O2    4    1.033153    0.909274    0.175422    11.00000    0.04192    0.02700 =
         0.04108   -0.00479    0.01930   -0.00268
O3    4    0.783808    0.767024    0.185953    11.00000    0.04117    0.05454 =
         0.05225   -0.00964    0.02022   -0.01932
O4    4    0.748321    0.873556    0.219723    11.00000    0.03273    0.07127 =
         0.03260   -0.00044    0.00439    0.01107
O5    4    1.047591    0.772003    0.403595    11.00000    0.04335    0.03884 =
         0.03205    0.00478    0.00711    0.00620
O6    4    1.040636    0.883299    0.416820    11.00000    0.04633    0.03856 =
         0.02992   -0.00123    0.01581    0.00067
C26   1    1.089979    0.712386    0.217884    11.00000    0.06460    0.02882 =
         0.05708   -0.00043    0.03077    0.01096
AFIX  23
H26A  2    1.091696    0.675551    0.199991    11.00000   -1.20000
H26B  2    1.157570    0.719008    0.261983    11.00000   -1.20000
AFIX   0
C27   1    1.083945    0.749095    0.150593    11.00000    0.05513    0.03334 =
         0.04299   -0.00641    0.02692    0.00327
AFIX  23
H27A  2    1.141622    0.740657    0.128848    11.00000   -1.20000
H27B  2    1.014203    0.744865    0.107689    11.00000   -1.20000
AFIX   0
C28   1    1.097848    0.837522    0.118534    11.00000    0.04222    0.03264 =
         0.03982    0.00463    0.02166    0.00359
AFIX  23
H28A  2    1.027860    0.837287    0.075200    11.00000   -1.20000
H28B  2    1.153774    0.826626    0.096336    11.00000   -1.20000
AFIX   0
C29   1    1.121498    0.891806    0.153003    11.00000    0.04387    0.03913 =
         0.04396    0.00327    0.02476   -0.01006
AFIX  23
H29A  2    1.187590    0.891276    0.199922    11.00000   -1.20000
H29B  2    1.132717    0.916251    0.113373    11.00000   -1.20000
AFIX   0
C30   1    1.056219    0.959939    0.212336    11.00000    0.07958    0.03057 =
         0.05108   -0.00206    0.04040   -0.01851
AFIX  23
H30A  2    1.080991    0.984238    0.178777    11.00000   -1.20000
H30B  2    1.113688    0.956814    0.264415    11.00000   -1.20000
AFIX   0
C31   1    0.955657    0.981236    0.223159    11.00000    0.10034    0.03146 =
         0.05800    0.00340    0.04818    0.00721
AFIX  23
H31A  2    0.967669    1.018473    0.240527    11.00000   -1.20000
H31B  2    0.896859    0.980476    0.171508    11.00000   -1.20000
AFIX   0
C32   1    0.901194    0.694655    0.193105    11.00000    0.08420    0.03456 =
         0.05378   -0.01424    0.03134   -0.01688
AFIX  23
H32A  2    0.906921    0.655846    0.199175    11.00000   -1.20000
H32B  2    0.896374    0.703171    0.138050    11.00000   -1.20000
AFIX   0
C33   1    0.799371    0.712545    0.205835    11.00000    0.06930    0.06308 =
         0.05522   -0.01446    0.02842   -0.03528
AFIX  23
H33A  2    0.737767    0.691764    0.171961    11.00000   -1.20000
H33B  2    0.805073    0.707173    0.261875    11.00000   -1.20000
AFIX   0
C34   1    0.682971    0.785854    0.187179    11.00000    0.02935    0.11970 =
         0.04258   -0.02838    0.01325   -0.02676
AFIX  23
H34A  2    0.679139    0.782495    0.241259    11.00000   -1.20000
H34B  2    0.624264    0.764718    0.150588    11.00000   -1.20000
AFIX   0
C35   1    0.671189    0.842662    0.162069    11.00000    0.03104    0.10039 =
         0.04101   -0.00658   -0.00117    0.01154
AFIX  23
H35A  2    0.681672    0.846327    0.110098    11.00000   -1.20000
H35B  2    0.598199    0.855176    0.156397    11.00000   -1.20000
AFIX   0
C36   1    0.736027    0.928675    0.199601    11.00000    0.05633    0.07336 =
         0.04990    0.01665    0.01345    0.03846
AFIX  23
H36A  2    0.660686    0.939556    0.188744    11.00000   -1.20000
H36B  2    0.755016    0.935283    0.151434    11.00000   -1.20000
AFIX   0
C37   1    0.808789    0.959808    0.268223    11.00000    0.06697    0.04966 =
         0.05045    0.01415    0.02785    0.03329
AFIX  23
H37A  2    0.792740    0.997820    0.258322    11.00000   -1.20000
H37B  2    0.793397    0.950104    0.316889    11.00000   -1.20000
AFIX   0
C38   1    1.025666    0.694185    0.326185    11.00000    0.09142    0.02429 =
         0.06013    0.00786    0.04105    0.00860
AFIX  23
H38A  2    1.057929    0.659167    0.324537    11.00000   -1.20000
H38B  2    0.958697    0.688457    0.338095    11.00000   -1.20000
AFIX   0
C39   1    1.101377    0.725627    0.392295    11.00000    0.05823    0.04867 =
         0.04692    0.01537    0.01499    0.02579
AFIX  23
H39A  2    1.124619    0.704460    0.441601    11.00000   -1.20000
H39B  2    1.165638    0.735296    0.378832    11.00000   -1.20000
AFIX   0
C40   1    1.112239    0.800432    0.471575    11.00000    0.04413    0.05661 =
         0.02867    0.01310    0.00057    0.00199
AFIX  23
H40A  2    1.180707    0.810578    0.464602    11.00000   -1.20000
H40B  2    1.128699    0.777753    0.519179    11.00000   -1.20000
AFIX   0
C41   1    1.054373    0.848598    0.482559    11.00000    0.04537    0.05826 =
         0.02369   -0.00342    0.00724   -0.01316
AFIX  23
H41A  2    0.983617    0.838763    0.485776    11.00000   -1.20000
H41B  2    1.095936    0.866513    0.532528    11.00000   -1.20000
AFIX   0
C42   1    0.985543    0.929808    0.425065    11.00000    0.05565    0.03708 =
         0.03582   -0.01589    0.01990   -0.00583
AFIX  23
H42A  2    1.020826    0.945516    0.478048    11.00000   -1.20000
H42B  2    0.910714    0.921097    0.420086    11.00000   -1.20000
AFIX   0
C43   1    0.986572    0.968303    0.362124    11.00000    0.07383    0.02400 =
         0.05005   -0.00676    0.03883   -0.00149
AFIX  23
H43A  2    0.958493    1.002545    0.373150    11.00000   -1.20000
H43B  2    1.061544    0.973897    0.364485    11.00000   -1.20000

AFIX   0
HKLF 4

REM  20140604_MnTPPCN_K222_2 in P2(1)/n
REM R1 =  0.0607 for    5455 Fo > 4sig(Fo)  and  0.1407 for all   11091 data
REM    704 parameters refined using      6 restraints

END

WGHT      0.0000      0.0000

REM Highest difference peak  0.703,  deepest hole -0.363,  1-sigma level  0.064
Q1    1   0.3339  0.6736  0.1026  11.00000  0.05    0.34
Q2    1   0.3173  0.6732  0.2287  11.00000  0.05    0.32
Q3    1   0.3975  0.6668  0.2471  11.00000  0.05    0.30
Q4    1   0.4039  0.7875  0.3558  11.00000  0.05    0.29
Q5    1   0.9519  0.8069  0.3234  11.00000  0.05    0.29
Q6    1   0.5649  0.6454  0.1800  11.00000  0.05    0.29
Q7    1   0.4601  0.6421  0.1819  11.00000  0.05    0.29
Q8    1   0.4218  0.5762  0.2805  11.00000  0.05    0.28
Q9    1   0.1186  0.4926  0.3231  11.00000  0.05    0.27
Q10   1   0.3216  0.6054  0.1205  11.00000  0.05    0.27
Q11   1   0.5287  0.6691  0.2109  11.00000  0.05    0.27
Q12   1   0.3577  0.7137  0.0769  11.00000  0.05    0.26
Q13   1   0.4385  0.6743  0.1176  11.00000  0.05    0.25
Q14   1   0.3738  0.6491  0.2410  11.00000  0.05    0.25
Q15   1   0.2452  0.6921  0.1951  11.00000  0.05    0.24
Q16   1   0.3580  0.6422  0.1039  11.00000  0.05    0.24
Q17   1   0.2472  0.6462  0.1855  11.00000  0.05    0.24
Q18   1   0.4185  0.4925  0.5181  11.00000  0.05    0.23
Q19   1   0.6161  0.6115  0.1946  11.00000  0.05    0.23
Q20   1   0.2266  0.6379  0.2531  11.00000  0.05    0.23
;
_shelx_res_checksum              18806
_shelx_hkl_file
;
   0   0   3    0.02    0.55
   0   0   3    1.52    0.15
   0   0   4  139.58   11.43
   0   0  -4  126.28   10.21
   0   0   4  125.41   13.59
   0   0   4  122.00   10.04
   0   0   5   -0.64    1.06
   0   0  -5    1.37    1.63
   0   0   5   -2.82    3.17
   0   0   5    2.75    3.26
   0   0   6  945.63   34.98
   0   0   6  908.95   34.34
   0   0   6  977.13   46.08
   0   0  -6  960.83   35.07
   0   0   7   -1.35    1.57
   0   0   7    0.98    1.57
   0   0  -7   -0.99    1.95
   0   0   7   -2.16    4.05
   0   0  -7   -5.50    6.70
   0   0   8  462.45   28.60
   0   0   8  464.22   28.07
   0   0  -8  485.11   28.57
   0   0  -8  465.70   36.22
   0   0   9    1.37    0.47
   0   0   9   -4.67    5.33
   0   0  -9   -4.67    7.78
   0   0  -9   -1.76    3.22
   0   0  10   91.47   13.66
   0   0 -10   99.01   18.33
   0   0 -10  101.65   14.69
   0   0  10  100.73   15.09
   0   0  11   -2.55    4.46
   0   0 -11   -6.66    7.88
   0   0  11    1.08    3.06
   0   0 -11    1.34    1.17
   0   0 -12  447.50   43.93
   0   0  12  432.73   34.41
   0   0  12  459.79   33.81
   0   0  13    9.36    7.81
   0   0  13    3.42    4.68
   0   0 -13    0.04    0.98
   0   0  14  259.45   26.76
   0   0 -14  245.95   34.99
   0   0 -15    3.03    4.82
   0   0  15    2.40    2.49
   0   0 -16    2.30    5.51
   0   0 -17    1.81    8.12
   0   0 -18   51.03   20.76
   0   0 -19    7.38   10.76
   0   0 -20  186.86   38.91
   0   0 -21   27.26   19.48
   0   0 -22   51.67   23.72
   0   1   3  169.10   12.45
   0  -1   3  159.67   10.66
   0  -1   3  166.38   13.61
   0   1   3  164.27   10.79
   0  -1  -4 7129.62   78.71
   0   1   4 6674.55   87.19
   0  -1   4 6914.64   63.94
   0   1   4 7056.03   79.65
   0  -1   4 6913.75   78.83
   0  -1   4 7136.09  102.84
   0   1  -4 7270.80   80.68
   0   1   5   16.82    4.86
   0  -1  -5   16.41    4.15
   0  -1   5   17.36    4.24
   0  -1   5   13.70    5.35
   0   1  -5   16.71    4.60
   0   1   5   24.01    6.41
   0  -1   5   15.65    3.29
   0   1  -6  301.21   19.79
   0   1   6  292.53   19.87
   0  -1   6  292.19   19.49
   0   1   6  285.38   21.20
   0  -1   6  308.59   26.21
   0  -1  -6  300.11   19.67
   0  -1   6  296.14   17.08
   0  -1  -6  293.26   24.84
   0   1   7   57.18    9.44
   0   1   7   54.70   10.49
   0   1  -7   58.76    9.49
   0   1  -7   55.67   11.63
   0  -1   7   55.41   12.13
   0  -1  -7   52.54   11.35
   0  -1   7   54.76    9.08
   0  -1   7   56.81    8.02
   0  -1  -7   58.19    9.25
   0  -1   8  634.74   33.11
   0  -1  -8  634.55   32.81
   0   1   8  616.28   35.07
   0  -1  -8  615.42   42.46
   0  -1   8  619.62   30.07
   0   1  -8  653.33   33.53
   0   1  -8  630.37   41.96
   0   1   8  624.36   33.47
   0   1  -9   -1.91    3.48
   0  -1  -9    4.84    3.24
   0  -1   9    3.53    2.61
   0  -1   9    0.91    3.28
   0   1   9    5.78    5.07
   0   1  -9    5.22    3.52
   0  -1  -9   -3.20    6.83
   0   1   9    1.26    1.47
   0   1  10  198.34   21.52
   0   1 -10  197.60   20.60
   0   1  10  199.01   21.08
   0  -1  10  199.16   20.96
   0   1 -10  190.12   25.43
   0  -1 -10  201.92   26.53
   0  -1 -10  187.41   19.95
   0  -1  10  197.99   18.45
   0  -1 -11   61.15   13.76
   0  -1  11   75.73   12.54
   0   1  11   59.19   11.69
   0   1 -11   72.84   16.47
   0   1  11   71.98   13.29
   0  -1  11   71.85   13.17
   0   1  12  192.82   23.42
   0  -1  12  189.49   22.75
   0  -1  12  198.08   20.92
   0   1 -12  202.03   29.54
   0  -1 -12  179.54   27.57
   0  -1  13    1.33    3.24
   0  -1 -13   -4.57    8.43
   0   1 -13   10.39    7.51
   0   1  13    8.59    8.26
   0  -1  13    2.01    4.01
   0  -1  14   53.58   10.90
   0   1  14   54.48   14.09
   0   1 -14   50.82   16.07
   0  -1 -14   43.55   12.35
   0  -1  14   51.24   12.75
   0   1 -15   84.49   22.97
   0  -1 -15   70.88   19.98
   0   1  15   77.09   16.26
   0  -1  15   80.06   16.53
   0  -1 -16  115.69   26.64
   0   1 -16  127.69   28.39
   0   1 -17  217.29   37.38
   0  -1 -17  200.95   36.56
   0  -1 -18    5.94    7.83
   0   1 -18   13.74   12.05
   0   1 -19   24.65   17.05
   0  -1 -19   11.97   10.49
   0   1 -20   12.87   12.66
   0  -1 -20   12.64   11.77
   0  -1 -21   27.64   19.29
   0  -1 -22   13.41   14.38
   0  -2   3   53.78    8.26
   0  -2   3   52.03    6.77
   0   2   3   61.15    9.10
   0  -2   4   51.32    8.56
   0  -2  -4   57.61    7.59
   0  -2   4   49.62    7.08
   0  -2   5  779.59   38.97
   0   2  -5  773.16   30.24
   0  -2  -5  762.16   29.92
   0  -2   5  757.28   30.14
   0   2   5  714.21   34.58
   0  -2  -6  121.78   16.29
   0  -2   6  143.18   18.14
   0  -2   6  132.68    9.63
   0   2   6  135.12   15.81
   0  -2   6  132.60   13.46
   0  -2  -6  133.53   13.24
   0   2  -6  131.82   13.76
   0  -2   7 1237.03   44.72
   0  -2   7 1234.91   33.80
   0  -2  -7 1273.99   44.38
   0   2  -7 1202.12   55.78
   0   2  -7 1284.56   45.02
   0   2   7 1189.94   49.94
   0  -2  -7 1203.95   55.85
   0   2  -8   43.91   11.57
   0  -2  -8   49.48   11.97
   0   2  -8   55.97   10.00
   0   2   8   43.87    9.82
   0  -2   8   51.08    7.32
   0  -2   8   50.30    9.37
   0  -2  -8   50.67    9.34
   0   2   9  145.66   18.82
   0  -2  -9  152.76   17.32
   0   2  -9  156.23   18.03
   0  -2   9  159.21   14.44
   0   2  -9  150.95   22.79
   0  -2  -9  144.43   21.65
   0  -2   9  149.67   17.35
   0  -2  10    5.89    3.67
   0  -2 -10    2.05    2.65
   0   2 -10    4.95    4.29
   0  -2  10    3.88    3.31
   0  -2 -10    7.13    5.06
   0   2  10    1.69    3.76
   0   2 -10    5.45    4.25
   0   2 -11    4.86    6.77
   0  -2  11    2.07    0.96
   0  -2  11    1.09    1.34
   0  -2 -11  -10.35    9.45
   0   2  11   -5.87    6.79
   0   2 -12  178.73   28.18
   0  -2  12  164.27   21.22
   0  -2 -12  163.50   26.92
   0  -2  12  176.13   17.22
   0   2  12  171.74   22.73
   0   2 -13  153.71   27.73
   0  -2  13  134.07   19.91
   0  -2 -13  127.45   24.29
   0  -2  13  134.94   15.57
   0   2  13  137.42   21.10
   0  -2 -14  113.11   22.38
   0  -2  14  117.37   19.44
   0   2 -14  139.53   27.58
   0   2  14  136.67   22.73
   0  -2  14  111.93   14.30
   0  -2 -15   -2.69    5.96
   0  -2  15    2.46    3.60
   0   2 -15   15.88   13.06
   0   2  15    3.46    5.56
   0  -2 -16   44.57   15.97
   0   2  16   50.39   14.18
   0   2 -16   53.65   20.03
   0  -2  16   54.71   14.57
   0   2 -17   32.43   17.67
   0  -2 -17   20.59   11.74
   0   2 -18   16.59   15.76
   0  -2 -18    6.35    7.61
   0   2 -19   31.78   17.71
   0  -2 -19   17.54   13.25
   0  -2 -20   20.80   12.11
   0  -2 -21   16.77   16.51
   0  -2 -22   16.50   12.91
   0   3   2  143.59   13.11
   0   3   3 1011.17   38.54
   0  -3   3 1041.81   36.85
   0   3   4   48.24   11.34
   0  -3   4   37.50    8.18
   0  -3   4   34.64    6.59
   0   3   5  515.51   32.19
   0  -3   5  555.98   27.26
   0  -3  -5  583.21   27.48
   0  -3   5  575.32   34.00
   0  -3  -6   19.07    4.59
   0   3   6   21.44    8.91
   0  -3   6   18.33    4.84
   0  -3   6   14.54    4.87
   0  -3   7   11.35    4.74
   0   3   7   14.90    7.23
   0  -3   7    8.88    2.58
   0  -3  -7    9.04    5.16
   0  -3  -7   12.06    4.21
   0   3  -7   15.37    7.18
   0  -3   8    0.69    1.24
   0   3   8   -0.91    1.01
   0  -3   8   -0.13    0.90
   0  -3  -8    1.08    0.73
   0  -3  -8   -0.45    1.64
   0   3  -8    2.37    5.48
   0  -3   9   -0.01    0.87
   0  -3  -9   -0.92    4.64
   0  -3   9    2.02    2.81
   0   3   9    0.19    2.87
   0  -3  -9    0.91    0.58
   0   3 -10    3.40    5.21
   0  -3  10   -0.11    0.86
   0  -3 -10    0.58    1.28
   0  -3  10    0.57    1.54
   0  -3 -10   -1.16    5.17
   0   3  10   -2.34    4.19
   0  -3  11   46.63    7.34
   0  -3  11   50.26   11.23
   0   3  11   46.39   11.61
   0  -3 -11   46.63   13.75
   0   3 -11   61.45   17.50
   0  -3  12   43.88    7.24
   0   3 -12   58.51   17.51
   0   3  12   40.89   10.79
   0  -3 -12   49.64   15.62
   0  -3  12   41.63   10.77
   0  -3  13   13.37    6.22
   0  -3  13   10.58    2.93
   0   3  13    8.96    5.88
   0  -3 -13    1.77    7.85
   0   3  14  136.19   23.52
   0   3 -14  134.64   27.94
   0  -3 -14  101.69   21.87
   0  -3  14  116.58   19.32
   0  -3  14  115.14   13.14
   0  -3 -15   12.96    5.38
   0  -3  15   21.87    9.03
   0   3 -15   40.67   15.86
   0   3  15   27.03   11.67
   0  -3  16   12.66    7.31
   0   3 -16   29.45   15.73
   0   3  16   18.16    9.51
   0  -3 -16    5.41    4.89
   0  -3 -17  104.61   26.66
   0   3 -17  111.60   27.85
   0  -3 -18   35.33   15.17
   0  -3 -19   45.08   19.87
   0  -3 -20   28.17   15.75
   0  -3 -21   17.37   12.87
   0  -3 -22    6.16   12.07
   0   4   0    3.73    3.22
   0   4   1   36.32    7.01
   0   4  -1   36.30    5.48
   0   4   1   32.98    4.19
   0   4   2  151.02   15.39
   0   4  -2  146.01    9.29
   0  -4  -2  144.56    8.86
   0   4   3  363.31   24.99
   0   4   4   22.19    9.33
   0  -4   4   13.16    7.64
   0  -4   5   12.04    4.44
   0   4   5   17.59    7.89
   0  -4   5   11.80    4.85
   0  -4  -6   80.29   11.53
   0  -4   6   73.23   11.23
   0  -4   6   75.84   13.52
   0   4   6   81.17   14.87
   0  -4  -7  866.84   40.24
   0   4   7  809.54   46.14
   0  -4   7  853.94   39.99
   0  -4   8    1.73    0.55
   0  -4  -8   -0.81    3.83
   0   4   8    3.82    5.15
   0   4  -8    9.82    8.69
   0  -4  -8    0.30    1.14
   0   4   9  277.68   28.83
   0   4  -9  273.48   31.30
   0  -4  -9  278.13   31.08
   0  -4  -9  287.57   24.92
   0  -4   9  285.53   25.47
   0  -4  10    0.00    0.62
   0  -4  10   -0.70    1.66
   0  -4 -10   -3.44    3.54
   0   4  10   -3.77    4.71
   0   4  11   -0.45    4.62
   0  -4  11    3.00    1.69
   0  -4  11    2.85    2.28
   0  -4 -11    5.00    6.82
   0  -4  12  107.01   17.52
   0  -4  12   94.47    8.74
   0  -4 -12   99.12   20.67
   0   4 -12  125.92   25.05
   0   4  12  105.83   19.69
   0  -4 -13    2.16    1.00
   0  -4  13   -0.20    1.08
   0  -4  13   -0.19    0.86
   0  -4 -14   86.42   18.88
   0   4  14  109.62   22.07
   0  -4  14  103.15   18.48
   0   4 -14  126.43   27.51
   0   4  15   11.21    9.80
   0  -4  15   -0.50    2.28
   0  -4  16    3.98    4.59
   0  -4 -16   -1.58    7.68
   0   4  16    9.77    8.53
   0  -4 -17  -16.85   14.95
   0  -4 -18   -4.75    8.73
   0  -4 -19   15.16   10.76
   0  -4 -20   31.16   15.83
   0  -4 -21   20.29   15.60
   0  -4 -22   -3.31    3.84
   0  -5   0   -2.37    2.04
   0   5   0    4.89    4.74
   0   5   1   63.00   10.66
   0   5  -1   56.02    7.90
   0   5   1   65.13    7.09
   0   5  -2   28.94    5.50
   0  -5  -2   23.94    3.47
   0   5   2   37.90   10.65
   0   5  -3  687.97   20.78
   0   5   3  677.41   37.08
   0   5   4  196.55   21.87
   0  -5   5  113.68   16.11
   0   5   5   97.75   15.95
   0  -5   6  171.25   17.98
   0   5   6  159.82   21.28
   0   5   7   29.28   10.35
   0  -5  -7   33.19    8.31
   0  -5   7   31.04    7.92
   0  -5  -8  240.04   22.77
   0   5   8  210.92   25.79
   0  -5   8  223.53   22.15
   0   5   9    1.69    3.49
   0  -5   9    8.15    3.65
   0  -5  -9    5.11    2.83
   0  -5  -9    8.09    3.96
   0  -5  10  177.68   21.60
   0  -5 -10  169.44   26.09
   0   5  10  166.27   24.55
   0   5  11   35.43    9.61
   0  -5  11   41.54   10.62
   0  -5 -11   41.52   11.92
   0   5  12    1.19    3.42
   0  -5 -12    8.80    6.21
   0  -5  12   11.13    6.10
   0  -5  13   50.98   12.91
   0   5  13   50.40   12.39
   0  -5 -13   51.18   16.61
   0  -5  14    8.76    5.20
   0   5  14    5.25    6.20
   0  -5 -14   17.09   11.10
   0  -5  15    2.45    1.60
   0   5  15    9.52    9.75
   0  -5 -15   -6.18    8.79
   0  -5  16   37.61   12.03
   0  -5 -16   25.90   10.01
   0   5  16   48.32   16.58
   0  -5 -17   58.33   18.65
   0  -5 -18  -11.92   12.11
   0  -5 -19   -8.49    9.91
   0  -5 -20   -6.54    9.72
   0  -5 -21   12.18   13.43
   0  -5 -22   11.26   11.50
   0   6   0 3389.14   71.80
   0  -6   0 3421.95   48.18
   0   6  -1   27.53    7.44
   0   6   1   38.48    8.32
   0   6   1   35.25   10.79
   0  -6  -2   46.43    6.98
   0   6   2   41.26   11.88
   0   6   2   17.19    2.61
   0   6  -2   28.44    7.24
   0  -6  -3    0.53    2.37
   0   6  -3    3.28    0.97
   0   6  -4  347.99   14.94
   0   6   4  374.38   30.59
   0   6   5   14.81    8.37
   0  -6   6   12.95    5.98
   0   6   6    9.86    7.90
   0  -6   7  193.13   20.67
   0   6   7  178.62   24.16
   0  -6  -8    2.59    2.46
   0  -6   8    0.94    1.67
   0   6   8    2.81    6.06
   0  -6   9   20.78    7.13
   0   6   9   25.27    9.40
   0   6  10   29.54   11.14
   0  -6 -10   26.06    9.49
   0  -6  10   24.22    7.53
   0   6  11   37.46   11.54
   0  -6  11   31.80   10.02
   0  -6 -11   23.20    8.36
   0  -6  12   13.93    6.46
   0   6  12   10.13    2.29
   0  -6 -12   12.32    6.39
   0   6  13    6.51    6.97
   0  -6  13   16.49    6.96
   0  -6 -13   14.08    8.47
   0   6  14   69.78   16.65
   0  -6  14   77.93   16.30
   0  -6 -14   86.16   22.19
   0  -6 -15   86.59   22.61
   0  -6  15   74.89   16.68
   0   6  15   92.25   21.63
   0  -6 -16   -6.30   10.37
   0   6  16    8.79    9.91
   0  -6  16   -0.27    3.83
   0  -6 -17  -13.94   14.21
   0   6  17    9.69    8.75
   0  -6 -18   11.60    6.34
   0  -6 -19  -10.42   10.87
   0  -6 -20   85.61   25.71
   0  -6 -21   15.02   10.30
   0  -6 -22   22.23   15.39
   0   7   0   16.93   10.01
   0  -7   0   -9.33    4.63
   0   7   1   52.30   13.05
   0   7  -1   50.67   10.24
   0   7   1   63.26    9.24
   0   7   2   31.48   10.75
   0   7   2   15.94    2.22
   0   7  -2   22.14    6.16
   0  -7  -3  422.90   19.47
   0   7  -3  429.04   22.18
   0   7   3  437.49   32.88
   0   7   4    4.20    5.84
   0   7  -4   -0.74    2.77
   0   7   5  342.08   33.13
   0   7  -5  333.09   13.97
   0   7   6  150.99   22.24
   0  -7   7  169.43   20.45
   0   7   7  172.66   24.80
   0   7   8   30.40   10.84
   0  -7   8   39.11   10.17
   0   7   9  227.71   29.37
   0  -7   9  229.05   25.26
   0  -7  10  264.41   27.70
   0   7  10  238.32   31.16
   0   7  11  112.04   21.87
   0  -7  11  110.56   18.41
   0  -7 -11  103.07   21.90
   0   7  12  140.45   25.20
   0  -7  12  153.49   22.38
   0  -7 -12  149.30   26.38
   0   7  13   24.39    9.07
   0  -7 -13   28.47   11.38
   0  -7  13   32.38   10.56
   0  -7  14  120.23   21.29
   0  -7 -14  116.92   26.24
   0   7  14  106.03   22.91
   0   7  15   -5.96    9.43
   0  -7 -15   -1.01    5.30
   0  -7  15    1.68    0.28
   0   7  16   64.56   20.78
   0  -7  16   46.11   13.62
   0  -7 -16   53.34   19.70
   0  -7 -17   93.56   26.03
   0   7  17  114.65   26.54
   0  -7 -18   -2.55   10.71
   0  -7 -19    2.14    8.97
   0  -7 -20   -5.85    8.93
   0  -7 -21   10.08    8.47
   0  -7 -22    9.59    8.44
   0   8   0  181.51   20.04
   0  -8   0  176.47   11.85
   0   8   1  122.42   17.09
   0   8  -1  116.06   15.65
   0   8   1  127.15   12.59
   0   8  -1  116.65    9.21
   0   8   2  467.01   34.83
   0   8  -2  454.74   27.10
   0   8   2  465.24   22.99
   0   8   3  808.63   47.85
   0  -8  -3  730.22   26.17
   0   8  -3  778.61   33.56
   0   8   4   80.59   16.62
   0  -8  -4   64.67    7.64
   0   8  -4   53.54    7.62
   0   8   5  369.70   35.10
   0   8  -5  362.16   17.92
   0   8   6  151.87   22.99
   0   8   7  713.52   52.58
   0  -8   8  107.75   17.55
   0   8   8   98.64   19.78
   0  -8   9  698.70   45.87
   0   8   9  686.83   54.11
   0  -8  10   -2.81    4.96
   0   8  10   -1.37    3.10
   0  -8  11   15.21    6.43
   0   8  11   10.57    5.34
   0  -8 -12   21.90    9.76
   0  -8  12   24.16    8.98
   0   8  12   26.62   10.04
   0   8  13  209.31   33.21
   0  -8 -13  209.22   34.61
   0  -8  13  199.41   27.47
   0  -8  14   23.50    9.44
   0  -8 -14   16.27    9.62
   0   8  14   19.96    9.43
   0  -8  15  125.44   22.66
   0   8  15  117.04   25.40
   0  -8 -15  128.64   28.58
   0  -8  16    0.03    3.16
   0  -8 -16   -9.93    8.37
   0   8  17   32.53   15.46
   0  -8 -17   32.04   15.01
   0  -8 -18  -12.49   11.99
   0  -8 -19  -11.57   13.76
   0  -8 -20    2.14    5.57
   0  -8 -21   14.72   10.92
   0  -8 -22   -5.43   10.40
   0   9   0    5.67    6.47
   0   9   1  124.31   13.08
   0   9   1  112.38   18.04
   0  -9  -1  115.28   12.16
   0   9  -1  113.66    9.95
   0   9  -1  115.64   16.59
   0   9   2   25.85    5.02
   0   9   2   38.45   11.85
   0   9  -2   32.84    8.38
   0   9  -3  382.16   25.53
   0   9   3  399.11   35.58
   0  -9  -4   16.19    4.40
   0   9  -4   10.95    3.22
   0   9   4   24.48   10.37
   0   9   5   41.21   13.65
   0   9  -5   44.70    7.33
   0  -9  -5   41.79    6.95
   0   9  -6    3.20    0.82
   0   9   6    8.20    8.47
   0   9   7   39.92   13.37
   0  -9   8   13.86    6.92
   0   9   8   15.61   10.14
   0  -9   9    4.29    4.97
   0   9   9    2.45    3.55
   0  -9  10   35.07   11.03
   0   9  10   26.19   11.09
   0   9  11   25.36    8.94
   0  -9  11   34.70   11.03
   0   9  12    4.60    5.08
   0  -9  12    5.10    2.49
   0   9  13   59.88   16.05
   0  -9  13   68.68   16.54
   0  -9 -13   57.01   17.08
   0  -9 -14    1.13    3.32
   0  -9  14   12.19    6.27
   0   9  14    0.44    8.91
   0   9  15  153.10   30.36
   0  -9 -15  143.21   30.66
   0  -9  15  145.28   24.97
   0  -9 -16    6.93    5.11
   0   9  16    6.14    7.83
   0  -9  16    2.92    3.81
   0  -9 -17  158.25   35.04
   0   9  17  181.30   36.48
   0   9  18   15.84   11.70
   0  -9 -18    0.76    5.55
   0  -9 -19   33.46   12.39
   0  -9 -20  -19.77   14.02
   0  -9 -21  -20.32   16.40
   0  -9 -22    2.28    4.56
   0  10   0    4.23    4.53
   0 -10  -1   97.54   11.34
   0  10  -1  100.23    9.90
   0  10  -1   87.53   15.47
   0  10   1  108.80   12.90
   0  10   1   98.76   17.25
   0  10  -2  113.36   15.88
   0  10   2  134.73   20.80
   0  10   2  120.88   12.97
   0  10   3   23.77   10.46
   0  10  -3   14.99    5.24
   0  10  -4   -2.45    3.66
   0  10   4    1.46    4.77
   0 -10  -5   24.39    4.87
   0  10   5   27.83   10.97
   0  10  -5   35.12    7.70
   0  10   6   10.08    9.09
   0 -10  -6    0.02    2.81
   0  10  -6    5.74    2.47
   0  10   7  643.49   52.49
   0  10  -7  568.26   19.41
   0  10   8  166.42   27.99
   0  10   9  213.50   31.61
   0 -10   9  236.81   28.86
   0  10  10   -2.62    5.00
   0 -10  10    9.22    6.15
   0  10  11    9.34    6.39
   0 -10  11   10.84    5.63
   0 -10  12    7.74    4.64
   0  10  12    1.29    3.20
   0  10  13    0.10    9.68
   0 -10 -13    1.99    1.52
   0 -10  13    8.26    4.59
   0  10  14   33.47   13.49
   0 -10 -14   39.39   13.99
   0 -10  14   31.74   11.27
   0 -10  15   -0.88    3.16
   0  10  15   -4.10    9.25
   0 -10 -15   -3.70    3.33
   0 -10 -16    3.55    4.98
   0  10  16    9.08    7.71
   0 -10  16    8.89    5.97
   0  10  17    8.09   10.30
   0 -10 -17   -4.51    3.50
   0 -10 -18   13.39    9.67
   0  10  18   14.37   13.12
   0 -10 -19    0.70    6.93
   0 -10 -20   -4.58   11.61
   0 -10 -21   42.75   19.43
   0  11   0    8.45    6.36
   0 -11  -1    3.47    3.20
   0  11   1   16.75    6.98
   0  11  -1    2.18    4.97
   0  11   1    3.62    6.77
   0  11   2   69.71   15.28
   0  11  -2   56.68    7.57
   0  11   2   61.30    9.67
   0  11  -2   60.49   12.09
   0  11  -3  172.78   19.77
   0  11   3  178.27   16.77
   0  11   3  195.77   26.80
   0  11  -4   28.30    6.67
   0  11   4   43.49   13.85
   0 -11  -5   16.53    5.58
   0  11  -5    7.25    4.34
   0  11   5    9.35    9.47
   0  11  -6   76.81   10.52
   0  11   6   81.24   19.58
   0 -11  -6   69.92    9.54
   0 -11  -7   -1.82    3.61
   0  11  -7   -1.95    2.27
   0  11   7    1.21    3.27
   0  11   8  121.48   24.36
   0 -11   9  344.40   35.82
   0  11   9  334.62   40.98
   0  11  10  216.39   33.99
   0 -11  10  231.68   30.13
   0 -11  11   56.54   15.38
   0  11  11   52.24   15.94
   0  11  12    0.20    2.37
   0 -11  12    6.27    5.04
   0  11  13   -8.68    9.84
   0 -11  13   -3.15    6.35
   0 -11  14    3.79    4.20
   0 -11 -14    3.80    5.22
   0  11  14   -1.71    7.87
   0 -11  15   63.95   17.53
   0 -11 -15   55.70   18.19
   0  11  15   41.74   14.61
   0 -11 -16    5.36    4.80
   0 -11  16    8.15    7.13
   0  11  16    6.74    6.35
   0 -11 -17   12.81   10.14
   0  11  17   16.09   14.90
   0  11  18    6.71    9.70
   0 -11 -18   -1.81    8.39
   0 -11 -19   -0.87    3.61
   0 -11 -20  -11.13   13.75
   0 -11 -21  -18.43   18.54
   0  12   0   46.81   12.20
   0  12  -1  467.94   36.68
   0  12   1  456.20   39.26
   0  12   1  431.55   28.39
   0 -12  -1  459.22   25.77
   0  12   2    9.40    8.68
   0  12  -2    4.77    4.65
   0  12  -2    0.77    1.85
   0  12   2    1.35    2.04
   0  12   3   30.80   12.11
   0  12  -3   23.09    7.32
   0  12   3   20.20    5.05
   0  12   4   24.41   10.44
   0  12  -4   12.82    2.90
   0  12   5   75.14   18.60
   0  12  -5   59.10   10.83
   0 -12  -5   78.37   10.92
   0  12  -6  101.43   13.44
   0 -12  -6  108.22   12.36
   0  12   6  107.13   22.94
   0  12   7   74.80   18.80
   0 -12  -7   62.15    9.18
   0  12  -7   61.29    8.62
   0  12   8   39.27   14.66
   0 -12  -8   28.58    6.37
   0  12  -8   31.70    4.80
   0  12   9   85.83   22.20
   0 -12  10   12.74    9.07
   0  12  10    4.27    2.68
   0 -12  11   10.99    8.37
   0  12  11   -7.36    9.81
   0  12  12   11.05    6.58
   0 -12  12   18.48    8.74
   0  12  13    1.86    3.55
   0 -12  13    2.09    2.21
   0 -12  14   90.29   20.67
   0  12  14   73.77   22.14
   0 -12  15   34.82   13.45
   0  12  15   27.49   11.64
   0 -12 -15   20.44    9.74
   0  12  16   -7.05   11.97
   0 -12 -16   -3.21    8.18
   0 -12 -17    5.51    5.96
   0  12  17    4.19    8.75
   0 -12 -18    9.40   10.26
   0  12  18    7.51   11.28
   0 -12 -19   10.71    9.56
   0 -12 -20   36.92   19.00
   0 -12 -21  -12.28   14.44
   0  13   0    2.02    4.33
   0 -13  -1   31.43    6.50
   0  13  -1   37.89   11.46
   0  13   1   43.25   12.98
   0  13   1   50.40   11.24
   0  13  -2  651.83   28.00
   0  13  -2  632.04   43.27
   0  13   2  641.56   50.13
   0  13   2  635.71   35.43
   0 -13  -2  624.08   32.86
   0  13  -3   13.77    5.05
   0  13   3   13.21    4.45
   0  13   3   22.12   10.29
   0  13  -4   54.82   10.73
   0  13   4   75.33   18.93
   0  13   5    1.87    6.21
   0  13  -5   -3.77    4.69
   0  13  -6   36.71    8.85
   0  13   6   36.50   13.44
   0 -13  -6   53.50    9.76
   0 -13  -7    5.05    3.73
   0  13  -7    1.46    1.17
   0  13   7   -0.39    2.09
   0  13   8  450.85   49.74
   0  13  -8  435.91   21.72
   0 -13  -8  462.51   28.43
   0  13   9   31.58   11.17
   0 -13  -9   31.83    7.10
   0 -13 -10  347.91   28.51
   0 -13  10  365.31   40.97
   0  13  10  356.94   45.70
   0 -13  11    3.25    6.17
   0  13  11   -6.93    8.67
   0 -13  12   66.74   17.43
   0  13  12   54.95   17.92
   0 -13  13  109.67   23.31
   0  13  13  111.41   28.88
   0 -13  14    3.78    0.91
   0  13  14   -3.20    9.74
   0  13  15   -2.81   12.42
   0 -13 -15    1.61    3.40
   0 -13  15    0.63    3.41
   0  13  16   37.84   19.00
   0 -13 -16   49.88   20.13
   0  13  17    7.44    9.75
   0 -13 -17    2.15    4.37
   0  13  18    8.51   11.51
   0 -13 -18   -3.47    8.30
   0 -13 -19   17.28   11.60
   0 -13 -20   16.23   12.04
   0 -13 -21   -9.62   12.27
   0  14   0   88.40   18.36
   0  14   1   55.03   11.80
   0  14   1   41.07   12.65
   0  14  -1   38.87   11.57
   0 -14  -1   35.75    5.65
   0 -14  -2  216.07   20.55
   0  14   2  219.21   21.84
   0  14  -2  218.20   26.95
   0  14  -2  214.26   16.80
   0  14   2  227.53   31.49
   0  14   3   64.03   17.23
   0  14   3   63.46   11.10
   0  14  -3   62.26    8.62
   0  14  -3   56.99   12.54
   0  14  -4  151.40   20.29
   0  14   4  150.42   27.06
   0  14  -5   16.94    6.16
   0  14   5   22.74   10.68
   0  14  -6  162.12   19.70
   0  14   6  161.65   28.76
   0  14  -7    3.72    2.31
   0  14   7    4.45    5.80
   0  14   8  212.02   34.91
   0  14  -8  194.44   16.42
   0 -14  -8  197.52   17.65
   0 -14  -9   36.07    7.04
   0  14   9   49.70   16.31
   0  14  10   36.49   13.60
   0 -14 -10   24.07    3.94
   0 -14  10   45.24   15.17
   0 -14  11   57.52   17.22
   0 -14 -11   39.45    9.10
   0  14  11   36.16   14.63
   0 -14  12    9.43    7.18
   0  14  12   -0.79    5.76
   0  14  13    2.58    2.79
   0 -14  13    2.05    4.15
   0 -14  14   12.90    7.55
   0  14  14   13.32    4.98
   0 -14  15    0.37    4.71
   0  14  15   -3.63   11.05
   0 -14 -16    8.45    3.62
   0  14  16    1.82    9.11
   0 -14 -17    1.88    2.43
   0  14  17    4.64   11.53
   0 -14 -18   23.08   14.84
   0  14  18   30.52   17.77
   0 -14 -19    8.52    9.77
   0  14  19    9.84   11.89
   0 -14 -20   18.08   13.13
   0  15   0    3.15    4.72
   0  15  -1   -4.70    5.03
   0 -15  -1   -7.63    7.08
   0  15   1   -0.58    1.36
   0 -15  -2   27.97    8.21
   0  15  -2   15.86    6.31
   0  15   2   19.46    6.84
   0  15   2   26.58   11.51
   0  15  -3  299.79   20.90
   0  15   3  269.22   25.14
   0  15   3  293.42   37.27
   0  15  -3  280.09   30.23
   0  15  -4   24.18    5.90
   0  15   4   35.96   13.84
   0  15  -5   79.43   14.67
   0  15   5  100.74   23.00
   0  15  -6   38.99   10.68
   0  15   6   38.02   14.19
   0  15  -7   37.89    8.72
   0  15   7   33.30   13.60
   0  15   8   14.66    9.95
   0  15  -8   18.42    4.70
   0  15  -9    2.96    1.26
   0  15   9    0.26    2.54
   0  15  10  207.16   35.93
   0 -15 -10  188.37   19.06
   0 -15  11   64.71   19.40
   0 -15 -11   35.65    7.33
   0  15  11   44.52   15.25
   0  15  12   -4.84   10.07
   0 -15  12    9.68    8.47
   0 -15  13    6.16    4.97
   0  15  13    4.93    3.43
   0 -15  14    6.34    6.31
   0  15  14   -1.25   10.05
   0 -15  15  130.96   27.80
   0  15  15  106.88   29.12
   0 -15 -16    5.28    2.95
   0  15  16   -6.91   10.94
   0 -15 -17  119.32   31.93
   0  15  17  135.15   36.85
   0 -15 -18    6.74    2.30
   0  15  18   11.05   10.72
   0 -15 -19   30.55   17.72
   0  15  19   44.56   21.70
   0 -15 -20    0.30    2.58
   0  16   0  589.16   50.05
   0  16   1    3.81    2.51
   0  16  -1    5.71    3.11
   0  16  -2  135.76   22.66
   0  16   2  130.56   17.92
   0 -16  -2  133.95   16.46
   0  16   2  138.79   25.59
   0  16   3   37.15    8.21
   0  16  -3   54.38    9.44
   0  16  -3   46.80   12.28
   0  16   3   46.50   16.06
   0 -16  -3   63.72   13.62
   0  16  -4   -9.26    8.66
   0  16   4    4.85    7.52
   0  16  -4   -9.99    7.28
   0  16   5  173.55   30.93
   0  16  -5  164.90   22.74
   0  16  -6    6.20    6.42
   0  16   6    3.35    4.87
   0  16  -7  246.85   24.44
   0  16   7  246.08   38.55
   0  16   8   95.93   24.98
   0  16  -8   88.49   12.83
   0  16  -9   -1.27    1.57
   0  16   9   -2.65    6.79
   0 -16 -10    5.39    4.50
   0  16  10   -6.53    9.12
   0  16  11    1.96    3.05
   0 -16  11   22.87   13.62
   0 -16  12   83.65   21.86
   0  16  12   64.81   20.42
   0 -16  13   22.86   12.29
   0  16  13   23.74   12.86
   0  16  14   -4.44   12.19
   0 -16  14   -0.43    1.04
   0 -16  15   14.22    9.13
   0  16  15    5.05    7.68
   0  16  16   -7.29   10.11
   0  16  17   30.15   20.19
   0 -16 -17    2.40    4.29
   0  16  18   26.74   18.34
   0 -16 -18    3.73    2.92
   0  16  19   19.22   15.41
   0 -16 -19   13.98   11.63
   0 -16 -20    5.72   12.25
   0  17   0   10.96    8.31
   0  17  -1   39.87   11.81
   0  17   1   47.71   14.50
   0  17  -2   35.99   10.71
   0  17   2   41.77   13.74
   0 -17  -2   34.16    7.14
   0  17   3  100.87   15.43
   0  17  -3  112.56   20.19
   0 -17  -3  138.79   18.29
   0  17  -3  131.61   14.06
   0  17   3  121.63   25.14
   0  17  -4    7.75    2.25
   0  17  -4   10.63    1.69
   0  17   5    3.25    2.07
   0  17  -5    5.55    3.99
   0  17  -6   20.01    8.98
   0  17   6   18.40    8.64
   0  17   7   42.19   16.43
   0  17  -7   50.45   11.69
   0  17   8  179.01   33.25
   0  17  -8  183.32   20.05
   0  17   9  155.96   32.47
   0  17  -9  152.32   16.05
   0  17  10   20.49   10.87
   0  17  11   10.38    8.43
   0 -17  11   21.54   12.53
   0 -17  12   50.75   16.92
   0  17  12   41.84   15.07
   0  17  13    1.42    9.38
   0 -17  13   10.51    8.98
   0 -17  14    8.54    6.44
   0  17  14   -2.17   11.14
   0 -17  15   41.64   16.06
   0  17  15   24.43    8.59
   0  17  16   -3.37    9.17
   0  17  17   93.29   31.69
   0 -17 -17   68.78   25.59
   0 -17 -18   -3.13    8.03
   0  17  18   17.15   16.50
   0 -17 -19   -7.16   10.13
   0  17  19   16.77   16.92
   0  18   0  412.68   44.95
   0  18  -1   56.69   15.37
   0  18   1   63.49   17.24
   0  18  -2   12.09    2.95
   0  18   2    2.88    2.38
   0 -18  -2    6.13    4.76
   0 -18  -3   45.23   10.94
   0  18   3   26.07    6.53
   0  18  -3   23.44    7.93
   0  18   3   34.83   13.22
   0 -18  -4   59.66   13.93
   0  18  -4   25.53    5.74
   0  18   4   47.07   17.30
   0  18  -4   50.37    8.84
   0  18  -5    0.62    6.43
   0  18   5   12.79    9.78
   0  18  -6  102.87   19.22
   0  18   6  112.43   26.79
   0  18   7   -2.92    7.68
   0  18  -7    2.24    2.94
   0  18   8    6.04    6.18
   0  18  -8    6.39    3.88
   0  18   9   -2.11    7.65
   0  18  10   33.76   15.44
   0  18  11   -7.75   12.23
   0 -18  12   34.49   15.01
   0  18  12   18.33    9.37
   0 -18  13    9.05   10.03
   0  18  13   -4.18   11.26
   0  18  14  -10.86   13.74
   0 -18  14    6.00    5.33
   0  18  15   11.67    5.90
   0 -18  15   20.24   10.51
   0  18  16   11.58    7.05
   0 -18 -17  -10.58   14.50
   0  18  17    4.95    8.33
   0  18  18   11.51   17.26
   0 -18 -18   -0.09    5.88
   0 -18 -19    0.35    6.78
   0  18  19   12.50   12.71
   0  19   0    2.41    4.11
   0  19   1   46.21   14.92
   0  19  -1   43.24   11.88
   0  19   2   11.27    7.89
   0  19  -2   -6.46    8.52
   0 -19  -2  -11.35    8.86
   0  19  -3   -2.04    7.32
   0  19   3   21.18   11.06
   0 -19  -3   17.70    7.23
   0  19   4   33.03   12.20
   0  19  -4   32.81    8.72
   0  19  -4   58.69   10.17
   0 -19  -4   61.80   14.04
   0  19   5  139.61   28.85
   0  19  -5  136.57   25.16
   0  19   6   18.86   11.23
   0  19  -6   24.71   11.01
   0  19  -7   68.86   14.99
   0  19   7   56.03   17.60
   0  19  -8   50.93   11.49
   0  19   8   48.49   18.41
   0  19   9   -0.71    8.03
   0  19  10    3.28    3.70
   0  19  11    2.02    8.65
   0  19  12   22.44   11.67
   0 -19  12   40.89   17.20
   0 -19  13    9.28    8.98
   0  19  13   -7.89   15.10
   0  19  14   -6.04   14.68
   0 -19  14    2.86    7.44
   0  19  15  -13.46   17.25
   0 -19  15   -1.59    4.42
   0  19  16    8.20   10.39
   0  19  17   12.15   15.42
   0  19  18    6.78   13.55
   0 -19 -18    3.26    7.90
   0  19  19    7.14   13.83
   0  20   0  117.34   24.83
   0  20  -1    8.66    4.64
   0  20   1   12.10    1.76
   0  20   2  120.67   25.61
   0  20  -2  103.79   21.60
   0 -20  -3   11.89    1.07
   0  20   3   16.19   10.34
   0  20  -3    5.53    5.01
   0  20   4   -5.73    9.49
   0  20  -4  -11.21   10.89
   0 -20  -4   13.09    8.27
   0  20   5   82.69   22.67
   0 -20  -5  119.00   20.38
   0  20  -5  105.61   22.42
   0  20   6   -6.83    7.84
   0  20  -6    4.84    6.74
   0  20   7   22.66   12.17
   0  20  -7   46.51   13.23
   0  20   8   68.03   21.98
   0  20   9   39.68   16.06
   0  20  10    6.99    9.15
   0  20  11   -5.57   13.50
   0  20  12    9.60    6.04
   0 -20  12   21.21   13.03
   0  20  13   -6.38   14.12
   0 -20  13   10.97   10.83
   0  20  14   31.65   13.31
   0 -20  14   46.61   18.02
   0  20  15    0.83   10.44
   0 -20  15    6.92    7.45
   0  20  16   23.92   20.84
   0  20  17    6.69   13.76
   0 -20 -18   19.61   11.96
   0  20  18   22.63   20.69
   0  21   0   -8.78   10.61
   0  21  -1    6.97    8.26
   0  21   1   15.41    7.51
   0  21   2   -5.25    7.15
   0  21  -2  -12.52   10.39
   0  21  -3  291.62   38.13
   0  21   3  321.64   44.52
   0 -21  -3  308.01   28.45
   0  21  -4   93.25   20.83
   0  21   4  111.18   26.66
   0 -21  -4  101.69   16.91
   0  21   5   55.50   18.20
   0 -21  -5   87.97   17.35
   0  21  -5   62.31   17.65
   0  21  -6   16.22    8.70
   0  21   6   13.47   10.42
   0  21  -7   24.95   10.51
   0  21   7    7.82    4.87
   0  21   8   -4.03   10.16
   0  21   9   15.23    7.92
   0  21  10    3.87    6.51
   0  21  11   89.45   26.50
   0  21  12   24.02   13.12
   0 -21  12   26.81   14.12
   0  21  13    4.07    2.62
   0 -21  13   25.18   13.62
   0 -21  14   10.09   12.04
   0  21  14   -3.68   12.98
   0 -21  15   38.57   17.96
   0  21  15   26.39   16.99
   0  21  16   24.65   21.03
   0  21  17   43.62   25.52
   0  22   0   37.14   13.59
   0  22  -1   84.33   20.01
   0  22   1   97.86   24.27
   0  22   2   22.39    8.38
   0  22  -2    2.84    8.21
   0 -22  -3   -0.78    7.12
   0  22  -3   -4.43   11.06
   0  22   3    5.76    2.91
   0  22  -4   43.06   16.25
   0 -22  -4   29.40    8.17
   0  22   4   25.26   11.14
   0 -22  -5   80.55   16.69
   0  22  -5   71.39   19.43
   0  22   5   57.20   19.97
   0 -22  -6  137.96   22.70
   0  22  -6  114.57   22.75
   0  22   6  113.97   29.39
   0  22   7  122.80   31.65
   0  22  -7  125.73   22.88
   0  22   8   -6.91   10.03
   0  22   9   19.57   11.99
   0  22  10  -11.60   12.23
   0  22  11    1.73    9.42
   0 -22  12   44.20   18.59
   0  22  12   35.33   14.82
   0  22  13   21.88    8.62
   0 -22  13   24.65   14.68
   0 -22  14   30.50   15.95
   0  22  14    2.10   11.52
   0  22  15   43.61   21.63
   0  22  16    8.22   15.56
   0  23   0  -12.13   12.91
   0  23  -1   -2.82    9.33
   0  23   1    0.32    7.80
   0  23  -2   30.38   12.52
   0  23   2   38.35   14.69
   0  23   3   -4.08   10.57
   0  23  -3   -0.84    1.45
   0  23  -4   85.88   23.19
   0  23   4   70.17   22.87
   0  23   5   39.43   16.45
   0  23  -5   51.19   17.89
   0  23  -6   35.50   13.69
   0 -23  -6   51.48   14.09
   0  23   6   32.42   14.40
   0  23   7   28.79   14.57
   0 -23  -7   55.56   16.87
   0  23   8   -6.35   11.31
   0  23   9   38.44   16.80
   0  23  10    1.59   14.07
   0  23  11   -5.17   13.00
   0 -23  12   87.85   27.08
   0  23  12   79.69   28.51
   0 -23  13   18.55   13.31
   0  23  13    4.73    8.50
   0 -23  14   30.24   17.45
   0  23  14   22.43   16.39
   0  23  15   29.83   23.80
   0  24   0   32.30   13.01
   0  24  -1  105.14   25.56
   0  24   1  107.68   27.12
   0  24   2  112.01   28.47
   0  24  -2  118.14   26.27
   0  24   3    9.26    2.81
   0  24  -3   24.30   13.49
   0  24   4   10.55    6.00
   0  24  -4   18.72   11.07
   0  24   5   82.39   25.37
   0  24  -5   81.93   22.09
   0  24  -6   64.90   18.80
   0  24   6   48.70   19.50
   0  24   7   25.70   12.96
   0  24   8  -10.61   13.52
   0  24   9   -8.04   15.93
   0  24  10    7.86    5.42
   0  24  11   -9.27   14.06
   0  24  12  -24.18   21.01
   0  24  13   -3.13   11.42
   0 -24  13    7.81   10.16
   0  24  14    9.00    9.44
   0 -24  14   12.97   12.88
   0  25   0  -11.56   14.93
   0  25   1   14.27    5.87
   0  25  -1    9.03    7.22
   0  25   2   29.09   13.44
   0  25  -2   23.74   13.88
   0  25  -3   51.64   19.00
   0  25   3   30.62    9.67
   0  25  -4   10.84   10.56
   0  25   4  -14.33   16.78
   0  25  -5   11.90   11.06
   0  25   5   -3.78    9.24
   0  25   6    3.44    5.98
   0  25   7   -4.68   14.31
   0  25   8   13.34    4.42
   0  25   9    8.08    2.86
   0  25  10   57.01   23.28
   0  25  11   62.57   23.35
   0  25  12   62.17   22.03
   0  25  13   -7.50   11.01
   0 -25  13    8.37   10.49
   0 -25  14    2.38    8.63
   0  26   0  -11.57   15.93
   0  26   1   87.65   25.86
   0  26  -1   87.53   25.58
   0  26  -2  185.50   37.25
   0  26   2  147.85   34.14
   0  26  -3   18.46   12.20
   0  26   3    3.65    7.30
   0  26  -4    1.71    7.12
   0  26   4  -12.73   15.89
   0  26   5   26.47   12.75
   0  26  -5   49.57   17.57
   0  26   6   47.09   19.94
   0  26   7  -10.93   14.96
   0  26   8    1.43    8.31
   0  26   9    1.64    6.98
   0  26  10   -7.87   15.10
   0  26  11   -3.20   10.00
   0  26  12   -7.78   13.00
   0 -26  13   26.94   18.09
   0 -26  14   39.46   19.86
   0  27   0   -3.12    7.63
   0  27   1    2.55   10.98
   0  27  -1   20.99   16.14
   0  27  -2  123.47   30.96
   0  27   2   89.22   25.79
   0  27  -3   24.34   15.53
   0  27   3   -2.76   12.21
   0  27  -4   18.25   12.94
   0  27   4    5.03    9.47
   0  27   5   14.56    4.83
   0  27   6    1.23    8.52
   0  27   7   -3.72   12.89
   0  27   8  -19.75   20.34
   0  27   9    6.47    9.19
   0  27  10   14.96   10.15
   0  27  11  -10.00   14.37
   0 -27  13   15.11   14.59
   0 -27  14    4.96    8.33
   0  28   0   10.12   12.58
   0  28  -1   49.52   22.07
   0  28   1   29.79   18.78
   0  28  -2   16.64   13.13
   0  28   2  -10.99   14.90
   0  28  -3   24.94   14.98
   0  28   3   12.07    6.51
   0  28  -4    6.38    8.80
   0  28   4   -4.25   12.53
   0  28   5   13.70    9.82
   0  28   6  -13.08   16.86
   0  28   7   46.48   19.48
   0  28   8   -7.20    9.86
   0  28   9   11.81    7.00
   0 -28  13    4.99    8.80
   0  29   0   12.63   15.07
   0  29   1   13.76   15.69
   0  29  -1    7.69   12.58
   0  29  -2    4.14    8.75
   0  29   2    8.47    5.30
   0  29  -3   55.96   22.08
   0  29   3   47.03   21.73
   0  29   4   -5.98   10.28
   0  29   5   15.50    3.37
   0  29   6  -17.98   16.58
   0  29   7  -13.15   18.54
   0  29   8   -8.49    8.92
   0  30   0   11.81   12.99
   0  30   1   63.83   26.45
   0  30  -1   51.02   21.09
   0  30  -2   60.15   23.77
   0  30   2   82.64   29.89
   0  30  -3    5.01   10.36
   0  30   3   14.22   16.66
   0  30   4   32.48   17.07
   0  30   5    4.73    9.25
   0  30   6   11.28    2.55
   0  30   7   14.51    5.16
   0  31   0    8.04   14.05
   0  31   1   13.45   14.06
   0  31  -1    7.28   10.79
   0  31   2   62.20   27.90
   0  31  -2   30.94   17.21
   0  31   3   10.69   16.08
   0  31   4   16.26   16.17
   0  31   5   26.64   19.98
   0  32   0   16.28   14.92
   0  32  -1   11.71   13.64
   0  32   1   13.89   16.34
   0  32   2   48.09   24.25
   0  32  -2   33.80   18.71
   0  32   3   20.99   17.14
   0  32   4   30.51   23.03
   0  33   0   15.83   18.52
   0  33  -1    1.16    3.92
   0  33   1   31.47   19.66
   0  33   2   25.04   17.54
   0  34   0   12.60   13.91
   1   0 -22   18.50   16.51
   1   0 -21   25.04   18.66
   1   0 -20    9.78   12.15
   1   0 -19  187.44   38.63
   1   0 -18    3.24    9.30
   1   0 -17   80.50   21.63
   1   0 -16   -3.65    4.11
   1   0 -15   91.62   22.47
  -1   0  15   88.83   15.18
   1   0 -14   -3.64    7.11
  -1   0  14   -1.63    3.89
  -1   0  13   26.27    7.72
   1   0 -13   20.79    8.37
   1   0 -13   31.26    8.25
   1   0 -12   -1.62    2.07
   1   0 -12   -8.67    8.80
  -1   0  12   -1.27    2.59
   1   0 -11   -2.11    8.33
  -1   0  11    9.62    4.95
   1   0 -11    6.48    3.54
  -1   0  11    8.13    4.38
   1   0 -10   -5.69    8.94
   1   0 -10    0.83    1.42
  -1   0  10   -0.37    0.99
  -1   0  10    1.27    1.91
  -1   0   9    1.17    2.15
   1   0  -9   -0.07    0.95
  -1   0   9    0.71    1.17
   1   0  -9   -5.94    8.05
  -1   0   8    0.57    1.15
   1   0  -8   -0.97    1.34
  -1   0   8   -0.26    1.34
   1   0  -7  306.31   22.00
  -1   0   7  315.24   17.84
   1   0  -7  325.15   17.77
  -1   0   7  306.52   21.12
  -1   0   6    1.34    1.45
   1   0  -6   -0.45    0.91
   1   0  -6    3.72    3.98
  -1   0   6   -1.07    2.79
  -1   0   6    2.03    2.31
  -1   0   5  318.49   18.44
   1   0  -5  316.78   13.28
  -1   0   5  333.50   24.43
  -1   0   5  316.45   13.48
   1   0  -5  305.34   18.29
  -1   0   4   -4.03    3.49
   1   0  -4    1.66    1.04
  -1   0   4   -2.15    2.42
  -1   0   3  626.05   26.77
  -1   0   3  629.00   21.76
   1   0   2    0.07    0.47
   1   0   2   -0.54    0.81
   1   0   3  877.37   31.74
   1   0   3  910.82   30.03
  -1   0  -4   -5.47    4.79
   1   0   4   -1.05    2.09
  -1   0  -4    1.00    1.59
   1   0   4   -0.44    1.32
  -1   0  -5  247.66   19.51
  -1   0  -5  232.19   19.37
   1   0   5  232.43   18.98
   1   0   5  241.01   20.46
   1   0   6   -3.58    3.93
  -1   0  -6    1.11    1.40
  -1   0  -6   -1.21    4.34
   1   0   6    1.32    1.75
   1   0   7  173.02   18.88
  -1   0  -7  180.77   18.92
  -1   0  -7  162.33   19.44
   1   0   8   -2.65    4.02
  -1   0  -8   -3.73    3.84
  -1   0  -8   -2.66    6.59
   1   0   9   24.43    8.89
  -1   0  -9    9.94    3.86
   1   0   9   15.43    6.31
   1   0  10   -1.26    2.98
  -1   0 -10   -8.13    7.65
   1   0  10    3.00    5.72
  -1   0 -11    1.03    2.47
   1   0  11    2.78    3.35
   1   0  11    2.54    4.11
  -1   0 -12   -1.13    2.61
   1   0  12    2.32    3.11
   1   0  12   -1.43    4.75
   1   0  13  340.99   34.86
   1   0  13  336.22   30.80
  -1   0 -13  357.10   40.51
  -1   0 -14    6.95    8.00
   1   0  14    0.55    5.92
   1   0  14   -5.24    6.89
  -1   0 -15  170.62   31.55
  -1   0 -16    5.57    9.90
  -1   0 -17   29.99   16.55
  -1   0 -18    8.27   10.63
  -1   0 -19   90.93   26.00
  -1   0 -20   19.20   15.57
   1   1 -22   35.59   19.82
   1  -1 -22   20.10   15.76
   1  -1 -21   30.16   18.08
   1   1 -21   31.27   20.11
   1  -1 -20   64.39   22.68
   1   1 -20   87.33   26.90
   1   1 -19   38.93   18.65
   1  -1 -19   16.56   14.73
   1  -1 -18   55.66   19.79
   1   1 -18   51.91   20.53
   1   1 -17   33.97   16.38
   1  -1 -17   18.17    8.74
   1  -1 -16    4.39    5.19
  -1   1  16    6.04    1.00
  -1   1  15  230.79   26.63
   1  -1 -15  248.18   36.15
  -1  -1  15  224.82   23.41
   1   1 -15  233.05   36.69
  -1  -1  14   15.12    6.69
  -1  -1  14   10.21    2.80
  -1   1  14   11.22    5.60
   1   1 -14   18.08    9.86
   1  -1 -14    7.60    1.65
  -1   1  13   13.61    5.68
  -1  -1  13    7.93    2.48
   1  -1 -13   15.79    6.20
  -1  -1  13   15.31    6.50
   1   1 -13    6.25    3.99
   1  -1 -13   -2.05    7.75
   1  -1 -12    5.14    3.10
  -1   1  12    8.32    5.69
   1   1 -12    6.32    5.64
  -1  -1  12    2.64    1.38
  -1  -1  12    4.56    3.50
  -1  -1  11   44.94    8.72
  -1   1  11   50.42   11.56
   1  -1 -11   40.20   10.64
   1   1 -11   52.60   10.05
   1   1 -11   48.58   13.22
   1  -1 -11   47.58    9.06
  -1  -1  11   48.07    9.51
   1   1 -10    0.72    2.60
   1  -1 -10   -1.00    1.78
   1  -1 -10   -6.69    7.73
  -1  -1  10    0.07    1.15
   1   1 -10   -0.68    3.41
  -1   1  10    4.32    4.73
  -1  -1  10    0.51    1.90
   1   1  -9  128.17   13.53
  -1   1   9  125.23   16.97
   1  -1  -9  129.15   13.34
  -1  -1   9  126.29   13.55
   1  -1  -9  120.88   20.45
  -1  -1   9  125.30   13.45
  -1  -1   8   52.25    8.11
  -1   1   8   54.62   11.35
   1   1  -8   57.21    8.37
  -1  -1   8   54.42    8.21
   1  -1  -8   59.51    8.19
  -1   1   7  973.04   41.33
   1   1  -7  993.92   35.13
  -1  -1   7 1019.15   32.24
   1   1  -7 1027.22   32.75
  -1  -1   7 1007.94   34.31
   1  -1  -7 1037.47   31.85
   1  -1  -7  985.13   42.17
   1  -1  -6    1.06    1.27
  -1  -1   6    1.10    0.22
  -1   1   6    2.24    3.63
   1   1  -6    3.21    2.33
  -1  -1   6   -0.91    2.01
   1  -1  -6    4.52    5.68
   1   1  -6    4.71    2.69
  -1  -1   6   -1.62    2.90
  -1  -1   5  710.04   24.92
   1  -1  -5  728.34   21.03
   1   1  -5  754.40   25.63
  -1  -1   5  733.97   21.28
   1  -1  -5  735.59   31.59
  -1   1   5  738.55   31.81
  -1  -1   5  758.34   37.38
  -1  -1   4  230.16   18.68
   1   1  -4  217.68   12.75
  -1   1   4  234.18   16.28
   1  -1  -4  223.75   16.03
  -1  -1   4  223.69   12.47
   1   1  -3  647.02   19.39
  -1  -1   3  648.05   27.78
  -1   1   3  638.82   24.63
   1  -1   2 1378.06   36.37
   1   1   2 1367.21   36.42
   1  -1   2 1397.99   31.60
   1  -1   3  131.36   11.57
   1  -1   3  129.07   12.13
   1   1   3  127.11   12.41
  -1  -1  -4   -0.47    1.49
   1   1   4    2.38    1.89
   1  -1   4    5.61    3.61
  -1   1  -4   -1.42    2.80
  -1  -1  -4    0.68    1.19
  -1   1  -4    0.06    1.92
   1  -1   4   -0.36    0.73
  -1   1  -5  455.27   27.60
  -1   1  -5  475.79   27.27
   1   1   5  454.05   27.24
  -1  -1  -5  464.01   27.19
  -1  -1  -5  443.54   27.73
   1  -1   5  477.71   28.94
   1  -1   5  450.77   26.90
   1  -1   6   17.17    5.40
   1  -1   6   17.84    6.24
  -1  -1  -6   13.30    4.87
   1   1   6   14.39    5.10
  -1  -1  -6   15.08    6.00
  -1   1  -6   13.35    4.68
  -1   1  -6   14.20    5.78
  -1   1  -7  106.61   16.12
   1  -1   7  110.59   15.28
  -1  -1  -7  125.47   17.19
  -1   1  -7  121.26   15.46
  -1  -1  -7  119.46   15.48
   1  -1   7  127.10   17.63
   1   1   7  117.33   15.59
  -1   1  -8  166.40   19.41
  -1  -1  -8  150.00   19.85
  -1   1  -8  160.79   21.10
   1  -1   8  171.52   19.58
   1   1   8  173.63   20.06
  -1  -1  -8  170.54   19.49
  -1  -1  -9   11.31    2.60
   1   1   9   29.90   10.11
  -1   1  -9   25.17    9.64
   1  -1   9   26.38    7.95
   1   1   9   24.07    7.61
   1  -1   9   20.06    6.54
   1   1  10    8.30    7.37
  -1   1 -10    8.73    6.19
   1  -1  10    1.59    0.58
   1   1  10    5.68    4.19
   1  -1  10    7.69    4.36
  -1  -1 -10   -5.93    8.61
   1   1  11   15.58    6.41
   1  -1  11   20.85    7.86
   1  -1  11   22.34    6.29
   1   1  11   20.67    8.31
  -1  -1 -11   14.58    3.71
  -1   1 -11   30.05   11.29
   1  -1  12  120.40   16.49
   1   1  12  121.40   20.18
   1   1  12  130.92   18.77
  -1   1 -12  123.55   22.99
  -1  -1 -12  118.28   21.37
   1  -1  12  114.54   19.26
   1   1  13   22.08    4.08
  -1   1 -13   29.45   13.37
   1  -1  13   25.81    9.56
   1  -1  13   25.22    5.67
  -1  -1 -13   26.00    8.46
   1  -1  14    5.61    6.47
   1  -1  14    1.93    3.24
   1   1  14   -3.39    7.12
  -1   1 -14   13.84    9.88
  -1  -1 -14    0.40    3.11
   1  -1  15   56.07   14.87
  -1  -1 -15   47.95   15.57
  -1   1 -15   62.17   19.72
   1   1  15   54.17   13.72
  -1  -1 -16    5.73    9.21
   1  -1  16    2.51    4.77
  -1   1 -16    8.51    9.19
  -1  -1 -17  114.58   28.18
  -1   1 -17  128.82   30.20
  -1   1 -18   14.10   13.60
  -1  -1 -18   14.95   13.25
  -1  -1 -19   38.96   20.06
  -1   1 -19   49.12   20.84
  -1  -1 -20   33.89   19.07
  -1  -1 -21   53.37   23.51
   1  -2 -22    9.61   10.81
   1  -2 -21   12.45   13.40
   1  -2 -20   24.69   15.12
   1   2 -20   29.48   16.33
   1   2 -19   63.82   23.84
   1  -2 -19   58.20   21.34
   1  -2 -18   37.91   16.55
   1   2 -18   63.37   22.79
   1   2 -17  215.90   38.71
   1  -2 -17  205.30   36.83
   1  -2 -16  220.57   37.19
   1   2 -16  232.08   38.72
  -1   2  16  231.12   29.47
   1   2 -15    2.23    5.81
  -1   2  15    1.82    5.05
  -1  -2  15    2.60    4.57
   1  -2 -15  -10.53   11.53
  -1   2  14  119.53   19.94
   1  -2 -14  102.26   22.00
   1   2 -14  130.75   26.78
  -1  -2  14  114.31   15.21
  -1  -2  14  125.68   17.86
   1  -2 -13   22.28    7.18
  -1  -2  13   22.97    7.59
  -1   2  13   22.49    9.57
   1   2 -13   25.77   10.81
  -1  -2  13   21.31    6.47
   1  -2 -13   15.97    2.50
  -1  -2  12  589.95   35.60
  -1   2  12  577.03   41.75
  -1  -2  12  585.63   31.80
   1   2 -12  588.90   51.33
   1  -2 -12  612.18   35.42
   1  -2 -12  574.23   50.50
  -1   2  11   82.63   16.29
  -1  -2  11   77.95   10.93
   1  -2 -11   79.29   18.30
   1   2 -11   86.42   19.02
   1  -2 -11   80.32   12.12
  -1  -2  11   79.31   12.30
  -1   2  10  216.80   25.27
   1  -2 -10  217.99   18.88
   1   2 -10  224.10   28.55
   1  -2 -10  214.64   28.56
  -1  -2  10  202.87   16.75
  -1  -2  10  217.60   19.03
  -1   2   9   34.79   10.79
   1  -2  -9   36.40    7.26
   1  -2  -9   33.70   10.68
  -1  -2   9   31.28    6.92
  -1  -2   9   30.52    5.92
  -1  -2   8   25.32    5.73
   1  -2  -8   25.65    5.53
  -1   2   8   29.20   10.14
  -1  -2   8   22.06    4.79
  -1  -2   7   19.07    4.48
  -1  -2   7   18.96    4.20
   1   2  -7   23.03    5.88
  -1   2   7   22.37    8.05
   1  -2  -7   16.98    4.39
   1  -2  -6    9.14    2.80
  -1  -2   6   10.03    2.70
   1  -2  -6   20.46    7.72
  -1  -2   6   13.69    6.48
  -1  -2   6    9.77    2.71
  -1   2   6   12.45    6.28
   1   2  -6    9.51    2.82
   1  -2  -5  365.73   16.82
  -1  -2   5  366.95   15.60
  -1  -2   5  366.69   16.81
   1  -2  -5  360.54   24.13
   1   2  -5  370.23   15.82
  -1  -2   5  374.58   27.13
  -1   2   5  363.69   24.63
  -1  -2   4    7.91    1.64
   1   2  -4   15.07    2.13
  -1  -2   3    6.08    2.84
  -1   2   3   11.63    4.36
   1  -2   2 1433.64   39.12
   1   2   3    9.24    4.63
   1  -2   3    3.62    1.21
   1  -2   3    9.32    4.52
   1   2   4  924.63   36.42
  -1   2  -4  932.27   36.81
  -1  -2  -4  924.34   36.58
  -1   2  -4  892.99   35.86
   1  -2   4  907.47   36.41
   1  -2   4  928.46   37.40
  -1   2  -5   98.26   13.36
  -1  -2  -5   96.86   12.42
   1  -2   5   93.98   12.37
   1   2   5   95.04   12.77
   1  -2   5   90.98   12.87
  -1   2  -5  103.54   13.07
  -1  -2  -5   90.81   12.27
  -1  -2  -6  205.26   20.47
  -1   2  -6  207.32   19.72
   1  -2   6  196.24   19.44
   1  -2   6  209.19   21.43
  -1   2  -6  194.44   20.51
   1   2   6  210.66   19.78
  -1  -2  -6  204.50   19.20
  -1  -2  -7    5.32    2.98
   1  -2   7    5.84    3.00
  -1   2  -7    3.56    3.20
   1   2   7    7.02    4.34
   1  -2   7    7.49    4.31
  -1   2  -7    8.02    5.12
  -1  -2  -7    5.05    3.36
  -1  -2  -8 1513.66   58.45
  -1   2  -8 1551.64   59.46
  -1   2  -8 1464.97   64.22
   1  -2   8 1478.65   59.14
   1   2   8 1480.33   59.00
  -1  -2  -8 1469.81   64.58
  -1  -2  -9   41.06   12.05
  -1   2  -9   52.43   14.24
   1  -2   9   44.98    9.12
   1  -2   9   44.03   10.61
   1   2   9   47.19   11.40
   1   2   9   48.36   13.07
  -1   2 -10  487.65   42.54
   1   2  10  464.88   37.37
  -1  -2 -10  455.71   40.36
   1  -2  10  492.51   28.54
   1  -2  10  484.55   36.49
   1   2  10  470.53   36.37
   1  -2  11   25.03    6.28
   1   2  11   31.50   10.01
  -1   2 -11   42.21   14.28
   1  -2  11   21.13    7.38
  -1  -2 -11   14.64    1.50
   1   2  12   13.00    5.98
   1  -2  12   10.84    5.17
   1  -2  12   10.28    0.39
  -1  -2 -12    7.37    2.79
   1  -2  13    2.43    1.23
  -1   2 -13   13.16   11.54
   1  -2  13    7.23    5.74
  -1  -2 -13   -1.68    8.49
   1   2  13   -1.88    4.04
  -1   2 -14  128.93   27.01
   1  -2  14  118.37   21.24
  -1  -2 -14  106.60   23.01
   1  -2  14  116.76   16.05
   1   2  14  117.90   20.10
  -1  -2 -15  327.91   43.32
   1  -2  15  341.79   37.60
   1   2  15  327.81   35.99
  -1   2 -15  339.59   43.94
  -1  -2 -16   31.96   13.27
   1  -2  16   45.43   14.24
  -1   2 -16   53.88   19.98
  -1   2 -17   19.95   14.36
  -1  -2 -17    7.15    8.38
  -1  -2 -18    9.13    9.98
  -1  -2 -19    7.58    8.16
  -1  -2 -20   19.75   15.68
  -1  -2 -21   21.06   16.75
  -1  -2 -22   68.64   25.98
   1  -3 -22   54.74   23.65
   1  -3 -21    3.31    5.97
   1  -3 -20   70.87   24.39
   1  -3 -19   -4.58    9.04
   1  -3 -18    4.21    5.32
   1   3 -18   15.45   14.68
   1  -3 -17   -4.53    8.15
   1   3 -17   24.28   16.59
   1   3 -16   52.92   19.89
  -1   3  16   46.93   13.91
   1  -3 -16   30.93   10.69
   1  -3 -15   36.52   10.30
  -1   3  15   52.55   15.38
  -1  -3  15   50.19   11.82
   1   3 -15   72.90   21.95
   1   3 -14  199.66   32.40
  -1   3  14  189.91   27.37
   1  -3 -14  168.40   28.98
  -1  -3  14  193.82   22.71
  -1  -3  14  176.34   16.40
   1  -3 -13    0.88    2.02
  -1   3  13    4.43    7.56
   1  -3 -13    1.25    7.62
   1   3 -13    8.48    9.97
  -1  -3  13    0.50    2.61
  -1  -3  13    0.90    1.29
   1   3 -12  131.25   25.01
  -1  -3  12  103.10   11.97
   1  -3 -12  106.89   22.78
  -1  -3  12  100.79   14.87
  -1   3  12  115.60   20.52
   1  -3 -12  108.59   15.12
   1  -3 -11    3.42    1.23
   1   3 -11    2.92    5.71
  -1  -3  11    3.67    2.29
  -1  -3  11    3.11    1.75
  -1   3  11   11.85    7.94
   1  -3 -11    5.46    3.30
   1  -3 -10    1.68    2.66
  -1  -3  10    2.37    0.74
   1   3 -10    8.04    6.54
  -1  -3  10    2.48    2.15
   1  -3 -10    4.57    3.30
  -1   3  10    6.04    8.25
  -1  -3   9   48.28    8.95
  -1  -3   9   48.34    6.86
   1  -3  -9   54.76    9.06
   1  -3  -9   52.52   12.25
  -1   3   9   61.32   12.59
  -1   3   8 1614.52   64.88
  -1  -3   8 1650.40   37.04
   1  -3  -8 1672.26   48.53
  -1  -3   8 1637.93   48.81
   1  -3  -7   29.63    6.11
   1   3  -7   31.84    5.40
  -1  -3   7   29.14    5.99
  -1   3   7   21.69    5.84
  -1  -3   6   27.65    7.20
   1  -3  -6   28.51    5.83
   1   3  -6   24.33    3.69
  -1   3   6   22.10    4.85
   1  -3  -6   33.45    9.54
  -1  -3   6   28.39    5.77
  -1   3   5   41.34    7.22
   1  -3  -5   59.52   12.00
  -1  -3   5   57.17   10.94
  -1  -3   4  915.16   39.32
  -1   3   4  843.47   37.01
  -1  -3   3  226.87   17.83
  -1   3   3  223.19   18.42
  -1   3   2 1361.52   41.22
  -1   3  -1  317.81   14.94
   1  -3   2  191.66   15.53
   1  -3   2  200.06   10.98
   1  -3   3    8.77    3.88
  -1  -3  -4   56.17    9.51
   1  -3   4   48.47    8.62
  -1   3  -4   57.87    9.92
   1  -3   4   52.40    9.68
   1  -3   5    4.04    2.15
  -1   3  -5    7.71    4.18
   1  -3   5    6.29    2.73
  -1  -3  -5    6.66    2.83
   1  -3   6  326.28   25.74
  -1  -3  -6  311.55   25.88
  -1  -3  -6  338.14   25.29
  -1   3  -6  336.76   25.46
   1  -3   6  338.72   27.93
  -1   3  -7   83.17   13.82
  -1  -3  -7   77.04   14.05
  -1  -3  -7   84.14   13.52
  -1   3  -7   87.49   15.50
   1  -3   7   79.60   13.41
   1  -3   8   16.43    5.56
   1  -3   8   19.63    5.38
  -1   3  -8   21.03   10.12
  -1  -3  -8   12.75    4.44
  -1  -3  -8   14.76    5.61
  -1   3  -8   17.94    7.09
   1   3   9   29.17   10.87
   1  -3   9   28.54    8.61
  -1   3  -9   34.14   12.05
  -1  -3  -9   29.40    9.48
   1  -3   9   32.24    6.45
   1  -3  10    7.17    4.33
   1  -3  10    2.50    0.80
   1   3  10    9.83    9.60
  -1  -3 -10    5.02    2.62
  -1   3 -10   17.00   11.14
   1  -3  11    2.77    2.80
   1   3  11   10.37    9.10
   1  -3  11    6.79    4.30
  -1  -3 -11   10.69    8.41
  -1   3 -11   24.96   12.96
   1  -3  12  357.53   34.53
   1   3  12  360.14   35.95
  -1   3 -12  371.17   40.16
   1  -3  12  355.16   23.39
  -1  -3 -12  341.62   38.55
   1  -3  13   -0.63    4.69
   1  -3  13    5.90    4.18
   1   3  13    0.74    3.56
  -1  -3 -13   -4.89    9.63
  -1   3 -14  124.57   27.19
  -1  -3 -14  106.00   22.94
   1  -3  14  103.20   19.89
   1   3  14  119.89   21.76
   1   3  15   -6.58    7.46
  -1  -3 -15   -8.75   10.94
   1  -3  15    0.30    1.95
   1  -3  16   46.42   14.27
  -1  -3 -16   37.02   14.08
  -1  -3 -17    9.21    7.45
  -1  -3 -18   45.20   18.78
  -1  -3 -19    3.33    7.31
  -1  -3 -20   20.93   15.09
  -1  -3 -21   16.88   14.30
  -1  -3 -22   21.98   16.40
   1  -4 -22   10.31   10.59
   1  -4 -21    6.15    7.62
   1  -4 -20    1.66    7.16
   1  -4 -19   36.15   14.59
   1  -4 -18   32.49   12.23
   1  -4 -17   34.54   13.02
  -1   4  17   44.22   14.55
  -1   4  16    0.31    0.80
   1  -4 -16   -7.96   13.10
  -1   4  15   12.27    8.76
  -1  -4  15    3.41    1.00
  -1  -4  14  103.59   16.72
  -1   4  14  105.66   21.51
   1   4 -14  111.57   25.08
   1  -4 -14  118.92   26.19
   1   4 -13   93.49   23.96
  -1   4  13   73.65   17.86
  -1  -4  13   53.66   11.66
   1  -4 -13   58.35   17.36
  -1   4  12  550.46   46.12
   1  -4 -12  562.92   51.20
  -1  -4  12  571.73   36.53
   1   4 -12  558.06   49.95
   1  -4 -12  574.34   35.93
   1  -4 -11   53.27   10.55
  -1  -4  11   52.92   10.65
  -1   4  11   59.88   15.64
   1  -4 -11   46.95   14.15
   1   4 -11   60.74   17.60
  -1  -4  10  312.21   24.83
   1  -4 -10  324.62   24.50
   1  -4 -10  311.93   34.50
   1   4 -10  324.79   35.18
  -1   4  10  314.17   32.76
   1  -4  -9    3.15    2.54
  -1  -4   9    0.79    0.84
  -1   4   9   -1.64    6.69
   1  -4  -9    1.42    2.82
  -1   4   8   -4.06    5.88
   1  -4  -8   -0.61    2.35
  -1  -4   8    1.07    0.75
  -1  -4   7  475.46   26.55
  -1   4   7  467.37   36.57
   1  -4  -7  490.48   26.68
  -1  -4   6    1.71    1.85
   1  -4  -6    7.70    6.56
  -1   4   6   -1.63    5.47
  -1  -4   6    4.34    3.13
  -1   4   5  626.32   36.05
  -1  -4   5  660.82   37.95
   1  -4  -5  628.90   37.41
  -1  -4   4   20.89    8.03
  -1   4   4   -3.94    6.73
  -1   4   3   58.33    9.17
  -1   4   2   16.76    5.53
  -1   4   1   31.31    6.82
  -1   4   1   28.67    5.02
  -1  -4   0  460.15   22.06
  -1   4   0  493.06   23.17
  -1   4  -1    5.93    1.03
  -1   4  -2    0.59    0.61
   1  -4   2    1.78    1.44
   1  -4   3  996.83   25.05
   1  -4   3 1005.84   39.69
  -1  -4  -4   97.77   12.79
   1  -4   4   85.60   12.25
   1  -4   4   87.28    6.88
   1  -4   4   91.60   13.29
  -1  -4  -5  241.62   21.62
   1  -4   5  233.40   21.28
   1  -4   5  248.74   22.76
   1  -4   6   95.53   13.97
   1  -4   6   98.34   15.20
  -1  -4  -6   93.58   13.91
  -1  -4  -7    0.57    1.72
   1  -4   7   -0.86    0.17
   1  -4   8  600.03   21.45
   1  -4   8  622.22   39.79
   1   4   8  603.40   43.20
  -1  -4  -8  622.60   43.17
   1  -4   9  256.29   14.67
   1   4   9  257.41   30.33
   1  -4   9  262.63   26.82
  -1  -4  -9  262.39   30.08
   1  -4  10  170.85   22.52
   1  -4  10  156.62   12.03
   1   4  10  165.05   25.15
  -1  -4 -10  170.72   25.40
   1  -4  11   27.19    5.81
   1  -4  11   21.90    7.75
  -1  -4 -11   19.65    9.24
   1   4  11   25.30   10.30
   1   4  12    2.28    4.71
  -1  -4 -12   -4.06    3.14
   1  -4  12    3.30    2.53
   1  -4  12    0.44    1.42
  -1  -4 -13   29.75    9.44
   1  -4  13   50.38   13.53
   1   4  13   55.40   14.97
   1  -4  13   40.66    6.61
  -1  -4 -14   21.12    8.20
   1   4  14   33.49   10.82
   1  -4  14   28.27   10.32
   1   4  15   85.87   19.35
  -1  -4 -15   57.75   16.57
   1  -4  15   79.40   18.01
  -1  -4 -16   30.03   11.32
   1  -4  16   36.02   12.64
   1   4  16   28.75    9.50
  -1  -4 -17   -3.40    7.46
  -1  -4 -18   -0.85    7.45
  -1  -4 -19   24.94   14.08
  -1  -4 -20   14.61   12.20
  -1  -4 -21   11.50   11.75
  -1  -4 -22   73.76   27.60
   1  -5 -22    5.52    3.47
   1  -5 -21   -2.39    5.29
   1  -5 -20    4.53    3.50
   1  -5 -19   21.18   10.95
   1  -5 -18   -1.70    9.85
  -1   5  17   15.07    9.21
   1  -5 -17   -8.37   13.23
   1  -5 -16    0.57   11.23
  -1   5  16   17.30   10.36
   1  -5 -15    3.43    5.00
  -1  -5  15   -0.22    0.90
  -1   5  15    1.21    5.59
   1  -5 -14   98.78   24.38
  -1   5  14  120.82   23.69
  -1  -5  14   91.64   15.95
  -1   5  13    8.28    9.11
  -1  -5  13   -0.74    3.14
   1  -5 -13   -4.00    6.65
  -1   5  12   94.47   21.55
   1  -5 -12   83.54   18.94
  -1  -5  12   78.08   13.72
  -1   5  11   10.27    6.91
   1  -5 -11   13.06    6.66
  -1  -5  11   13.60    5.75
   1  -5 -11   14.68    6.10
   1  -5 -10  135.01   23.60
   1  -5 -10  143.90   17.13
  -1   5  10  126.10   20.68
  -1  -5  10  140.29   17.24
   1  -5  -9  468.14   29.87
  -1  -5   9  439.45   29.51
  -1   5   9  433.82   37.94
   1  -5  -8   32.63    7.81
  -1  -5   8   26.57    7.20
  -1   5   8   18.72    4.79
  -1   5   7   95.13   15.78
  -1  -5   7   93.76   12.69
  -1   5   6    8.19    2.06
   1  -5  -6   23.78    9.98
  -1  -5   5  578.91   37.27
  -1   5   5  575.24   37.41
  -1   5   4  925.29   45.30
  -1   5   3  181.85   18.75
   1  -5  -2 1698.29   42.92
  -1   5   2 1741.16   55.30
  -1   5   2 1762.72   45.46
  -1   5   1 1523.33   48.99
   1   5  -1 1597.04   42.24
  -1   5   1 1536.33   41.40
  -1  -5   0  268.97   17.11
  -1   5   0  285.06   19.67
   1  -5   1  733.61   28.88
  -1   5  -1  732.34   28.43
   1  -5   2   87.53    9.94
  -1   5  -2   74.53    8.04
   1  -5   3  167.03   11.75
  -1   5  -3  170.84   11.43
   1  -5   4   26.81    7.57
   1  -5   4   22.69    3.91
   1  -5   5  425.02   30.70
  -1  -5  -5  439.34   30.13
   1  -5   5  406.45   29.47
   1  -5   6   28.86    8.77
   1  -5   6   24.24    7.09
  -1  -5  -6   33.65    8.67
   1  -5   7    4.90    2.24
  -1  -5  -7    9.91    4.55
   1   5   8  143.25   23.23
   1  -5   8  146.38   19.61
  -1  -5  -9    1.25    4.27
   1  -5   9    8.26    5.24
   1   5   9   15.32   10.66
   1  -5  10   33.78   10.03
  -1  -5 -10   31.77   10.34
   1   5  10   43.10   15.56
  -1  -5 -11  120.86   22.15
   1  -5  11  122.98   20.06
   1   5  11  128.81   22.96
   1   5  12   86.79   18.70
   1  -5  12   81.20   17.23
  -1  -5 -12   83.02   20.04
   1   5  13   26.77   11.88
   1  -5  13   23.52    9.51
  -1  -5 -13   21.33   10.12
   1  -5  14    7.46    5.49
   1   5  14    5.06    3.30
  -1  -5 -14   -5.83    9.26
   1  -5  15   11.58    7.15
   1   5  15   17.67    8.19
  -1  -5 -15    5.81    4.53
   1   5  16   12.99    4.67
   1  -5  16   19.37    8.40
  -1  -5 -16    4.11    7.62
  -1  -5 -17   42.62   15.61
  -1  -5 -18   -3.97    7.72
  -1  -5 -19   12.00    9.68
  -1  -5 -20    2.47    6.66
  -1  -5 -21   13.45   12.23
  -1  -5 -22   29.86   18.09
   1  -6 -22   15.85   10.88
   1  -6 -21   19.43   14.86
   1  -6 -20   -2.46    6.28
   1  -6 -19   51.71   19.47
   1  -6 -18  -16.27   14.70
  -1   6  17   39.62   15.22
   1  -6 -17   13.71    5.00
  -1   6  16    3.27    5.94
   1  -6 -16    0.05    1.90
   1  -6 -15   -3.11    7.06
  -1   6  15    2.86    5.57
  -1  -6  15   -0.03    1.89
  -1   6  14   69.74   19.41
   1  -6 -14   44.37   15.84
  -1  -6  14   51.40   12.27
  -1   6  13   69.65   19.42
  -1  -6  13   46.80   11.63
   1  -6 -13   37.58   12.74
  -1   6  12   29.49   11.70
   1  -6 -12   18.25    5.78
  -1  -6  12   21.01    7.59
  -1   6  11   89.14   17.42
  -1  -6  11   90.42   14.98
   1  -6 -11   87.33   18.82
  -1  -6  10   26.39    7.60
   1  -6 -10   26.22    7.61
  -1   6  10   28.29    8.69
  -1   6   9   -4.13    6.60
   1  -6  -9    2.68    3.31
  -1  -6   9    1.29    2.13
  -1   6   8   -4.07    5.44
  -1  -6   8    4.10    3.78
  -1   6   7   65.64   13.33
  -1   6   6   50.36   11.91
  -1  -6   5 1413.85   58.66
  -1   6   5 1401.19   61.83
  -1   6   4  294.99   27.26
   1  -6  -3  303.89   18.96
  -1   6   3  296.52   24.80
  -1   6   2  115.89   15.07
   1  -6  -2  119.99   12.51
  -1   6   2  118.89   12.10
  -1   6   1   74.27    9.71
   1   6  -1   67.55    7.46
  -1   6   0 1245.20   44.03
  -1  -6   0 1213.21   38.39
   1  -6   1  100.27   11.24
  -1   6  -1  103.09   12.27
   1  -6   2   72.79    9.12
  -1   6  -2   81.74    9.44
  -1   6  -3  148.20   11.83
   1  -6   3  148.68   11.75
   1  -6   4  203.37   12.58
   1  -6   5  154.37    9.64
   1  -6   5  168.18   19.86
   1  -6   6   16.51    6.49
  -1  -6  -6   19.75    7.80
   1  -6   7  278.84   27.26
   1   6   8  131.36   23.22
   1  -6   8  126.98   18.79
   1  -6   9  131.40   19.69
   1   6   9  140.46   24.63
   1   6  10   13.07    9.89
  -1  -6 -10   -2.68    5.32
   1  -6  10    6.27    4.55
   1   6  11    9.74    8.00
  -1  -6 -11    2.95    2.63
   1  -6  11    6.39    5.14
  -1  -6 -12    9.61    7.00
   1   6  12   13.04    7.98
   1  -6  12   10.59    5.80
  -1  -6 -13   27.60   13.04
   1  -6  13   22.16    9.13
   1   6  13   28.65   11.04
  -1  -6 -14   22.98   11.14
   1  -6  14   27.15   10.70
   1   6  14   20.18    8.78
   1  -6  15  374.50   40.60
  -1  -6 -15  401.93   48.75
   1   6  15  424.22   48.27
   1  -6  16   31.79   12.32
  -1  -6 -16   28.97   10.28
   1   6  16   43.34   13.19
  -1  -6 -17   66.86   21.33
  -1  -6 -18   -9.10   10.54
  -1  -6 -19   -5.58   11.50
  -1  -6 -20    7.12    7.40
  -1  -6 -21   -1.77    3.01
  -1  -6 -22   17.58   15.17
   1  -7 -22   -3.04    6.19
   1  -7 -21   -2.28    6.08
   1  -7 -20   -8.34   11.29
   1  -7 -19   31.05   12.27
   1  -7 -18   -3.55   12.97
  -1   7  17   74.98   20.85
   1  -7 -17   68.02   22.13
  -1   7  16   31.75   14.02
   1  -7 -16   25.05   13.97
  -1   7  15   82.89   21.67
   1  -7 -15   92.00   23.76
  -1  -7  15   82.48   16.43
  -1  -7  14    4.41    3.43
   1  -7 -14   -5.03   10.55
  -1   7  14   13.23   10.89
   1  -7 -13    3.01    4.93
  -1  -7  13    7.17    4.44
  -1  -7  12    0.81    2.72
   1  -7 -12   -4.99    6.70
  -1   7  12   -5.76    8.99
  -1   7  11   -9.60   10.83
  -1  -7  11   -0.28    2.27
  -1   7  10   -3.56    8.45
  -1  -7  10    2.21    2.57
  -1  -7   9  295.93   26.70
  -1   7   9  285.43   34.13
  -1   7   8   66.32   15.59
  -1   7   7  468.36   40.77
  -1   7   6    1.97    3.87
  -1   7   5  146.09   20.88
   1  -7  -4  133.88   13.77
  -1   7   4  135.92   18.45
  -1   7   3 1354.74   58.23
   1  -7  -3 1281.44   41.75
  -1   7   2  963.84   37.34
  -1   7   2  920.01   46.30
   1  -7  -2  898.38   32.92
   1   7  -1   -1.68    3.89
  -1   7   1  -12.14    8.84
  -1   7   0  243.93   19.86
  -1  -7   0  240.06   17.55
  -1   7  -1  328.49   23.58
   1  -7   1  331.86   23.23
  -1   7  -2  303.51   20.80
   1  -7   2  308.95   20.69
   1  -7   3  795.44   30.54
  -1   7  -3  756.79   29.89
   1  -7   4   21.62    4.69
  -1   7  -4   19.11    4.16
   1  -7   5  450.66   18.55
   1  -7   6  176.82   21.78
   1  -7   7  423.56   34.91
   1  -7   8   11.11    4.28
   1   7   8   17.64   11.40
   1  -7   9   30.70    9.17
   1   7   9   36.12   14.26
   1  -7  10   22.35    8.23
   1   7  10   36.43   13.52
  -1  -7 -11   77.45   18.70
   1   7  11   92.98   20.84
   1  -7  11   89.98   18.23
  -1  -7 -12   17.83    7.17
   1  -7  12   19.02    8.76
   1   7  12   17.81    9.28
   1  -7  13   35.55   12.33
  -1  -7 -13   33.59   12.60
   1   7  13   32.64   12.40
  -1  -7 -14  218.88   36.02
   1   7  14  217.03   33.84
   1  -7  14  208.37   30.06
   1   7  15   -0.51    4.99
  -1  -7 -15    1.74    3.95
   1  -7  15    4.26    5.33
   1   7  16   13.23    2.16
  -1  -7 -16   13.99    6.93
   1  -7  16   17.17    8.99
  -1  -7 -17   61.14   19.09
   1   7  17   72.63   20.19
  -1  -7 -18    2.85    5.80
  -1  -7 -19   -4.12   12.65
  -1  -7 -20    0.83    6.17
  -1  -7 -21    4.36   10.67
  -1  -7 -22    3.35    2.63
   1  -8 -22   -4.89   10.28
   1  -8 -21    6.90   10.37
   1  -8 -20  -10.62   12.31
   1  -8 -19    9.65    7.67
  -1   8  18    8.30    8.36
   1  -8 -18    5.87    9.12
   1  -8 -17   31.97   16.03
  -1   8  17   33.65   14.42
  -1   8  16   16.80   12.04
   1  -8 -16   17.32   11.73
  -1   8  15    1.98    6.05
  -1  -8  15    0.88    3.04
   1  -8 -15    4.35    3.42
  -1   8  14  166.90   30.84
  -1  -8  14  148.36   22.30
   1  -8 -14  146.49   29.32
  -1  -8  13  133.45   20.90
   1  -8 -13  129.80   26.22
  -1   8  13  135.34   27.94
  -1  -8  12  211.42   25.42
  -1   8  12  178.53   29.30
   1  -8 -12  190.58   31.22
  -1  -8  11   20.81    7.49
  -1   8  11   10.30    7.43
  -1   8  10  183.37   27.45
  -1  -8  10  184.75   23.00
  -1   8   9    0.86    6.20
  -1  -8   9    7.30    6.41
  -1   8   8   79.21   16.88
  -1   8   7   31.54    9.68
   1   8  -6    4.82    3.04
  -1   8   6   -1.42    4.47
   1  -8  -5  718.27   34.74
  -1   8   5  697.15   48.26
  -1   8   4   -1.82    4.94
   1  -8  -4   -3.66    5.22
   1  -8  -3   75.05   10.51
  -1   8   3   77.31   14.36
  -1   8   2  193.82   17.25
  -1   8   2  192.42   21.44
   1   8  -1  192.81   16.23
  -1   8   1  194.46   17.51
  -1   8   1  179.51   20.36
   1  -8   0  321.85   26.19
  -1  -8   0  315.36   20.97
  -1   8   0  321.20   25.34
   1  -8   1   60.22   10.77
  -1   8  -1   61.59   11.87
  -1  -8  -1   68.66   11.31
   1  -8   2  131.63   14.94
   1   8   2  121.04    8.86
  -1   8  -2  133.50   15.10
   1  -8   3   82.13   10.97
  -1   8  -3   83.24   10.80
  -1  -8  -4   95.80    7.56
   1  -8   4  108.24   11.88
  -1   8  -4  110.18   11.39
   1  -8   5  183.70   13.37
  -1   8  -5  181.97   12.98
   1  -8   6    4.02    4.64
   1  -8   7  112.46   18.59
   1   8   7  128.86   24.36
   1   8   8  103.11   21.99
   1  -8   8   82.34   16.39
   1  -8   9   31.40    9.60
   1   8   9   41.82   15.37
   1   8  10   10.13    9.44
   1  -8  10    0.43    4.46
   1   8  11    7.37    5.69
   1  -8  11    0.98    1.28
   1  -8  12   17.11    7.73
  -1  -8 -12   17.54    9.36
   1   8  12   23.76   11.12
   1  -8  13   28.89   11.31
  -1  -8 -13   26.50   10.69
   1   8  13   29.53   12.08
   1   8  14   -3.68    7.15
  -1  -8 -14   -4.94    8.36
   1  -8  14    0.85    4.42
  -1  -8 -15   52.57   18.77
   1   8  15   45.18   15.43
   1  -8  15   55.25   16.30
  -1  -8 -16   10.70    8.46
   1  -8  16   13.42    8.42
   1   8  16    4.75    3.14
  -1  -8 -17   -1.39    8.47
   1   8  17    6.09    4.42
  -1  -8 -18    0.61    6.01
  -1  -8 -19    0.75    8.65
  -1  -8 -20    1.42    0.44
  -1  -8 -21   22.67   12.28
  -1  -8 -22   68.84   25.21
   1  -9 -22   30.06   13.74
   1  -9 -21   -5.90   12.58
   1  -9 -20   34.61   16.26
   1  -9 -19    2.40   10.89
   1  -9 -18    1.78    4.34
  -1   9  18   -2.00    4.97
  -1   9  17    5.26    8.56
   1  -9 -17   -0.05    6.22
  -1   9  16  196.62   35.39
   1  -9 -16  172.79   34.84
  -1   9  15   12.44   10.56
   1  -9 -15    8.62    8.44
  -1  -9  15   12.18    6.47
  -1  -9  14   36.23   11.97
  -1   9  14   40.18   17.07
   1  -9 -14   30.89   14.01
  -1   9  13    2.03    6.72
   1  -9 -13   -1.22    6.27
  -1  -9  13    0.36    3.43
  -1   9  12   65.44   16.33
  -1  -9  12   87.78   16.89
  -1   9  11   60.69   15.26
  -1  -9  11   91.56   16.96
  -1  -9  10   50.08   12.31
  -1   9  10   33.58    7.85
  -1   9   9   -3.11    7.93
  -1   9   8  218.58   30.13
  -1   9   7  208.08   28.00
   1   9  -7  184.08   11.95
   1   9  -6  345.73   19.73
  -1   9   6  329.98   35.98
   1  -9  -5    2.71    4.31
  -1   9   5   13.31    7.36
   1  -9  -4  209.16   18.19
  -1   9   4  222.78   26.33
  -1   9   3   -1.37    4.40
  -1   9   3    1.37    3.24
  -1   9   2  808.50   47.83
  -1   9   2  808.46   38.45
   1   9  -1   60.59    9.69
  -1   9   1   51.70   10.20
  -1   9   1   73.81   11.94
  -1  -9   0  710.99   33.65
   1  -9   0  733.67   41.49
  -1   9   0  692.90   40.84
  -1   9  -1  105.45   14.87
  -1  -9  -1  119.01   14.58
   1  -9   1  120.81   16.36
  -1   9  -2  454.99   29.60
   1   9   2  451.93   19.69
   1  -9   2  461.42   30.25
   1  -9   3  181.35   17.76
  -1   9  -3  171.58   17.25
  -1   9  -4  436.65   25.11
   1  -9   4  425.18   25.39
  -1  -9  -4  393.92   14.98
  -1   9  -5  195.77   15.22
  -1  -9  -5  181.44   12.11
   1   9   7  182.21   28.05
   1  -9   7  178.24   24.47
   1  -9   8  250.32   29.72
   1   9   8  251.53   34.44
   1   9   9  163.73   28.44
   1  -9   9  154.39   23.77
   1   9  10   96.18   22.97
   1  -9  10   84.62   17.88
   1   9  11   17.46    9.87
   1  -9  11   10.87    5.44
   1  -9  12  172.23   27.20
  -1  -9 -12  168.14   29.85
   1   9  12  164.08   29.16
   1  -9  13   72.50   17.85
   1   9  13   67.81   19.73
  -1  -9 -13   63.51   17.39
   1  -9  14   25.15   10.70
   1   9  14   24.45   11.31
  -1  -9 -14   27.16   10.34
   1   9  15   74.69   21.33
   1  -9  15   71.41   18.76
  -1  -9 -15   84.62   23.34
  -1  -9 -16    0.54    6.08
   1   9  16   -3.99    6.65
   1  -9  16    1.59    1.20
  -1  -9 -17   14.88   11.54
   1   9  17    5.21    5.03
  -1  -9 -18    6.77    3.85
  -1  -9 -19   -8.61   13.44
  -1  -9 -20   13.21   10.97
  -1  -9 -21   68.82   23.45
   1 -10 -21   28.59   11.86
   1 -10 -20    1.28    7.67
   1 -10 -19    3.15    7.59
   1 -10 -18   -0.69    1.01
  -1  10  18    3.51    8.93
   1 -10 -17    0.34    2.72
  -1  10  17    5.52    8.98
  -1  10  16   19.75   14.53
   1 -10 -16    8.19    4.81
  -1 -10  15   17.74    8.36
  -1  10  15   13.93   12.70
   1 -10 -15    7.89    4.13
   1 -10 -14  111.40   27.19
  -1 -10  14  118.27   21.40
  -1  10  14  133.32   29.86
  -1 -10  13   89.55   18.21
  -1  10  13   60.39   18.83
  -1 -10  12  129.59   21.38
  -1  10  12  110.44   22.78
  -1  10  11   -3.32   11.93
  -1 -10  11    8.49    6.33
  -1  10  10   68.59   17.68
  -1 -10  10   86.56   17.34
  -1  10   9   -2.71    7.70
  -1  10   8   -2.99    7.21
   1  10  -7    4.55    1.61
  -1  10   7    0.98    6.52
  -1  10   6   81.40   17.75
   1  10  -6   91.32   11.47
   1 -10  -6   77.88   12.00
   1  10  -5 1609.27   51.27
  -1  10   5 1605.17   78.40
   1 -10  -5 1586.23   53.26
   1 -10  -4   48.09    8.98
  -1  10   4   40.71   10.86
  -1  10   3   80.89   15.98
   1 -10  -3  111.81   13.90
  -1  10   3   86.30   12.37
  -1  10   2  180.03   23.39
  -1  10   2  179.86   18.66
   1  10  -2  178.77   16.74
   1 -10  -1   76.13    7.58
  -1  10   1   91.20   13.57
   1  10  -1   80.83   11.16
   1 -10  -1   81.59   16.26
  -1  10   1   71.41   14.41
  -1  10   0  232.24   24.82
  -1 -10   0  229.04   19.84
   1 -10   0  270.48   27.00
  -1 -10  -1   11.18    6.13
   1 -10   1   13.62    7.83
  -1  10  -1   -5.12    6.35
  -1  10  -2  588.81   36.13
   1  10   2  596.36   24.62
   1 -10   2  599.21   36.00
  -1  10  -3  205.85   19.93
  -1  10  -4   21.35    5.80
  -1  10  -5  121.57   13.13
  -1 -10  -5  110.58    9.17
   1  10   6  121.21   24.65
  -1  10  -6  124.96   11.70
  -1 -10  -6  113.89   10.58
   1  10   7   47.72   16.89
   1 -10   7   31.76   10.99
   1 -10   8  418.77   39.14
   1  10   8  387.69   44.25
   1 -10   9    5.76    5.54
   1  10   9    6.35   10.18
   1 -10  10   47.60   13.47
   1  10  10   61.15   18.00
   1 -10  11   12.10    6.75
   1  10  11   27.52   13.15
   1 -10  12  115.66   22.10
   1  10  12  133.76   27.26
   1 -10  13    0.63    4.01
  -1 -10 -13   -5.16    6.23
   1  10  13   -3.67    6.49
  -1 -10 -14   29.50   12.94
   1  10  14   28.04   10.23
   1 -10  14   28.70   12.21
   1 -10  15   18.90    8.97
  -1 -10 -15   20.71   12.61
   1  10  15   14.79    5.11
  -1 -10 -16    9.40    8.21
   1 -10  16   10.75    6.98
   1  10  16    6.45    3.07
   1  10  17   12.45    4.04
  -1 -10 -17   18.65   11.35
  -1 -10 -18    1.77    1.86
  -1 -10 -19   -0.05    9.11
  -1 -10 -20   -6.80   12.31
  -1 -10 -21  -11.24   11.86
   1 -11 -21    9.78    2.34
   1 -11 -20   34.50   19.05
   1 -11 -19   11.31   13.91
   1 -11 -18   -3.97    6.07
  -1  11  18    4.81    8.12
   1 -11 -17   -7.27    8.40
  -1  11  17   11.02   10.66
   1 -11 -16   79.49   24.36
  -1  11  16   90.51   25.76
   1 -11 -15   29.61   13.75
  -1  11  15   33.90   17.86
  -1 -11  15   36.93   12.82
  -1 -11  14  151.03   24.89
  -1  11  14  157.61   33.29
  -1 -11  13   65.39   16.26
  -1  11  13   55.44   15.84
  -1 -11  12   61.84   15.39
  -1  11  12   33.73    6.99
  -1  11  11   17.78    3.41
  -1 -11  11   37.75   11.83
  -1  11  10  -10.63   12.82
  -1  11   9  146.03   27.41
   1  11  -8  160.61   11.53
  -1  11   8  158.11   27.84
  -1  11   7    0.29    4.98
   1 -11  -7    0.83    3.12
   1  11  -7    2.53    1.50
   1 -11  -6   86.90   12.30
   1  11  -6  102.23   12.73
  -1  11   6   85.78   19.47
  -1  11   5  171.51   26.12
   1 -11  -5  156.77   16.81
   1  11  -5  170.61   18.80
   1 -11  -4   19.71    6.58
  -1  11   4    3.30    4.62
   1  11  -4   13.16    7.61
  -1  11   3    3.58    1.10
  -1  11   3    6.10    1.72
  -1  11   2 1254.05   65.32
   1  11  -2 1334.39   47.52
  -1  11   2 1284.30   52.71
  -1  11   1  535.04   41.47
   1 -11  -1  548.16   20.83
   1  11  -1  541.14   29.30
  -1  11   1  560.23   33.55
  -1  11   0  169.34   21.75
  -1 -11   0  158.93   16.75
  -1 -11  -1   15.77    6.24
  -1  11  -1    3.68    5.19
   1  11   2    6.10    2.46
  -1  11  -2   12.88    6.88
  -1  11  -3    3.21    4.14
  -1  11  -4  141.55   16.30
  -1  11  -5  413.53   26.29
   1  11   5  415.49   42.66
   1  11   6   32.67   14.22
  -1  11  -6   30.62    6.29
  -1 -11  -6   26.76    4.74
   1  11   7  352.71   41.76
  -1 -11  -7  319.84   19.57
   1  11   8   55.61   18.53
   1 -11   8   52.53   15.01
   1  11   9  105.86   24.62
   1 -11   9   87.96   18.84
   1 -11  10   63.10   16.48
   1  11  10   70.73   20.56
   1  11  11   22.92   12.56
   1 -11  11   14.20    7.83
   1 -11  12   10.90    5.86
   1  11  12   17.13   11.85
   1 -11  13   34.15   12.22
   1  11  13   42.87   16.25
  -1 -11 -14   -0.32    5.98
   1  11  14    3.13    5.73
   1 -11  14    1.19    1.50
   1 -11  15    6.59    6.20
   1  11  15    5.05    5.78
  -1 -11 -15    8.44    4.79
  -1 -11 -16   -6.59    9.71
   1  11  16   -3.26   10.16
   1 -11  16    4.03    4.07
  -1 -11 -17   20.30   11.58
   1  11  17    4.92    4.11
  -1 -11 -18    7.28    5.35
   1  11  18   16.39   11.53
  -1 -11 -19   -1.88    7.44
  -1 -11 -20  -15.32   16.17
  -1 -11 -21  -14.93   13.82
   1 -12 -21   30.26   16.39
   1 -12 -20   -3.55    2.76
   1 -12 -19   46.19   21.81
  -1  12  19   49.07   20.87
  -1  12  18    4.21    8.22
   1 -12 -18    2.96    9.18
   1 -12 -17   86.92   28.04
  -1  12  17   91.12   27.81
  -1  12  16   19.24   14.24
   1 -12 -16    7.13    6.87
  -1 -12  15    5.47    5.15
  -1  12  15   16.36   12.41
   1 -12 -15   11.90    6.60
  -1 -12  14   -1.81    4.76
  -1  12  14   13.95   12.51
  -1  12  13   -9.09   13.39
  -1 -12  13    0.67    2.91
  -1  12  12   14.09    1.91
  -1 -12  12   28.54   11.05
  -1 -12  11   65.04   16.82
  -1  12  11   48.10   14.17
  -1  12  10   60.72   17.61
  -1  12   9   33.57   11.67
   1 -12  -9   34.82    7.20
   1 -12  -8   -2.45    5.04
  -1  12   8   -0.49    4.97
   1  12  -8    3.09    3.09
   1  12  -7  175.95   16.57
  -1  12   7  172.44   28.42
   1 -12  -7  173.79   18.36
  -1  12   6   65.56   17.25
   1  12  -6   65.23   11.61
   1 -12  -6   69.80   11.42
   1  12  -5  439.48   31.32
   1 -12  -5  437.63   27.47
  -1  12   5  404.13   43.06
   1  12  -4   49.89   12.25
  -1  12   4   31.19    9.36
  -1  12   3    0.98    6.22
   1  12  -3   12.21    7.65
  -1  12   3   -0.18    1.78
   1  12  -2  125.71   14.58
  -1  12   2  121.75   21.18
  -1  12   2  114.11   16.20
  -1  12   1  203.08   26.47
   1 -12  -1  207.82   13.39
  -1  12   1  216.82   22.18
  -1  12   0  256.04   28.24
  -1 -12  -1  467.94   30.80
  -1  12  -1  445.78   36.73
  -1  12  -2  524.04   19.56
   1  12   2  520.99   26.95
  -1 -12  -2  518.19   33.86
  -1  12  -2  530.61   38.31
   1  12   3  222.72   30.95
  -1  12  -3  210.29   22.79
  -1  12  -4   52.57   10.65
   1  12   4   57.75   17.96
   1  12   5   80.99   20.95
  -1  12  -5   67.51   11.28
   1  12   6   49.77   17.48
  -1  12  -6   45.70    8.58
  -1 -12  -6   56.51    7.31
   1  12   7   18.20   13.29
  -1 -12  -7    1.27    0.78
  -1 -12  -8  111.22   12.03
   1  12   8  132.73   27.92
   1 -12   8  137.95   24.66
   1 -12   9   60.58   16.80
   1  12   9   57.87   18.58
   1 -12  10    5.92    6.59
   1  12  10    2.58    8.15
   1  12  11   75.16   22.62
   1 -12  11   77.54   18.64
   1  12  12   -3.63    9.01
   1 -12  12    0.20    3.27
   1  12  13   78.56   22.69
   1 -12  13   82.28   20.22
   1  12  14  113.44   28.93
  -1 -12 -14  108.13   27.20
   1 -12  14  100.58   23.90
  -1 -12 -15   90.01   25.44
   1  12  15   84.38   24.25
   1 -12  15   85.34   22.27
   1  12  16   20.99    9.88
  -1 -12 -16   17.59   11.60
   1 -12  16   21.96   10.57
   1  12  17   37.56   14.23
  -1 -12 -17   39.73   17.89
   1  12  18    3.22    6.36
  -1 -12 -18   -3.82    5.58
  -1 -12 -19    3.30    9.50
  -1 -12 -20  -35.65   22.43
  -1 -12 -21  -10.92   15.66
   1 -13 -21   19.43   15.20
   1 -13 -20    5.85    8.67
  -1  13  19   16.70   12.15
   1 -13 -19   16.54   14.72
  -1  13  18    6.91    8.50
   1 -13 -18    3.13    6.24
   1 -13 -17    8.58    6.96
  -1  13  17   23.61   16.55
   1 -13 -16    2.19    5.55
  -1  13  16    7.34   11.89
  -1 -13  15   77.74   19.17
  -1  13  15   90.71   27.57
  -1  13  14   24.24   13.71
  -1 -13  14   11.76    7.27
  -1  13  13   -7.01   12.54
  -1 -13  13    4.62    3.87
  -1  13  12   -2.24   11.81
  -1 -13  12    3.58    7.25
  -1  13  11   34.61   13.34
  -1 -13  11   52.32   16.23
  -1  13  10   27.88   11.48
   1 -13 -10   31.60    6.66
   1  13  -9  575.14   21.51
  -1  13   9  573.11   58.36
   1 -13  -9  613.86   40.00
   1 -13  -8   -5.74    6.87
   1  13  -8    9.84    4.57
  -1  13   8    2.05    8.62
   1  13  -7  305.89   23.61
  -1  13   7  308.04   39.96
   1 -13  -7  311.86   25.29
   1 -13  -6   20.32    7.24
   1  13  -6    7.07    4.12
  -1  13   6   -0.40   10.10
   1 -13  -5  175.49   18.02
   1  13  -5  145.91   19.51
  -1  13   5  119.53   23.19
  -1  13   4  344.38   38.93
   1  13  -4  349.43   31.76
   1  13  -3  445.72   36.68
  -1  13   3  434.63   42.74
  -1  13   3  466.13   33.75
   1  13  -3  478.68   30.41
   1  13  -2   15.05   10.33
  -1  13   2   11.15    5.39
   1  13  -2   13.42    5.69
  -1  13   2    4.31    3.40
  -1  13   1  158.01   24.15
   1  13  -1  160.03   24.66
   1 -13  -1  151.94   11.90
  -1  13   1  167.65   20.49
  -1  13   0   -2.98    6.06
   1  13   0   16.49   11.86
   1  13   1  375.62   38.57
  -1  13  -1  341.52   33.07
  -1 -13  -1  333.71   26.48
   1  13   2   66.05    9.92
  -1  13  -2   84.47   16.68
  -1 -13  -2   80.83   15.06
  -1  13  -2   60.42    6.61
   1  13   2   76.88   19.69
  -1  13  -3  196.68   23.40
   1  13   3  197.50   16.44
   1  13   3  206.91   30.65
  -1  13  -4  208.65   22.57
   1  13   4  228.59   32.96
   1  13   5  135.08   26.60
  -1  13  -5  120.99   15.96
  -1  13  -6    7.52    2.57
   1  13   6   21.95   13.12
   1  13   7   93.49   24.16
  -1  13  -7   82.29   11.05
  -1 -13  -7   96.24    9.66
   1  13   8   12.02   10.92
  -1 -13  -8   -1.00    1.51
   1 -13   9    5.67    6.22
   1  13   9    6.46    9.52
  -1 -13  -9   -1.00    4.29
  -1 -13 -10    7.73    2.40
   1  13  10   18.52   10.69
   1 -13  10   18.53    9.74
   1  13  11    9.78    9.80
   1 -13  11   15.09    8.03
   1 -13  12   16.78    8.55
   1  13  12   25.87   13.59
   1 -13  13    7.61    5.69
   1  13  13    5.12    4.43
   1  13  14   -1.91    5.51
   1 -13  14   -0.36    1.11
  -1 -13 -15   26.60   12.46
   1  13  15   32.11   16.01
   1 -13  15   32.74   13.10
   1 -13  16    5.80    5.24
   1  13  16    5.27    8.02
  -1 -13 -16    3.26    4.90
   1  13  17   -4.57    9.59
  -1 -13 -17    3.03    4.37
   1  13  18   15.56   12.35
  -1 -13 -18   17.63   13.91
  -1 -13 -19   36.96   18.04
  -1 -13 -20   23.89   17.00
  -1 -13 -21  -17.23   18.64
   1 -14 -20   -0.88    4.17
  -1  14  19   38.48   18.38
   1 -14 -19   44.35   22.04
  -1  14  18    5.41   10.80
   1 -14 -18   -4.34    9.37
   1 -14 -17    5.52    8.93
  -1  14  17   18.83   15.91
  -1  14  16   68.90   25.97
   1 -14 -16   53.38   20.98
  -1 -14  15    0.23    3.74
  -1  14  15    3.29   10.42
  -1 -14  14   51.71   16.12
  -1  14  14   46.12   17.65
  -1 -14  13   30.12   11.87
  -1  14  13   12.15    5.97
  -1  14  12  181.71   34.67
   1 -14 -12  187.10   24.74
  -1 -14  12  206.54   31.24
  -1  14  11   64.14   18.13
   1 -14 -11   69.12   12.62
  -1  14  10   -4.35   12.50
   1 -14 -10    0.44    6.43
  -1  14   9    6.23    7.80
   1 -14  -9    0.86    6.13
   1  14  -9   12.86    3.72
   1  14  -8   16.04    6.61
   1 -14  -8    7.38    3.38
  -1  14   7  246.14   37.29
   1  14  -7  269.77   24.33
   1 -14  -7  284.13   23.71
   1  14  -6   15.39    5.60
  -1  14   6    2.07    6.07
  -1  14   5  233.55   33.68
   1  14  -5  264.76   27.12
   1  14  -4   31.64   11.38
  -1  14   4   15.08    6.43
   1  14  -3   62.84   15.95
   1  14  -3   53.63    9.84
  -1  14   3   49.68   14.21
  -1  14   3   47.21    9.79
  -1  14   2   46.33   10.82
   1  14  -2   65.10   15.99
   1  14  -2   57.03   10.83
   1 -14  -2   59.90    9.72
  -1  14   2   37.52   12.19
  -1  14   1   64.88   15.22
   1  14  -1   82.24   18.62
   1  14   0  155.93   25.69
  -1  14   0  118.52   20.63
  -1 -14  -1   12.44    3.42
   1  14   1   30.87   13.76
   1  14   1   38.70   10.08
  -1 -14  -2   31.51   10.03
   1  14   2   41.09   15.48
  -1  14  -2   31.00   11.52
   1  14   2   18.47    5.24
   1  14   3  133.29   26.73
  -1  14  -3  132.08   20.26
   1  14   3  122.31   13.73
   1  14   4   28.53   14.05
  -1  14  -4   11.69    5.74
   1  14   5   17.09   12.62
  -1  14  -5    3.81    1.52
  -1  14  -6   90.60   13.32
   1  14   6  102.16   24.33
   1  14   7  263.85   39.54
  -1  14  -7  265.84   21.82
  -1 -14  -8   61.91    8.34
   1  14   8   48.69   18.30
   1 -14   9  191.04   30.54
   1  14   9  200.59   35.33
  -1 -14  -9  172.06   14.84
   1  14  10  188.64   35.36
   1 -14  10  201.46   31.66
  -1 -14 -10  174.58   16.41
   1 -14  11    5.72    5.66
   1  14  11   11.26    7.10
   1  14  12    4.82    5.03
   1 -14  12   -1.30    3.38
   1  14  13    3.83    4.10
   1 -14  13    6.15    3.98
   1 -14  14    2.53    4.14
   1  14  14   -0.76    8.22
   1  14  15   92.05   26.51
  -1 -14 -15  104.20   28.44
   1 -14  15   94.36   23.90
   1 -14  16    4.12    6.71
  -1 -14 -16   13.70   10.90
   1  14  16   -7.80   12.68
  -1 -14 -17   27.90   15.24
   1  14  17   15.26    5.74
  -1 -14 -18   17.60   13.80
   1  14  18    2.23    4.77
  -1 -14 -19    9.55    5.29
  -1 -14 -20   20.99   16.20
   1 -15 -20   13.76   13.47
   1 -15 -19    9.14    8.75
  -1  15  19   25.50   16.06
  -1  15  18   21.36   13.83
   1 -15 -18   16.79   12.13
   1 -15 -17   -3.02   10.02
  -1  15  17   17.31   14.90
  -1  15  16   33.58   17.74
  -1  15  15   88.87   28.60
  -1 -15  15   91.20   22.13
  -1 -15  14    2.49    3.76
  -1  15  14   10.81   13.46
  -1  15  13  -11.43   15.35
  -1 -15  13    0.77    5.77
  -1 -15  12   95.71   22.53
  -1  15  12   72.85   21.89
   1 -15 -12   80.19   15.51
  -1  15  11   20.69    6.22
   1 -15 -11   18.45    1.85
   1 -15 -10  130.88   17.95
  -1  15  10  141.16   29.27
   1 -15  -9   72.90   12.43
  -1  15   9   56.40   17.00
   1  15  -9   72.27   10.17
   1 -15  -8  130.14   16.61
   1  15  -8  120.27   16.08
  -1  15   8   96.64   23.52
   1  15  -7    5.76    2.89
  -1  15   7    6.22    7.74
   1  15  -6   31.34    8.85
  -1  15   6   29.16   12.05
  -1  15   5   12.65    6.45
   1  15  -5   21.15    8.71
  -1  15   4   28.61   10.56
   1  15  -4   37.17   11.31
  -1  15   3  117.01   17.34
   1  15  -3  131.03   16.78
  -1  15   3  126.82   23.16
   1  15  -3  142.59   22.54
   1  15  -2  651.57   49.56
   1 -15  -2  611.58   28.94
  -1  15   2  623.18   53.57
   1  15  -2  640.14   34.73
   1  15  -1   11.50    9.58
  -1  15   1   -4.15    5.74
   1  15   0  315.11   36.86
  -1  15   0  289.58   33.65
  -1  15  -1   23.85    6.65
  -1 -15  -1   27.47    4.85
   1  15   1   56.36   11.59
   1  15   1   46.75   15.80
   1  15   2   33.58    7.67
   1  15   2   47.71   16.86
  -1 -15  -2   48.91   11.68
  -1  15  -2   50.49   14.63
  -1 -15  -3  160.65   21.16
   1  15   3  144.15   15.90
  -1  15  -3  151.91   22.62
   1  15   3  160.13   28.79
  -1  15  -3  136.04   11.62
  -1  15  -4    1.62    4.02
   1  15   4   13.06   11.82
  -1  15  -5    1.85    2.81
   1  15   5    5.83   10.17
  -1  15  -6   13.46    4.62
   1  15   6   23.94   14.29
  -1  15  -7   13.99    5.14
   1  15   7   23.99   14.40
   1  15   8  233.46   39.67
  -1  15  -8  227.21   19.07
  -1 -15  -9   93.55   10.27
   1 -15   9   85.49   21.22
   1  15   9   86.58   23.98
   1  15  10  101.67   26.67
   1 -15  10   96.72   23.06
   1 -15  11    3.70    7.18
   1  15  11   10.15    7.89
   1  15  12  100.02   25.68
   1 -15  12   93.95   23.43
   1 -15  13   48.49   17.03
   1  15  13   43.15   17.51
   1 -15  14   11.43    7.43
   1  15  14    4.98    3.00
   1 -15  15   21.40   11.06
   1  15  15   20.52    9.96
   1 -15  16    0.48    4.02
  -1 -15 -16    0.30    1.39
   1  15  16  -10.01   13.96
  -1 -15 -17    1.12    2.68
   1  15  17   -5.35   11.25
  -1 -15 -18   87.36   27.79
   1  15  18   83.21   29.27
  -1 -15 -19   12.91    8.85
  -1 -15 -20   12.38   12.16
   1 -16 -19   -3.77   10.63
  -1  16  19    0.96    5.56
  -1  16  18   15.49   16.24
   1 -16 -18   13.54   12.38
  -1  16  17    5.09   11.30
   1 -16 -17   -6.08    9.50
  -1  16  16    7.39   13.25
  -1  16  15   19.27   15.84
  -1 -16  15    5.90    7.47
  -1  16  14  109.06   31.19
  -1 -16  14  122.60   26.00
  -1  16  13   -7.82   14.48
  -1 -16  13    5.73    7.30
   1 -16 -12   17.21    4.19
  -1  16  12   18.70    4.71
  -1 -16  12   31.90   13.07
   1 -16 -11  191.56   22.22
  -1  16  11  197.92   36.93
   1 -16 -10  228.29   23.59
  -1  16  10  205.93   36.22
   1 -16  -9    8.67    5.44
   1  16  -9    8.96    4.34
  -1  16   9   -4.96   11.83
   1 -16  -8  100.16   14.82
   1  16  -8   63.95   13.02
  -1  16   8   63.65   18.28
  -1  16   7    0.29    9.20
   1  16  -7    2.20    5.61
   1  16  -6   85.42   15.22
  -1  16   6   68.76   18.88
  -1  16   5  -10.15   10.16
   1  16  -5    1.54    2.81
   1  16  -4   -2.62    5.41
   1  16  -4    5.23    5.51
  -1  16   4   -8.94    9.22
   1  16  -3   25.59    8.48
   1  16  -3   24.09   10.18
  -1  16   3   24.06    9.54
  -1  16   2    7.88    7.14
   1 -16  -2   -1.38    3.21
   1  16  -1   11.67    9.15
  -1  16   1   -7.14    9.48
   1  16   0   31.14   14.02
  -1  16   0   15.46    5.28
  -1  16  -1   42.19   11.13
  -1 -16  -1   36.16    7.70
   1  16   1   57.97   19.16
   1  16   1   77.57   13.96
   1  16   2  416.11   46.10
   1  16   2  405.94   28.78
  -1 -16  -2  414.63   32.44
  -1  16  -2  413.44   39.94
   1  16   3    5.56    2.57
  -1  16  -3   11.91    3.98
  -1 -16  -3   18.81    9.83
  -1  16  -3   21.63   10.25
   1  16   3   15.03   10.97
   1  16   4    8.12   11.41
  -1  16  -4    3.23    4.25
  -1  16  -5    4.06    4.26
   1  16   5   19.52   14.52
  -1  16  -6  103.71   15.92
   1  16   6  109.72   26.32
   1  16   7   37.23   16.97
  -1  16  -7   29.55    8.35
   1  16   8  156.52   33.49
  -1  16  -8  156.15   17.09
   1  16   9  120.49   29.20
   1 -16  10   13.44   10.28
   1  16  10   14.66   11.80
   1 -16  11   37.39   14.83
   1  16  11   33.68   16.59
   1 -16  12   48.19   16.97
   1  16  12   53.53   19.58
   1  16  13    4.26    6.17
   1 -16  13    0.88    5.42
   1 -16  14   14.52    9.37
   1  16  14    8.04    3.09
   1 -16  15   -0.38    4.56
   1  16  15   -0.38    2.78
  -1 -16 -16   -9.82   12.55
   1  16  16    1.37    6.46
   1  16  17   -7.70   14.06
  -1 -16 -17    5.38    5.40
   1  16  18    6.66    7.91
  -1 -16 -18    2.66    6.69
  -1 -16 -19  -11.78    9.86
  -1 -16 -20   11.89   10.10
  -1  17  20    9.67   11.55
   1 -17 -19   23.08   15.48
  -1  17  19   13.24   12.93
   1 -17 -18    1.06    4.97
  -1  17  18   14.40   12.23
  -1  17  17   18.08   17.58
   1 -17 -17   18.71   15.13
  -1  17  16    9.51   12.96
  -1 -17  15    2.81    6.17
  -1  17  15    8.23   10.46
  -1 -17  14   33.30   14.57
  -1  17  14   33.96   19.77
  -1 -17  13   33.13   14.62
  -1  17  13   25.73   15.40
  -1  17  12    9.91    7.26
   1 -17 -11   20.93    7.07
  -1  17  11    9.64    8.66
   1 -17 -10  200.59   21.49
  -1  17  10  173.05   35.58
   1  17  -9   29.32    7.70
  -1  17   9   14.87    5.65
   1  17  -8   11.54    7.28
  -1  17   8   -0.64   12.27
   1  17  -7   53.75   11.59
  -1  17   7   46.73   10.97
  -1  17   6    2.01    5.66
   1  17  -6    0.05    5.28
   1  17  -5   35.74   10.20
  -1  17   5   16.48    2.80
   1  17  -4   74.29   16.17
   1  17  -4   67.24   11.96
  -1  17   4   66.31   18.42
   1 -17  -3   14.76    6.84
   1  17  -3   17.56    8.22
  -1  17   3   -4.89   10.18
   1  17  -3    8.60    7.72
   1 -17  -2  601.34   29.89
  -1  17   2  566.49   54.25
   1  17  -2  578.62   49.74
  -1  17   1    6.90    6.67
   1  17  -1   22.64   11.96
   1  17   0  127.00   24.91
  -1  17   0  105.20   20.46
   1  17   1   58.00   18.38
  -1  17  -1   19.77    2.94
   1  17   1   70.68   14.11
   1  17   2    4.03    3.97
  -1  17  -2   15.49   11.90
  -1 -17  -2    4.94    1.23
   1  17   2   18.71   13.46
  -1 -17  -3   50.56   13.06
   1  17   3   36.09    8.30
  -1  17  -3   43.71   13.86
   1  17   3   57.64   19.79
  -1 -17  -4   33.44   12.79
  -1  17  -4   15.63    9.07
   1  17   4   17.71   12.83
   1  17   5  270.16   40.73
  -1  17  -5  244.43   28.46
   1  17   6   45.27   18.36
  -1  17  -6   32.04    9.05
  -1  17  -7  218.51   24.12
   1  17   7  222.19   40.25
  -1  17  -8    1.75    1.81
   1  17   8    3.81    6.00
   1  17   9   15.55   11.00
   1  17  10  165.85   34.67
   1 -17  10  197.58   34.45
   1  17  11    5.10    6.72
   1 -17  11    4.04    4.25
   1  17  12   -4.41    8.38
   1 -17  12    0.31    6.57
   1 -17  13    6.19    7.70
   1  17  13    6.81    6.62
   1 -17  14    6.28    5.77
   1  17  14   -8.47   10.84
   1  17  15   -2.97   11.21
   1 -17  15    1.52    5.36
   1  17  16   -3.60   10.75
  -1 -17 -17   -6.47    8.92
   1  17  17  -12.35   16.93
   1  17  18   35.49   15.87
  -1 -17 -18   37.54   19.19
  -1 -17 -19   -3.03    9.10
   1  17  19   10.58   15.34
  -1  18  20   10.04   11.60
   1 -18 -19   34.51   17.21
  -1  18  19   52.28   24.22
   1 -18 -18   68.10   25.26
  -1  18  18   68.67   28.10
  -1  18  17   56.75   25.60
  -1  18  16    6.18   11.19
  -1  18  15   75.12   27.57
  -1 -18  15   60.37   19.97
  -1 -18  14    0.36    0.43
  -1  18  14   21.90   18.20
  -1 -18  13    5.08    8.23
  -1  18  13   -3.44    0.89
  -1  18  12   35.77   12.35
  -1  18  11   16.89    5.17
  -1  18  10   25.61    9.44
   1 -18 -10   71.73   13.41
  -1  18   9   -6.58   12.64
   1  18  -9    9.38    5.00
  -1  18   8   -8.65   15.23
   1  18  -8    5.92    6.66
  -1  18   7  109.47   26.10
   1  18  -7  122.40   18.63
  -1  18   6   13.37    4.25
   1  18  -6   29.66    7.71
   1  18  -5  171.01   20.02
   1  18  -5  185.72   25.98
  -1  18   5  166.21   30.77
   1  18  -4   13.13    6.12
   1  18  -4   11.90    6.79
   1 -18  -3   92.89   13.47
  -1  18   3   90.11   22.28
   1  18  -3   93.91   19.92
  -1  18   2   24.15    9.98
   1  18  -2   47.54   16.22
  -1  18   1   71.16   17.85
   1  18  -1   95.00   21.62
   1  18   0   42.26   15.10
  -1  18   0   16.12    2.57
  -1  18  -1  100.88   22.08
   1  18   1  132.92   26.74
   1  18   1  141.98   19.05
  -1 -18  -2  245.81   25.61
  -1  18  -2  265.59   34.66
   1  18   2  270.35   39.00
   1  18   2  252.38   24.19
   1  18   3  229.94   36.25
  -1  18  -3  216.92   30.69
  -1 -18  -3  225.20   25.89
   1  18   3  190.44   20.90
  -1 -18  -4   33.04   12.10
   1  18   4   10.60   10.04
  -1  18  -4    7.78    3.62
  -1  18  -4    9.44    8.09
   1  18   5   26.89   15.31
  -1  18  -5   17.13    8.74
   1  18   6   15.80   10.10
  -1  18  -6    7.38    2.66
   1  18   7   29.90   16.45
  -1  18  -7   18.36    6.40
  -1  18  -8   -0.15    1.24
   1  18   8    3.41    5.47
   1  18   9   14.85   11.12
   1  18  10   10.21    9.09
   1 -18  10   11.25   11.34
   1  18  11    1.12    6.18
   1 -18  11   20.56   12.05
   1  18  12   23.49   12.09
   1 -18  12   29.15   14.01
   1  18  13   36.33   18.14
   1 -18  13   35.96   15.78
   1 -18  14   43.15   17.49
   1  18  14   61.14   22.63
   1  18  15   58.02   21.18
   1 -18  15   60.00   20.42
   1  18  16   12.17    6.03
   1  18  17   15.01    5.52
  -1 -18 -17    7.64    7.23
   1  18  18    6.21   11.15
  -1 -18 -18    6.25    9.26
  -1 -18 -19   -0.51    4.14
   1  18  19   10.46   14.02
  -1  19  19    9.70   13.97
   1 -19 -18  -14.57   14.00
  -1  19  18   11.69   14.10
  -1  19  17   13.40   15.84
  -1  19  16    8.70   13.98
  -1  19  15   72.97   28.80
  -1 -19  15   60.05   19.80
  -1 -19  14   11.66    9.27
  -1  19  14   32.34   21.21
  -1 -19  13    5.93    8.36
  -1  19  13    2.09   10.78
  -1  19  12  -13.90   13.38
  -1  19  11   11.31    6.34
  -1  19  10   24.16   13.55
  -1  19   9   17.44    0.75
   1  19  -8   48.60   12.57
  -1  19   8   41.27   13.96
   1  19  -7  374.63   36.32
  -1  19   7  382.72   51.40
  -1  19   6   27.02    9.87
   1  19  -6   33.55    9.97
   1  19  -5  253.40   31.45
   1  19  -5  259.19   24.62
  -1  19   5  243.80   39.32
   1  19  -4   40.07    9.93
   1 -19  -4   52.23   12.66
  -1  19   4   16.14    6.32
   1  19  -4   21.03    9.00
  -1  19   3    2.51   11.08
   1 -19  -3   30.63    6.66
   1  19  -3   34.06   12.28
   1  19  -2   88.15   20.81
  -1  19   2   78.59   18.64
   1  19  -1  193.13   31.37
  -1  19   1  177.44   30.14
   1  19   0    5.68   10.14
  -1  19   0  -14.26   14.67
   1  19   1    9.26    9.84
  -1  19  -1   17.90    9.34
  -1  19  -2  137.14   26.26
   1  19   2  126.65   17.55
  -1 -19  -2  113.99   16.51
   1  19   2  130.50   27.75
   1  19   3    5.64    8.73
  -1 -19  -3    2.24    2.64
  -1  19  -3    6.00    8.38
  -1  19  -4   26.82   11.58
   1  19   4   25.89   13.14
  -1 -19  -4   45.16   14.30
   1  19   5  143.42   30.96
  -1  19  -5  119.36   21.67
  -1 -19  -5  162.34   25.04
   1  19   6    8.36    5.46
  -1  19  -6   -0.85    3.73
  -1  19  -7  453.18   38.24
   1  19   7  476.23   59.21
   1  19   8    6.78    8.07
   1  19   9   10.22    7.71
   1 -19  10   27.64   14.59
   1  19  10   35.41   15.43
   1 -19  11    5.48    7.82
   1  19  11   -0.15    4.03
   1 -19  12    7.65    8.39
   1  19  12    2.23    3.13
   1  19  13   38.38   18.63
   1 -19  13   38.29   16.53
   1  19  14   17.51    8.52
   1 -19  14    7.45    6.85
   1 -19  15   -1.57    6.86
   1  19  15   -5.20   11.92
   1  19  16    4.02    6.99
  -1 -19 -17   -4.56    5.99
   1  19  17  -10.06   15.24
   1  19  18   13.94   17.69
  -1 -19 -18   -0.64   13.17
  -1  20  18   11.99   15.21
  -1  20  17   41.14   22.49
  -1  20  16   11.74   14.74
  -1  20  15   25.63   20.19
  -1  20  14   72.16   28.16
  -1 -20  14   79.74   24.06
  -1 -20  13    8.93   10.07
  -1  20  13   10.63   13.03
  -1  20  12   39.10   18.24
  -1  20  11    9.61    5.38
  -1  20  10  -17.89   16.79
  -1  20   9   -3.29   13.94
   1  20  -8   10.43    7.39
  -1  20   8   -9.24   16.25
  -1  20   7   18.19   10.60
   1  20  -7   26.13    8.88
  -1  20   6   38.10   14.77
   1  20  -6   42.37   12.02
   1  20  -5   31.22   11.57
  -1  20   5   29.63    9.05
   1  20  -4    5.59    2.32
  -1  20   4    3.78    7.86
   1 -20  -3    0.10    5.78
  -1  20   3    0.72   10.65
   1  20  -3   12.22    6.80
  -1  20   2   47.35   15.18
   1  20  -2   61.31   16.88
   1  20  -1    6.69    3.96
  -1  20   1  -10.96   12.13
   1  20   0   21.38   12.70
  -1  20   0    5.94    6.15
  -1  20  -1   97.85   24.11
   1  20   1   67.76   19.50
  -1  20  -2   20.28   12.42
   1  20   2   15.69   11.46
  -1 -20  -2  -11.37   10.82
  -1  20  -3   10.60    9.70
   1  20   3    7.61    7.41
  -1 -20  -3   -1.81    1.82
   1  20   4   28.53   16.31
  -1 -20  -4   37.28   11.59
  -1  20  -4   34.16   12.95
   1  20   5   19.52   13.91
  -1 -20  -5   37.99   13.16
  -1  20  -5   13.82    9.17
  -1  20  -6    9.55    5.76
   1  20   6   18.55   13.94
   1  20   7   14.70   12.25
  -1  20  -7   15.27    6.17
   1  20   8   35.85   16.77
   1  20   9   65.41   22.33
   1  20  10   45.76   19.06
   1  20  11   25.60   15.42
   1 -20  11   23.33   13.66
   1 -20  12    6.19    7.37
   1  20  12   -1.32    9.74
   1  20  13   -1.21    2.60
   1 -20  13    4.28    8.17
   1 -20  14    4.07    8.48
   1  20  14   -7.21   15.05
   1 -20  15   56.94   21.64
   1  20  15   58.35   23.24
   1  20  16    0.41   15.63
   1  20  17   -1.39   12.80
  -1 -20 -18    3.04    5.64
  -1  21  17   22.68   19.62
  -1  21  16   18.79   18.60
  -1  21  15   17.47   19.21
  -1 -21  14    1.26    6.34
  -1  21  14   17.35   17.89
  -1  21  13   23.12   19.98
  -1 -21  13    5.32    8.57
  -1  21  12   -9.65   10.63
  -1  21  11   -9.86   16.05
  -1  21  10    1.55    7.46
  -1  21   9  -19.34   19.53
  -1  21   8   -5.59   11.91
   1  21  -8    4.59    5.28
   1  21  -7  190.72   28.33
  -1  21   7  174.86   36.45
   1  21  -6   43.58   12.68
  -1  21   6   35.21   11.95
  -1  21   5  -12.61   12.54
   1  21  -5   -2.17    8.61
   1  21  -4    4.33    4.74
   1 -21  -4   14.09    5.91
   1 -21  -3   27.53    5.26
  -1  21   3   19.54    6.38
   1  21  -2   82.70   21.04
  -1  21   2   57.61   16.25
   1  21  -1   11.31    8.82
  -1  21   1  -11.61   14.64
  -1  21   0   87.67   22.28
   1  21   0   82.75   21.26
  -1  21  -1   31.29   17.21
   1  21   1   18.58   10.81
   1  21   2   23.61   13.79
  -1  21  -2   29.38   14.76
   1  21   3  102.51   25.76
  -1  21  -3  100.95   23.39
  -1 -21  -3   82.83   14.67
  -1  21  -4   84.05   20.09
   1  21   4   80.67   22.66
  -1 -21  -4   81.97   16.98
  -1 -21  -5   23.64   11.20
  -1  21  -5    3.21    5.03
   1  21   5    7.16    7.59
   1  21   6   21.67   12.75
  -1  21  -6   14.97    6.98
   1  21   7   74.59   24.17
  -1  21  -7   63.64   15.20
   1  21   8    3.04    5.49
   1  21   9   10.98    5.18
   1  21  10   28.48   13.15
   1 -21  11    9.60   10.13
   1  21  11   -3.78   12.70
   1  21  12   17.16    4.10
   1 -21  12   32.39   14.98
   1 -21  13   10.88    8.49
   1  21  13    7.09    8.14
   1 -21  14    4.89    6.22
   1  21  14    4.22    4.21
   1  21  15   -6.20   14.95
   1 -21  15    1.73    6.33
   1  21  16  -10.61   14.18
  -1  22  16    1.07    9.66
  -1  22  15   19.39   18.72
  -1  22  14   21.70   19.55
  -1 -22  14   15.60   13.61
  -1  22  13   44.95   23.95
  -1 -22  13   39.45   18.19
  -1  22  12   86.39   28.96
  -1  22  11   31.19   17.08
  -1  22  10    8.42    6.03
  -1  22   9   -0.79   11.38
  -1  22   8   -9.53   13.60
   1  22  -7   11.98   10.73
  -1  22   7   -4.39   12.23
   1 -22  -6   99.68   18.69
  -1  22   6   48.96   19.04
   1  22  -6   49.43   13.99
   1 -22  -5    9.80    7.18
   1  22  -5   -7.81   10.34
  -1  22   5  -10.52   14.91
   1  22  -4   -0.88    6.99
  -1  22   4   -8.17   15.63
   1  22  -3    1.49    4.94
  -1  22   3   -9.71   11.97
   1  22  -2  128.11   26.44
  -1  22   2  112.48   26.05
   1  22  -1    2.84    3.45
  -1  22   1   -5.26    6.24
   1  22   0   97.39   24.89
  -1  22   0  108.95   28.11
  -1  22  -1   12.42   12.03
   1  22   1   -1.10    2.99
  -1  22  -2   41.08   16.64
   1  22   2   40.18   15.24
   1  22   3    6.55    7.56
  -1  22  -3   10.61   11.31
  -1 -22  -3  -12.41   10.35
  -1  22  -4   35.62   14.11
   1  22   4   20.77   12.62
  -1 -22  -4   24.82    9.28
  -1 -22  -5   22.12   10.87
   1  22   5   21.88   13.48
  -1  22  -5   19.57    9.90
  -1  22  -6   15.89    7.74
  -1 -22  -6   41.81   14.97
   1  22   6   23.93   14.39
  -1 -22  -7   92.61   21.27
   1  22   7   73.63   24.09
   1  22   8  116.68   31.82
   1  22   9    3.53    2.48
   1  22  10   78.27   27.14
   1  22  11   -5.55   10.37
   1 -22  11   15.23   12.69
   1 -22  12   17.00   10.63
   1  22  12    3.47    4.85
   1  22  13   -7.17   14.00
   1 -22  13    0.85    4.93
   1 -22  14    4.78    7.43
   1  22  14   -5.53   12.88
   1 -22  15    2.47    6.81
   1  22  15    1.57    4.19
  -1  23  15    8.07   13.74
  -1  23  14   54.60   25.74
  -1 -23  14   42.44   19.03
  -1  23  13   29.58   20.47
  -1  23  12   21.85   19.35
  -1  23  11   31.43   16.31
  -1  23  10   88.35   30.00
  -1  23   9  -12.80   16.85
  -1  23   8   66.77   22.83
  -1  23   7   -1.70    8.59
   1  23  -7   14.89   10.16
   1  23  -6  119.47   23.45
  -1  23   6  114.70   29.89
  -1  23   5   20.19    9.99
   1  23  -5   19.50    6.51
  -1  23   4   -7.22   14.42
   1  23  -4   -0.02    8.21
   1  23  -3  124.97   26.10
  -1  23   3  122.07   28.88
  -1  23   2   17.32   10.26
   1  23  -2   21.12    8.62
  -1  23   1   79.22   23.33
   1  23  -1   74.44   19.97
  -1  23   0  196.10   37.48
   1  23   0  205.24   36.08
  -1  23  -1    8.62   10.25
   1  23   1   -1.46    6.90
   1  23   2   46.69   17.83
  -1  23  -2   64.53   21.50
  -1  23  -3  138.63   28.74
   1  23   3  130.78   30.74
  -1  23  -4   27.31   12.99
   1  23   4   26.74   13.97
  -1 -23  -4   17.76    3.43
  -1  23  -5    1.43    2.18
  -1 -23  -5    3.26    3.06
   1  23   5    2.62    2.21
  -1 -23  -6  131.62   23.85
  -1  23  -6  101.77   21.01
   1  23   6  121.04   31.95
   1  23   7   -0.36    4.31
  -1 -23  -7   36.56   15.57
   1  23   8    2.11    5.23
   1  23   9   33.49   17.55
   1  23  10   29.26   16.62
   1  23  11   -2.11   11.50
   1 -23  11    4.50    9.61
   1 -23  12   20.78   13.78
   1  23  12   29.10   16.36
   1  23  13   -6.06   12.36
   1 -23  13   12.09   11.82
   1 -23  14    0.95    3.89
   1  23  14   -4.37   13.26
   1 -23  15    2.15    6.83
  -1 -24  14    7.84   11.70
  -1  24  14   14.46   18.39
  -1  24  13   18.88   18.69
  -1  24  12   18.72   16.38
  -1  24  11   20.31   19.60
  -1  24  10   37.55   18.01
  -1  24   9   -5.52    5.32
  -1  24   8   -9.65   14.26
  -1  24   7   14.27    3.93
   1  24  -6  130.32   26.76
  -1  24   6  109.62   29.26
   1  24  -5  105.79   23.53
  -1  24   5   88.06   25.21
  -1  24   4   -8.47   14.21
   1  24  -4  -11.76   12.76
   1  24  -3   18.38    9.33
  -1  24   3   18.06   15.28
  -1  24   2   20.90   12.77
   1  24  -2    9.82    1.29
  -1  24   1    8.75   11.97
   1  24  -1    1.38    5.11
  -1  24   0  174.06   34.65
   1  24   0  146.46   31.85
  -1  24  -1   26.35   16.28
   1  24   1    9.99    8.05
  -1  24  -2   69.80   22.18
   1  24   2   58.13   19.62
   1  24   3  125.57   30.64
  -1  24  -3  113.07   26.38
   1  24   4   -4.15    4.61
  -1  24  -4   10.21    8.05
  -1  24  -5   -3.86    5.96
   1  24   5   -5.19    9.63
   1  24   6   88.25   27.41
   1  24   7    8.61   10.17
   1  24   8    6.37    2.54
   1  24   9   -4.53   12.15
   1  24  10  -19.29   16.62
   1 -24  11    8.31    8.33
   1  24  11   -7.02   12.43
   1  24  12   -3.57   12.47
   1 -24  12    1.46    8.70
   1  24  13    5.18    5.10
   1 -24  13   19.29   14.88
   1 -24  14   10.38    8.34
  -1 -25  14    8.70   10.39
  -1  25  13   24.45   19.53
  -1  25  12   11.77   16.94
  -1  25  11   28.65   20.34
  -1  25  10    9.70   14.46
  -1  25   9   68.10   26.16
  -1  25   8   10.54    9.23
  -1  25   7   39.10   19.63
   1  25  -6   34.68   17.04
  -1  25   6   12.47   11.82
   1  25  -5   20.55    7.72
  -1  25   5   29.61   17.53
   1  25  -4   -5.10    9.98
  -1  25   4    4.42    5.32
  -1  25   3   18.38   16.09
   1  25  -3   -5.87   11.39
  -1  25   2   41.04   19.66
   1  25  -2   11.72    6.75
   1  25  -1   71.48   21.84
  -1  25   1   98.41   28.61
   1  25   0    5.58    4.69
  -1  25   0   22.68   14.47
   1  25   1   20.34   11.50
  -1  25  -1   27.19   13.92
  -1  25  -2   31.75   14.89
   1  25   2   20.80    8.95
  -1  25  -3   69.23   21.22
   1  25   3   76.50   23.71
  -1  25  -4   40.55   16.35
   1  25   4   18.14    6.98
   1  25   5   34.89   15.58
  -1  25  -5   22.36    9.99
   1  25   6   61.56   23.35
   1  25   7   42.55   18.33
   1  25   8   15.78   12.54
   1  25   9    3.47    5.31
   1  25  10   -5.22   12.68
   1  25  11    8.60    8.23
   1 -25  11   30.70   18.25
   1  25  12    0.33    8.42
   1 -25  12   26.85   16.79
   1 -25  13   62.29   24.26
   1 -25  14   12.05   10.00
  -1 -26  14    8.00   11.70
  -1  26  12   27.62   21.40
  -1  26  11   23.83   19.16
  -1  26  10   41.30   23.30
  -1  26   9   23.90   20.09
  -1  26   8   15.54   17.21
  -1  26   7   59.28   26.56
  -1  26   6   32.00   18.76
  -1  26   5   68.37   27.66
   1  26  -5   68.98   19.70
  -1  26   4   23.70   18.59
   1  26  -4   -5.12    8.92
  -1  26   3   22.11   15.93
   1  26  -3    3.83    7.00
  -1  26   2   21.07   16.85
   1  26  -2   -3.45    3.92
  -1  26   1   27.71   16.31
   1  26  -1    1.76    6.08
  -1  26   0   13.45   12.49
   1  26   0   -2.47    8.94
  -1  26  -1   15.90   12.21
   1  26   1    2.82    7.46
  -1  26  -2    4.19    8.63
   1  26   2   -2.15    7.35
  -1  26  -3   27.36   13.43
   1  26   3   18.45    9.06
   1  26   4   -8.30   13.71
  -1  26  -4   10.32    8.46
   1  26   5   -9.10   13.60
   1  26   6    1.67    5.19
   1  26   7   30.05   15.35
   1  26   8    3.68    7.97
   1  26   9    9.69    4.91
   1  26  10    5.62    6.93
   1 -26  11    7.98   10.97
   1  26  11    2.33    9.09
   1 -26  12   20.09   14.86
   1 -26  13    5.93   10.47
   1 -26  14    0.35    3.00
  -1  27  11   40.97   24.75
  -1  27  10    9.20   14.88
  -1  27   9   37.80   23.59
  -1  27   8   16.47   16.78
  -1  27   7   42.61   23.01
  -1  27   6    7.42   14.49
   1  27  -5   14.55   14.68
  -1  27   5    6.10   10.66
   1  27  -4   35.43   12.96
  -1  27   4   61.29   25.70
   1  27  -3   54.42   17.92
  -1  27   3   79.29   28.11
  -1  27   2   42.32   21.53
   1  27  -2    9.50    6.80
   1  27  -1   77.98   24.06
  -1  27   1   83.79   27.84
   1  27   0   84.31   24.85
  -1  27   0   99.46   29.50
  -1  27  -1    9.06    9.74
   1  27   1   -7.61    8.60
  -1  27  -2   12.65   11.53
   1  27   2    8.16    3.25
   1  27   3   15.68   10.29
  -1  27  -3   22.31   12.48
  -1  27  -4   13.79   10.17
   1  27   4    1.87    3.75
   1  27   5   -3.77    9.65
   1  27   6  -11.69   13.30
   1  27   7    2.07    6.15
   1  27   8   14.70   13.00
   1  27   9   -7.53   11.56
   1  27  10   -0.99    8.37
   1 -27  11   28.24   17.64
   1 -27  12   16.77   14.66
   1 -27  13   59.97   25.04
  -1  28  10   34.78   22.54
  -1  28   9   23.32   18.57
  -1  28   8   15.84   16.93
  -1  28   7   24.83   19.62
  -1  28   6   32.50   19.69
  -1  28   5   11.68   15.95
  -1  28   4   33.08   21.41
   1  28  -4   25.81   15.85
   1  28  -3   -2.36    8.81
  -1  28   3   18.81   16.35
   1  28  -2   -5.80   11.75
  -1  28   2   29.17   18.18
   1  28  -1    3.96    2.56
  -1  28   1   17.58   15.54
  -1  28   0   64.43   23.91
   1  28   0   45.33   18.33
   1  28   1   20.65    7.31
  -1  28  -1   44.25   19.00
  -1  28  -2   15.81   13.03
   1  28   2   -1.09    7.70
   1  28   3   13.76    6.19
  -1  28  -3   20.55   12.60
   1  28   4    4.49    1.52
   1  28   5    0.25    1.95
   1  28   6    5.41    6.93
   1  28   7  -17.03   14.63
   1  28   8   29.80   15.28
   1  28   9   32.94   17.92
   1 -28  11    7.41   12.42
   1 -28  12    9.74   12.17
  -1  29   8   56.26   26.01
  -1  29   7   37.77   20.83
  -1  29   6   10.99   14.36
  -1  29   5    8.11    9.11
  -1  29   4   39.51   20.85
   1  29  -4   44.15   20.15
   1  29  -3    3.84    4.17
  -1  29   3   -5.51    5.68
  -1  29   2   14.02   12.47
   1  29  -2   12.76    7.58
  -1  29   1   27.72   16.59
   1  29  -1   15.44    7.35
  -1  29   0  104.86   29.98
   1  29   0   93.20   26.73
  -1  29  -1   15.85   13.54
   1  29   1   -6.44   12.56
  -1  29  -2    7.35   10.66
   1  29   2  -13.42   15.53
  -1  29  -3   34.05   15.79
   1  29   3   24.68   15.78
   1  29   4   17.30    9.58
   1  29   5   -3.26   12.16
   1  29   6   35.50   18.36
   1  29   7   -2.92    8.55
   1  29   8   -6.22    5.74
  -1  30   7   30.84   20.38
  -1  30   6   17.97   15.79
  -1  30   5   47.55   24.62
  -1  30   4   32.81   21.41
   1  30  -3   10.57   13.30
  -1  30   3    8.78   12.92
   1  30  -2   -1.60    8.14
  -1  30   2    5.95   10.12
   1  30  -1  -10.67   13.75
  -1  30   1   26.16   16.14
  -1  30   0   29.58   17.52
   1  30   0   18.03   10.11
   1  30   1  -14.80   13.61
  -1  30  -1    2.27    6.88
  -1  30  -2   11.57   10.21
   1  30   2  -16.90   16.01
   1  30   3   30.11   14.65
   1  30   4  -12.17   14.62
   1  30   5   -4.22   10.37
   1  30   6  -23.67   22.76
  -1  31   6   13.50   15.05
  -1  31   5   29.20   20.11
  -1  31   4   37.96   21.06
  -1  31   3   34.71   19.47
   1  31  -3   40.10   20.71
   1  31  -2   22.91   16.36
  -1  31   2   24.08   18.46
   1  31  -1    5.86    1.69
  -1  31   1   21.33   17.04
   1  31   0  -13.03   17.00
  -1  31   0   10.56   12.00
  -1  31  -1    7.04   10.22
   1  31   1   -3.49   11.82
   1  31   2   -8.48   13.51
  -1  31  -2   -2.01    4.81
   1  31   3    5.46    5.73
   1  31   4  -10.91   18.19
   1  31   5   15.21    3.38
  -1  32   4   21.24   19.14
  -1  32   3   21.49   16.79
  -1  32   2    3.98   11.01
   1  32  -2   23.94   17.37
  -1  32   1    8.22   12.00
   1  32  -1    8.37   14.00
  -1  32   0   16.09   13.87
   1  32   0    9.27   11.78
   1  32   1   17.58   12.88
  -1  32  -1   32.14   17.62
   1  32   2    4.80    3.53
   1  32   3   -8.26   15.80
  -1  33   2   63.72   26.18
  -1  33   1   24.73   18.10
   1  33  -1   23.50   17.35
   1  33   0   99.50   33.32
  -1  33   0   95.48   31.38
   1  33   1   35.61   21.34
  -1  34   1   11.45   12.27
   1  34  -1   12.09   14.39
   1  34   0   44.57   24.01
  -1  34   0   44.08   21.96
   2   0 -22   23.17   17.47
   2   0 -21   10.56   13.21
   2   0 -20    6.15    9.57
   2   0 -19    2.23   10.10
   2   0 -18   14.31   11.75
   2   0 -17   -7.90   10.57
   2   0 -16  167.01   31.88
  -2   0  16  157.19   22.03
  -2   0  15    1.26    3.70
   2   0 -15   -7.75    8.98
   2   0 -14   -9.36   10.48
  -2   0  14    8.58    5.81
  -2   0  13    1.68    2.47
   2   0 -13  -12.03   11.26
   2   0 -12   -1.63    8.59
  -2   0  12    0.45    3.87
   2   0 -11   -4.69    8.00
  -2   0  11   -3.03    4.86
  -2   0  10   -2.10    4.94
   2   0 -10    6.61    5.85
   2   0  -9   -0.56    0.40
  -2   0   9   -5.64    4.84
   2   0  -8    5.70    1.55
  -2   0   8    2.46    0.17
   2   0  -7   -2.98    4.50
  -2   0   7    0.97    2.10
  -2   0   6   26.55    6.32
  -2   0   6   26.12    7.49
   2   0  -6   30.44    7.47
   2   0  -5   -1.33    2.71
  -2   0   5   -0.09    2.94
  -2   0   5   -1.44    1.79
   2   0  -4   87.54   10.42
  -2   0   4   69.29   10.60
  -2   0   4   77.50    9.52
  -2   0   3   -1.09    2.36
   2   0  -2  265.37   11.78
  -2   0   2  259.07   14.84
   2   0  -1   -0.32    0.88
  -2   0   0  724.61   28.97
  -2   0   0  760.76   26.25
   2   0   0  735.02   26.34
  -2   0  -1   10.46    4.76
   2   0   1    0.17    1.32
  -2   0  -2 1268.96   26.36
   2   0   2 1295.41   26.87
   2   0   2 1245.90   41.86
  -2   0  -3    0.56    0.71
   2   0   3   -0.45    0.31
   2   0   4  137.96   15.81
   2   0   4  138.18   13.56
  -2   0  -4  134.91   13.04
   2   0   5   -0.14    2.14
   2   0   5   -1.75    2.76
  -2   0  -5    1.31    1.65
  -2   0  -5   -1.61    2.29
   2   0   6  120.62   16.84
  -2   0  -6  113.66   14.74
  -2   0  -6  122.79   16.63
  -2   0  -7   -3.40    3.66
   2   0   7   -2.89    4.24
   2   0   8  544.24   39.21
  -2   0  -8  518.45   37.26
   2   0   9    1.60    1.90
  -2   0  -9   -2.48    3.20
  -2   0 -10  121.44   20.19
   2   0  10  130.04   20.93
   2   0  11    9.46    8.13
  -2   0 -11    2.86    6.60
   2   0  11   -1.53    1.84
   2   0  12  447.65   41.66
   2   0  12  461.74   36.82
  -2   0 -12  451.61   44.13
   2   0  13    6.05    6.11
   2   0  13    5.70    6.66
  -2   0 -13    3.63    5.84
   2   0  14   77.92   18.58
  -2   0 -14   73.57   19.49
   2   0  14   75.64   14.87
   2   0  15   -1.33    3.52
  -2   0 -15    5.82    7.92
  -2   0 -16  114.58   26.57
  -2   0 -17    8.06   11.11
  -2   0 -18   33.78   17.43
   2  -1 -22   10.94   12.94
   2   1 -22   22.84   16.52
   2  -1 -21    8.97   12.39
   2   1 -21    5.68   12.00
   2   1 -20   49.18   22.08
   2  -1 -20   41.37   19.38
   2   1 -19   95.30   28.34
   2  -1 -19  104.20   28.93
   2  -1 -18   14.19    9.63
   2   1 -18   12.82    9.81
   2   1 -17   37.06   16.85
   2  -1 -17   19.22    9.83
  -2   1  16  213.43   27.59
   2   1 -16  221.54   37.29
   2  -1 -16  205.75   35.88
   2   1 -15   23.50   13.38
  -2  -1  15   20.73    7.58
  -2   1  15    9.07    0.99
   2  -1 -15    7.37    6.30
   2  -1 -14   93.40   20.00
  -2  -1  14   87.79   15.22
   2   1 -14   82.84   20.19
  -2   1  14   92.63   16.87
  -2  -1  13   17.19    6.18
  -2   1  13   13.88    3.15
   2   1 -13   21.37    8.09
   2  -1 -13   26.05    6.51
   2  -1 -13   12.09    4.13
   2  -1 -12   30.20    7.35
  -2  -1  12   31.10    8.32
   2  -1 -12   35.49    6.96
   2   1 -12   30.60   10.61
  -2   1  12   27.50    8.35
  -2   1  11    7.08    3.86
  -2  -1  11    6.82    3.00
  -2  -1  11    7.77    3.62
   2   1 -11    0.67    3.86
   2  -1 -11   -3.06    8.91
   2  -1 -11    8.29    2.95
  -2   1  10   69.45   12.26
   2   1 -10   73.78   12.71
  -2  -1  10   69.28   11.74
   2  -1 -10   75.35   14.50
   2  -1 -10   65.08    8.11
  -2  -1  10   68.34    8.55
  -2  -1   9  144.31   11.33
   2  -1  -9  151.20   18.76
  -2   1   9  136.60   17.29
  -2  -1   9  142.40   16.07
   2  -1  -9  146.88   11.13
   2   1  -9  146.30   16.42
  -2  -1   8    9.96    3.73
   2   1  -8    8.76    1.14
  -2  -1   8    8.11    2.28
   2  -1  -8    6.82    3.70
   2  -1  -8    8.64    2.37
  -2   1   8    4.19    1.92
   2  -1  -7  344.03   12.88
  -2  -1   7  343.10   13.07
  -2   1   7  356.04   26.08
  -2  -1   7  357.40   23.08
   2   1  -7  349.07   23.32
   2  -1  -7  359.79   26.30
  -2   1   6  164.71   16.68
   2  -1  -6  173.30   17.63
  -2  -1   6  164.69   19.72
  -2  -1   6  165.54   14.90
   2   1  -6  160.94   14.43
   2   1  -5  321.25   19.26
  -2   1   5  327.72   22.64
   2  -1  -5  333.19   22.77
  -2  -1   5  325.72   25.46
  -2  -1   4  356.04   23.80
  -2   1   4  349.47   22.86
   2   1  -4  358.86   20.29
  -2  -1   3  596.06   27.20
  -2   1   3  603.16   28.34
  -2  -1   2  665.84   24.24
   2  -1  -2  670.21   20.00
   2  -1  -1   24.94    4.37
  -2  -1   1   24.10    3.32
   2   1  -1   23.83    4.53
  -2  -1   0 2726.94   57.49
   2   1   0 2885.40   53.99
  -2   1   0 2841.65   54.12
  -2   1   0 2967.07   55.49
   2  -1   0 2903.62   54.24
   2  -1   1  275.82   18.44
   2   1   1  290.61   18.69
  -2  -1  -1  264.77   14.15
  -2   1  -1  269.26   17.21
   2   1   2   34.55    6.88
   2  -1   2   40.43    5.08
   2  -1   2   38.54    7.36
  -2  -1  -2   37.30    4.28
   2   1   3   43.53    8.40
   2  -1   3   39.90    5.46
   2  -1   3   41.46    8.30
  -2   1  -3   53.73    7.85
  -2  -1  -3   43.11    6.20
   2   1   4   80.05   12.47
   2  -1   4   79.06   10.32
  -2   1  -4   84.35   10.77
   2  -1   4   76.37   11.87
  -2  -1  -4   74.97    9.87
  -2  -1  -5   34.87    8.33
  -2   1  -5   31.47    7.84
   2  -1   5   34.38    7.42
   2   1   5   28.10    7.55
  -2  -1  -5   35.19    7.71
   2  -1   5   30.85    7.75
  -2   1  -5   37.81    8.20
   2  -1   6  402.30   30.43
  -2   1  -6  421.63   31.05
  -2  -1  -6  404.71   30.69
  -2  -1  -6  387.91   27.98
   2   1   6  408.81   31.19
   2  -1   6  425.68   29.55
  -2   1  -6  408.39   28.55
   2   1   7  591.88   39.33
  -2   1  -7  575.72   37.41
   2  -1   7  585.36   38.74
  -2  -1  -7  565.34   36.61
   2  -1   7  596.24   38.65
   2  -1   8  155.29   21.14
   2   1   8  162.13   21.56
  -2  -1  -8  161.35   20.48
  -2   1  -8  159.67   21.39
   2   1   9   27.24    9.67
  -2   1  -9   38.26   11.60
  -2  -1  -9   21.24    6.07
   2  -1   9   29.09    8.77
   2  -1  10   37.78   11.07
  -2   1 -10   38.99   12.87
  -2  -1 -10   29.29    9.29
   2   1  10   40.36   11.81
   2  -1  11   23.97    8.42
   2  -1  11   34.20   11.20
  -2   1 -11   31.33   11.98
  -2  -1 -11   21.67    7.58
   2   1  11   37.07   13.30
   2   1  11   30.56   10.57
  -2   1 -12   65.97   18.10
   2   1  12   79.07   17.31
   2  -1  12   65.41   15.68
   2  -1  12   73.07   14.22
  -2  -1 -12   57.93   15.08
   2   1  12   66.12   16.13
   2  -1  13  114.33   21.63
   2   1  13  128.38   21.28
   2   1  13  116.75   21.96
  -2   1 -13  128.14   25.06
   2  -1  13  124.95   18.23
  -2  -1 -13  108.35   21.79
   2  -1  14    1.14    1.24
  -2  -1 -14   -2.49    2.71
   2   1  14    1.79    2.28
  -2   1 -14    5.72    9.67
   2  -1  14    0.00    3.13
   2  -1  15   10.26    7.34
  -2   1 -15   15.05   11.12
  -2  -1 -15    9.77    9.18
   2  -1  16    3.65    6.45
  -2   1 -16   21.44   13.65
  -2  -1 -16   12.56   11.49
  -2   1 -17   22.48   13.96
  -2  -1 -17   12.20    9.92
  -2  -1 -18    7.57    9.68
  -2  -1 -19   27.09   17.51
  -2  -1 -20   63.63   23.91
   2  -2 -22   13.83   16.03
   2   2 -21   18.88   17.68
   2  -2 -21   24.95   15.66
   2   2 -20   66.79   24.62
   2  -2 -20   56.61   23.04
   2   2 -19    5.79    9.28
   2  -2 -19   -5.34    7.80
   2   2 -18   29.82   16.50
   2  -2 -18   14.66    8.23
   2   2 -17  255.83   42.06
   2  -2 -17  260.28   41.95
  -2   2  16    6.40    2.55
   2   2 -16   19.73   12.93
   2  -2 -16   -7.67   10.05
  -2  -2  15   47.55   10.04
  -2   2  15   36.83   10.26
   2   2 -15   51.34   17.44
   2  -2 -15   28.59    7.89
  -2  -2  14   31.78    8.10
  -2  -2  14   25.41    6.95
   2   2 -14   32.93   12.87
  -2   2  14   18.22    6.41
   2  -2 -14   20.21    3.25
   2  -2 -14   30.38    7.37
  -2  -2  13   13.81    4.75
  -2  -2  13   12.95    4.63
   2  -2 -13   15.59    4.79
  -2   2  13   12.05    5.56
   2  -2 -13   -1.73   10.48
   2   2 -12   77.47   18.39
  -2  -2  12   66.10    9.93
   2  -2 -12   56.44   16.01
  -2  -2  12   59.45   10.96
   2  -2 -12   67.36    9.77
  -2   2  12   62.56   13.09
   2  -2 -11   40.97   13.41
  -2  -2  11   47.64    9.43
   2   2 -11   45.57   13.35
   2  -2 -11   46.73    7.53
  -2   2  11   47.29   11.32
  -2  -2  11   46.09    7.81
  -2  -2  10   17.91    4.42
   2  -2 -10   32.48   10.76
  -2  -2  10   15.59    4.42
  -2   2  10   16.32    5.70
   2  -2 -10   18.51    4.73
   2   2 -10   24.91    7.32
   2  -2  -9  220.75   14.32
  -2  -2   9  215.71   14.45
  -2   2   9  227.34   23.68
   2  -2  -9  219.05   24.34
   2   2  -9  213.59   18.03
  -2  -2   9  214.09   18.34
   2  -2  -8  229.95   23.20
   2  -2  -8  224.05   13.12
  -2  -2   8  228.63   17.91
  -2   2   8  230.41   22.92
   2   2  -8  221.61   17.80
  -2  -2   8  223.43   13.45
  -2  -2   7  208.64   11.79
   2  -2  -7  209.58   11.62
   2   2  -7  214.15   16.75
   2  -2  -7  225.07   22.24
  -2   2   7  208.75   21.16
   2  -2  -6  447.19   29.84
  -2   2   6  425.17   28.12
  -2  -2   6  424.89   15.40
  -2  -2   6  459.10   32.77
   2   2  -6  446.87   23.05
   2   2  -5  121.97   11.50
   2  -2  -5  137.17   16.11
  -2  -2   5  132.66   15.24
  -2   2   5  117.32   14.43
  -2   2   4   -0.47    4.16
  -2  -2   4    2.41    2.33
  -2  -2   3 2080.56   52.40
  -2   2   3 2105.68   55.06
  -2   2   2    1.89    1.07
   2  -2  -2    4.14    2.18
  -2  -2   2    5.07    3.11
   2  -2  -1 1269.37   34.42
  -2   2   1 1300.25   39.37
  -2   2   1 1259.76   39.56
  -2   2   0  896.81   28.67
  -2   2   0  926.39   32.67
  -2  -2   0  896.43   34.34
   2  -2   0  920.31   31.85
   2   2   1  557.42   26.78
  -2  -2  -1  534.29   18.25
   2   2   1  520.32   17.20
   2  -2   1  558.72   26.87
   2   2   2   10.16    4.44
   2  -2   2    5.48    1.72
   2  -2   3  339.84   24.44
   2  -2   3  341.75   19.63
   2   2   3  335.90   24.11
  -2  -2  -4   44.45    7.48
   2   2   4   51.60   10.11
   2  -2   4   50.67    9.77
   2  -2   4   47.63    8.01
   2   2   5  238.94   22.85
   2  -2   5  242.76   20.90
  -2  -2  -5  234.22   19.88
  -2  -2  -5  244.60   22.85
   2  -2   5  242.92   22.70
  -2   2  -5  247.96   23.03
   2  -2   6   29.18    7.99
  -2  -2  -6   26.43    7.61
   2  -2   6   26.99    7.45
   2   2   6   21.27    7.34
  -2   2  -6   26.32    7.49
  -2  -2  -6   24.08    6.80
  -2   2  -6   30.35    9.15
   2   2   7   30.01    9.25
   2  -2   7   31.95    9.16
   2  -2   7   28.62    8.70
  -2  -2  -7   33.11    9.08
  -2   2  -7   30.20    9.70
  -2   2  -8   72.60   14.66
   2   2   8   54.84   12.56
   2  -2   8   61.13   12.84
  -2  -2  -8   56.93   12.38
   2   2   9   11.72    5.82
  -2   2  -9   18.89   10.41
   2  -2   9    6.45    4.11
  -2  -2  -9    6.92    3.93
   2   2  10   40.63   12.21
  -2  -2 -10   30.26    7.54
  -2   2 -10   52.26   14.91
   2  -2  10   26.98    9.43
   2  -2  11   15.98    8.11
  -2   2 -11   23.08   11.24
  -2  -2 -11    0.46    7.50
   2  -2  11    5.43    3.30
   2   2  11    9.24    6.67
   2   2  11   22.45   11.95
   2   2  12   44.10   15.08
   2  -2  12   29.05   10.04
   2  -2  12   38.06   10.28
  -2   2 -12   50.14   16.49
  -2  -2 -12   20.27    7.27
   2  -2  13   -4.58    5.12
  -2  -2 -13   -8.70    9.05
   2  -2  13   -2.49    3.33
   2   2  13    3.09    5.19
  -2   2 -13   10.30   11.72
   2   2  14  114.93   20.95
   2  -2  14  110.03   22.10
  -2   2 -14  136.42   27.10
  -2  -2 -14  113.07   23.20
  -2  -2 -15    1.23    3.30
   2  -2  15   -0.56    1.94
   2   2  15   -0.45    2.36
   2  -2  16   16.10    9.87
  -2  -2 -16   13.43   10.18
  -2  -2 -17  125.34   29.23
  -2  -2 -18   20.15   14.24
  -2  -2 -19   15.93   13.41
  -2  -2 -20   16.72   14.61
   2  -3 -22   11.59   10.55
   2  -3 -21   32.53   17.89
   2  -3 -20    0.94    4.02
   2   3 -20   30.60   20.00
   2  -3 -19    2.33    4.55
   2   3 -19   26.89   17.61
   2  -3 -18   -8.06   10.75
   2   3 -18   15.63   16.14
   2  -3 -17   -0.95    8.85
  -2   3  17   12.92    6.97
   2  -3 -16   34.99   13.36
  -2   3  16   42.22   12.61
   2   3 -16   59.07   19.95
  -2   3  15   94.09   18.63
  -2  -3  15  101.74   14.57
   2  -3 -15   79.76   19.78
   2   3 -15  120.05   27.72
  -2   3  14   -2.43    5.24
   2  -3 -14   -0.70    2.49
  -2  -3  14    4.35    3.80
  -2   3  13  174.53   24.81
   2  -3 -13  171.97   16.90
   2   3 -13  197.79   31.35
   2  -3 -13  172.06   30.20
  -2  -3  13  167.73   17.39
   2  -3 -12    4.95    2.99
   2   3 -12   13.45   10.02
   2  -3 -12    3.20    5.34
  -2   3  12    3.83    3.36
  -2  -3  12    3.05    2.05
   2  -3 -11   67.41   16.67
   2  -3 -11   76.12   10.19
   2   3 -11   92.76   19.70
  -2   3  11   72.02   15.62
  -2  -3  11   72.37   10.19
  -2  -3  10   14.53    4.29
  -2   3  10   16.86    7.64
   2   3 -10   20.74    6.06
   2  -3 -10   17.32    4.53
   2  -3  -9  958.84   52.29
  -2   3   9  971.23   52.57
  -2  -3   9  941.62   32.85
   2   3  -9  978.06   36.02
   2  -3  -9  961.99   32.29
   2  -3  -8  501.62   21.99
  -2  -3   8  487.09   22.03
  -2   3   8  518.65   36.45
   2  -3  -8  521.34   37.69
   2   3  -8  485.42   24.44
   2  -3  -7 2654.75   79.60
   2   3  -7 2624.60   53.44
  -2  -3   7 2634.56   48.84
  -2   3   7 2601.12   78.98
   2  -3  -6  208.52   21.86
  -2   3   6  199.39   20.96
  -2  -3   6  229.14   23.26
   2   3  -6  203.58   14.88
   2  -3  -5  574.45   34.53
  -2   3   5  599.52   34.44
  -2  -3   5  598.69   35.42
  -2  -3   4   54.24    9.81
  -2   3   4   46.16    8.28
  -2  -3   3  327.51   21.47
  -2   3   3  279.53   21.77
  -2   3   2  244.35   19.36
  -2   3   1  215.72   17.58
  -2   3   1  217.96   16.39
  -2  -3   0  168.89   15.95
   2  -3   0  182.33   11.87
   2  -3   0  175.46   14.71
  -2   3   0  163.82   14.77
  -2   3   0  176.38   14.72
  -2   3   0  158.11   11.14
   2  -3   1 1010.13   38.11
   2  -3   2   15.34    4.55
  -2  -3  -2   47.06    6.13
   2  -3   3   -1.44    3.05
   2  -3   4  288.00   24.33
   2  -3   4  304.79   21.94
   2   3   4  290.01   24.42
  -2  -3  -5    2.91    2.91
   2   3   5    4.20    4.55
   2  -3   5    2.34    1.40
   2  -3   5    4.76    3.34
  -2   3  -5    5.19    3.50
  -2  -3  -6  226.16   21.96
   2  -3   6  238.19   23.17
   2  -3   6  221.17   23.36
   2   3   6  228.23   23.84
   2   3   7  115.18   17.58
  -2  -3  -7  101.66   16.35
   2  -3   7  112.99   17.40
   2  -3   8   53.31   12.48
  -2  -3  -8   54.21   12.19
  -2  -3  -9   -1.02    1.17
   2  -3   9   -1.53    4.56
   2  -3  10    7.96    4.19
  -2  -3 -10    8.29    4.01
   2   3  11   22.00   10.56
  -2  -3 -11   -1.22    9.37
   2  -3  11   15.91    7.12
   2  -3  11    7.21    4.36
   2  -3  12   39.14   12.09
   2  -3  12   41.46    8.64
  -2  -3 -12   21.36    6.65
   2   3  12   49.03   15.32
   2   3  13  137.25   24.36
  -2  -3 -13  121.05   22.59
   2  -3  13  135.18   15.79
   2  -3  13  135.90   24.09
   2   3  14  206.90   29.28
  -2  -3 -14  184.14   30.42
   2  -3  14  177.34   28.52
   2  -3  15   50.48   15.37
  -2  -3 -15   48.01   15.52
   2   3  15   42.61   13.82
  -2  -3 -16    2.48    3.72
   2  -3  16   -3.17    5.24
  -2  -3 -17   14.61    9.67
  -2  -3 -18   15.76   12.17
  -2  -3 -19   18.71   14.57
  -2  -3 -20   21.68   15.00
   2  -4 -22   19.53   14.47
   2  -4 -21   -2.47    7.39
   2  -4 -20   -4.63    8.09
   2  -4 -19   -2.09    7.62
   2  -4 -18    8.36    5.97
   2   4 -18   25.98   17.75
  -2   4  17  445.59   45.90
   2   4 -17  455.58   55.03
   2  -4 -17  436.78   55.46
  -2   4  16    8.75    5.16
   2   4 -16   13.96   12.38
   2  -4 -15   -0.01   11.88
  -2   4  15    8.21    4.53
  -2  -4  15    6.31    2.91
   2   4 -15   17.41   12.93
   2  -4 -14   65.41   19.71
   2  -4 -14   53.64   10.03
  -2   4  14   61.89   15.64
  -2  -4  14   56.26   10.73
   2   4 -14   82.77   22.15
   2  -4 -13   52.31    9.75
  -2   4  13   56.57   14.37
   2  -4 -13   58.34   17.56
  -2  -4  13   52.41    9.77
   2   4 -13   74.97   20.94
   2  -4 -12   58.30   16.42
  -2   4  12   62.79   14.89
   2   4 -12   88.62   21.73
  -2  -4  12   57.71    9.87
   2  -4 -12   62.23   10.08
   2  -4 -11  258.61   19.88
   2  -4 -11  248.64   33.46
  -2   4  11  253.42   29.64
  -2  -4  11  256.57   20.43
   2   4 -11  278.73   34.41
   2  -4 -10   23.32    5.85
   2   4 -10   25.77    5.65
  -2  -4  10   19.67    5.32
  -2   4  10   21.88    9.09
  -2   4   9  532.79   40.12
   2  -4  -9  556.95   27.09
  -2  -4   9  557.96   27.36
   2   4  -9  550.21   24.64
   2  -4  -8   57.53    8.50
   2  -4  -8   60.44   13.46
   2   4  -8   60.32    8.04
  -2  -4   8   56.80    8.48
  -2   4   8   51.96   12.69
   2  -4  -7    1.14    2.09
   2   4  -7   -2.28    2.85
  -2   4   7    1.96    2.54
   2  -4  -6   19.64    6.23
  -2   4   6   21.82    7.91
  -2  -4   6   18.07    6.76
   2   4  -6   21.07    4.38
  -2   4   5 1140.34   50.43
  -2  -4   5 1249.01   52.10
  -2  -4   4  670.60   35.57
  -2   4   4  646.01   36.11
  -2   4   3  315.41   23.91
  -2   4   2 2416.08   63.81
  -2   4   1 1071.25   39.61
  -2   4   1 1035.15   40.15
  -2   4   0   36.16    2.64
  -2   4   0   50.15    8.33
  -2  -4   0   55.04    8.76
   2  -4   1  328.92   23.28
   2  -4   1  344.02   21.08
  -2   4  -1  342.28   20.91
   2  -4   2   15.45    5.68
   2  -4   2   10.43    3.01
   2  -4   3 1132.18   36.44
   2  -4   3 1049.11   46.16
   2  -4   4  131.60   16.88
   2  -4   4  149.55   16.11
   2  -4   5  451.05   32.90
  -2  -4  -5  478.97   33.72
  -2   4  -5  478.80   33.37
   2  -4   5  485.45   31.71
   2  -4   6   15.34    5.85
   2  -4   6   12.59    5.47
   2  -4   7    1.25    3.34
  -2  -4  -7   -1.98    3.44
  -2  -4  -8   36.01    9.58
   2  -4   8   45.49   11.62
   2  -4   9    3.94    3.75
  -2  -4  -9    4.03    2.00
   2  -4  10   -3.53    3.34
  -2  -4 -10    4.00    2.65
   2  -4  11  123.45   21.37
   2  -4  11  131.44   14.31
   2   4  11  137.67   24.79
  -2  -4 -11  120.95   22.24
   2  -4  12    6.49    2.30
  -2  -4 -12   -7.68   10.92
   2  -4  12   10.55    5.76
   2   4  12   14.90   11.19
   2  -4  13  143.57   24.77
  -2  -4 -13  116.88   22.65
   2   4  13  147.80   26.32
  -2  -4 -14   15.06    5.92
   2  -4  14   21.31    8.80
   2   4  14   24.48   10.39
  -2  -4 -15   54.65   17.19
   2  -4  15   52.77   15.70
   2   4  15   52.23   14.73
   2  -4  16   49.51   15.87
  -2  -4 -16   44.94   15.41
  -2  -4 -17  151.41   31.29
  -2  -4 -18    1.51    6.58
  -2  -4 -19   32.94   18.07
  -2  -4 -20   -0.51    0.95
   2  -5 -22   -4.57    8.68
   2  -5 -21    6.12    8.55
   2  -5 -20  -13.35   12.93
   2  -5 -19    1.58    8.99
   2  -5 -18    4.38    8.91
   2  -5 -17   -2.97   12.74
  -2   5  17   11.48    6.00
  -2   5  16   13.77    7.83
   2  -5 -16   12.01    5.75
   2   5 -15   90.64   24.31
  -2  -5  15   69.00   12.51
  -2   5  15   67.69   17.56
   2  -5 -15   61.36   19.46
  -2  -5  14   72.22   12.83
  -2   5  14   72.33   17.24
   2  -5 -14   82.39   21.48
   2   5 -14  116.81   26.71
   2  -5 -14   65.54   11.87
  -2  -5  13   40.85    9.05
  -2   5  13   40.26   13.50
   2  -5 -13   36.82    8.46
   2  -5 -13   41.36   15.03
   2   5 -13   63.92   20.88
   2  -5 -12  368.27   42.43
  -2   5  12  384.77   39.29
  -2  -5  12  358.68   26.76
   2  -5 -12  375.99   26.37
   2   5 -12  381.06   42.33
   2  -5 -11    2.97    1.08
  -2   5  11    3.80    6.34
  -2  -5  11    3.17    3.12
   2  -5 -11    1.65    1.95
   2  -5 -10   48.71    9.00
   2   5 -10   49.57    6.92
  -2  -5  10   49.23    8.90
  -2   5  10   49.76   14.34
  -2  -5   9   78.68   11.37
  -2   5   9   81.33   16.68
   2  -5  -9   79.89   11.26
   2   5  -9   71.32    7.80
  -2   5   8    3.64    6.48
   2   5  -8    0.89    0.46
   2   5  -7  682.46   25.51
   2  -5  -7  691.48   45.06
  -2   5   7  706.40   45.83
   2  -5  -6   49.70   11.03
  -2   5   6   53.37   12.31
  -2   5   5  105.07   15.87
  -2  -5   5  113.65   16.08
  -2   5   4    4.42    4.50
  -2  -5   4   11.80    7.26
  -2   5   3  178.69   19.24
  -2   5   2  394.93   27.10
  -2   5   2  389.03   25.34
  -2   5   1    0.19    2.65
  -2   5   1   -1.30    4.70
  -2   5   0  866.09   36.79
  -2  -5   0  827.27   37.64
  -2   5   0  793.01   35.49
   2  -5   1   -2.85    3.59
  -2   5  -1   -3.40    2.93
   2  -5   2 1048.59   45.51
   2  -5   2 1120.10   37.69
   2  -5   3   22.87    5.08
   2  -5   3   21.26    6.63
   2  -5   4  101.31   10.50
   2  -5   4   86.49   14.37
   2  -5   5    1.54    0.72
   2  -5   5    6.09    4.26
   2  -5   5   -0.52    3.00
   2  -5   6   72.61   13.71
   2  -5   6   77.21   13.87
   2  -5   7 1189.25   59.50
  -2  -5  -8   11.09    5.79
   2  -5   8   14.96    7.40
  -2  -5  -9  124.43   20.09
   2  -5   9  134.31   21.31
   2  -5  10   81.58   17.10
  -2  -5 -10   79.25   17.23
   2  -5  11   13.88    7.74
   2   5  11   27.64   14.57
  -2  -5 -11   16.88    8.07
   2  -5  11   16.11    4.60
  -2  -5 -12  163.51   27.74
   2  -5  12  148.73   12.61
   2   5  12  176.12   28.75
   2  -5  12  155.17   25.58
   2   5  13   97.99   22.63
   2  -5  13   85.67   19.42
  -2  -5 -13   78.72   19.25
  -2  -5 -14   -2.05    9.25
   2  -5  14    5.96    6.44
   2   5  14    4.71    5.10
   2   5  15   57.49   17.08
  -2  -5 -15   38.35   14.10
   2  -5  15   51.19   15.58
   2  -5  16   30.20   11.67
   2   5  16   21.17    8.49
  -2  -5 -16   21.11    9.65
  -2  -5 -17    3.19    3.35
  -2  -5 -18    7.00    6.50
  -2  -5 -19   -3.12    3.58
  -2  -5 -20   21.97   14.97
   2  -6 -22   28.21   17.70
   2  -6 -21   10.22    4.36
   2  -6 -20  -10.95   13.02
   2  -6 -19    4.81    3.27
  -2   6  18   -4.04    7.21
   2  -6 -18   -5.12   12.81
   2  -6 -17   31.43   12.47
  -2   6  17   39.64   13.73
   2  -6 -16   23.54   12.34
  -2   6  16   28.96   11.70
   2  -6 -15   20.59   10.20
  -2  -6  15   25.19    7.94
  -2   6  15   28.97   11.92
   2  -6 -14   -0.44    4.83
  -2   6  14   -1.07    5.58
  -2  -6  14    0.04    1.35
   2  -6 -13   11.48    5.15
   2  -6 -13   15.12    5.87
  -2   6  13   18.45   10.78
  -2  -6  13   15.04    5.99
   2  -6 -12    4.09    2.92
  -2  -6  12    4.77    1.49
   2  -6 -12    0.85    6.29
  -2   6  12   14.42    9.25
   2  -6 -11   -1.95    6.34
  -2   6  11    5.77    8.13
   2  -6 -11   -1.81    2.63
  -2  -6  11   -0.19    2.12
   2   6 -10  369.35   15.20
  -2  -6  10  414.51   28.36
  -2   6  10  411.53   40.28
   2  -6 -10  427.49   28.59
  -2   6   9    3.30    5.55
   2   6  -9    4.51    2.70
  -2  -6   9    4.87    3.71
   2   6  -8   45.25    6.26
  -2   6   8   63.84   15.51
  -2   6   7    4.89    6.70
  -2   6   6   47.08   12.65
  -2   6   5  214.37   24.47
  -2  -6   5  215.41   23.60
   2  -6  -4 1990.69   60.62
  -2   6   4 1962.24   70.70
  -2   6   3  945.15   47.00
   2  -6  -3  933.88   39.85
  -2   6   2 1816.03   61.82
  -2   6   2 1873.75   57.66
  -2   6   1  324.33   24.15
   2   6  -1  324.32   23.40
  -2   6   1  339.62   25.69
  -2   6   0  231.94   20.41
  -2  -6   0  197.93   18.33
   2  -6   0  221.46   19.58
  -2   6   0  215.08   18.99
  -2   6  -1   69.82   10.92
   2  -6   1   73.33   10.86
   2  -6   2  319.31   21.28
  -2   6  -2  329.13   21.78
   2  -6   3  269.49   25.30
   2  -6   3  279.05   18.75
   2  -6   4   19.07    7.26
   2  -6   4   14.31    3.59
   2  -6   5  156.70   20.56
   2  -6   5  162.42   13.22
   2  -6   6  167.31   22.03
   2  -6   6  171.21   13.32
   2  -6   7   16.53    6.32
   2  -6   7   21.82    4.70
   2  -6   8  578.75   23.19
   2  -6   8  595.86   44.45
   2  -6   9   38.85    5.66
   2  -6   9   42.11   12.36
  -2  -6  -9   50.11   12.91
  -2  -6 -10  223.41   29.59
   2  -6  10  213.29   12.97
   2  -6  10  226.80   29.52
   2  -6  10  214.63   12.70
  -2  -6 -11  185.81   28.42
   2  -6  11  199.66   28.16
   2   6  11  211.90   31.75
   2  -6  12   16.13    8.29
   2   6  12   17.41   12.97
  -2  -6 -12   11.96    7.37
   2  -6  13   -0.44    3.61
  -2  -6 -13    3.53    0.79
   2   6  13    1.63    4.84
  -2  -6 -14    3.13    3.51
   2  -6  14    1.60    2.72
   2   6  14    5.27    6.83
   2   6  15    2.35    2.53
  -2  -6 -15   -9.18   12.36
   2  -6  15   -0.61    3.49
   2  -6  16   16.97    9.58
  -2  -6 -16   12.26    2.43
   2   6  16   15.17    5.37
  -2  -6 -17   -6.80    9.97
  -2  -6 -18    6.76    5.73
  -2  -6 -19   -4.68    4.56
  -2  -6 -20   14.90   13.52
   2  -7 -22   -5.19    5.13
   2  -7 -21   -4.89    9.33
   2  -7 -20    9.76    5.97
   2  -7 -19   14.55    2.18
  -2   7  18    3.13    4.64
   2  -7 -18    0.69    3.59
   2  -7 -17    1.81    5.52
  -2   7  17    1.88    3.49
  -2   7  16   65.34   19.69
   2  -7 -16   77.64   23.20
  -2   7  15   36.17   14.58
  -2  -7  15   31.89    9.38
   2  -7 -15   33.51   14.88
   2  -7 -14   -0.16    5.17
  -2  -7  14    7.10    4.45
  -2   7  14    6.48    7.02
   2  -7 -13   -2.13    5.00
  -2  -7  13    2.97    3.15
   2  -7 -12   41.42    9.70
  -2  -7  12   36.92    8.99
  -2   7  12   44.88   16.64
   2  -7 -12   36.84   13.11
  -2  -7  11   10.81    5.02
   2  -7 -11   11.34    5.58
  -2   7  11   11.40    9.45
  -2   7  10   62.46   16.95
  -2  -7  10   61.43   11.72
   2   7  -9    0.50    0.88
  -2   7   9    2.40    4.83
  -2   7   8  114.89   21.59
   2   7  -8   97.94    8.99
  -2   7   7    8.05    8.38
  -2   7   6   18.18    9.79
  -2   7   5  145.10   20.97
  -2   7   4   57.68   13.38
   2  -7  -4   51.30    9.22
   2  -7  -3    5.23    2.03
  -2   7   3   17.12    7.51
  -2   7   2  783.38   43.48
   2  -7  -2  740.41   35.28
  -2   7   2  783.09   39.17
   2   7  -1  167.59   17.41
  -2   7   1  159.37   18.79
  -2   7   1  166.43   17.77
  -2  -7   0  892.96   41.70
  -2   7   0  910.98   41.78
  -2   7   0  796.01   39.57
   2  -7   0  910.87   42.63
  -2   7  -1   -3.42    4.46
  -2  -7  -1   10.01    7.69
   2  -7   1    5.92    5.03
  -2   7  -2  281.06   21.72
   2  -7   2  297.18   21.81
   2  -7   3    3.76    2.87
  -2   7  -3    1.49    1.04
   2  -7   4   84.57   10.49
   2  -7   4   78.57   14.49
   2  -7   5   67.25    8.58
   2  -7   5   65.10   14.21
   2  -7   6   20.00    4.52
   2  -7   6   21.71    8.48
   2  -7   7   31.60    9.52
   2  -7   7   28.02    4.97
   2  -7   8    1.26    4.00
   2  -7   8    5.14    2.12
   2  -7   9    0.06    3.90
  -2  -7 -10   40.14   11.79
   2  -7  10   46.58   13.68
  -2  -7 -11   -5.00    7.89
   2   7  11   11.71   12.18
   2  -7  11    3.13    3.13
  -2  -7 -12   27.52    9.88
   2   7  12   34.28   14.71
   2  -7  12   28.69   11.02
   2  -7  13  213.79   31.28
  -2  -7 -13  215.63   33.50
   2   7  13  219.65   34.73
  -2  -7 -14   51.22   16.61
   2  -7  14   44.76   15.08
   2   7  14   51.47   17.23
  -2  -7 -15   48.47   15.28
   2   7  15   51.16   16.16
   2  -7  15   44.54   14.19
  -2  -7 -16   92.28   22.79
   2  -7  16   97.54   22.85
   2   7  16  112.50   25.55
  -2  -7 -17  -10.93   14.39
  -2  -7 -18   -2.57    8.13
  -2  -7 -19    3.77    6.04
  -2  -7 -20   58.19   22.37
   2  -8 -22    0.20    7.32
   2  -8 -21   -2.37    3.53
   2  -8 -20   -6.71   11.22
   2  -8 -19   -9.05    9.58
  -2   8  18   -1.76    5.90
   2  -8 -18    8.46   10.63
  -2   8  17   45.90   16.77
   2  -8 -17   41.61   18.86
   2  -8 -16   57.88   19.61
  -2   8  16   73.15   20.65
  -2  -8  15   26.97    8.91
   2  -8 -15   31.93   15.55
  -2   8  15   37.22   15.46
  -2   8  14    7.65    8.86
   2  -8 -14   -3.73    8.08
  -2  -8  14    2.76    3.14
   2  -8 -13   -1.59    6.30
  -2  -8  13    7.81    3.57
  -2   8  13   16.52   11.70
  -2  -8  12   22.45    7.41
  -2   8  12   27.41   14.08
  -2   8  11    9.21    9.57
  -2  -8  11    5.81    4.25
  -2  -8  10   37.61    9.80
  -2   8  10   36.94   15.29
  -2   8   9   28.16   12.56
   2   8  -9   10.09    2.37
  -2   8   8  282.77   34.45
  -2   8   7  147.86   23.89
  -2   8   6   16.80   10.00
   2  -8  -5  124.94   15.91
  -2   8   5  150.04   22.68
  -2   8   4  154.45   22.14
   2  -8  -4  138.82   15.71
  -2   8   3   76.58   15.15
   2  -8  -3   74.18   11.70
  -2   8   3   71.01   11.69
   2  -8  -2  194.30   19.09
   2   8  -2  178.95   17.90
  -2   8   2  164.14   18.40
  -2   8   2  168.97   21.19
  -2   8   1  195.81   22.03
   2   8  -1  195.10   19.58
  -2   8   1  198.66   20.02
  -2   8   0   36.89    8.76
  -2  -8   0   32.90    7.21
   2  -8   0   32.47    7.62
   2  -8   1  387.17   27.72
  -2  -8  -1  371.81   27.92
  -2   8  -1  385.04   27.62
   2  -8   2    2.11    1.24
  -2   8  -2    2.93    1.51
  -2   8  -3  809.19   36.43
   2  -8   3  814.55   36.90
   2  -8   4   26.81    6.92
   2  -8   4   26.40    9.44
   2  -8   5   41.80    7.82
   2  -8   5   40.43   11.45
   2  -8   6   22.26    8.93
   2  -8   6   25.93    5.77
   2  -8   7  109.61   10.09
   2  -8   7  112.56   20.00
   2  -8   8  387.30   37.67
   2  -8   8  347.85   15.65
   2  -8   9   -5.42    6.61
   2   8  10  148.94   29.23
   2  -8  10  130.84   23.01
   2   8  11   42.46   16.52
   2  -8  11   32.45   12.29
  -2  -8 -11   23.09    6.63
   2   8  12   23.35   14.09
   2  -8  12   15.83    8.79
  -2  -8 -12    8.81    2.75
   2  -8  13   31.80   12.17
   2   8  13   34.37   15.10
  -2  -8 -13   24.77   11.46
   2  -8  14   13.60    9.11
  -2  -8 -14   10.25    7.40
   2   8  14   10.92    7.79
  -2  -8 -15   83.82   23.78
   2   8  15   79.36   21.72
   2  -8  15   82.78   20.93
  -2  -8 -16    9.60    8.63
   2  -8  16   15.50    9.61
   2   8  16    7.73    6.34
  -2  -8 -17   19.62    8.59
  -2  -8 -18   23.56   13.29
  -2  -8 -19    2.14    9.35
  -2  -8 -20   -3.37    7.98
   2  -9 -22   -4.56   11.77
   2  -9 -21   -9.43   17.77
   2  -9 -20   -6.49   13.64
   2  -9 -19   42.84   19.71
  -2   9  18    1.09    0.70
   2  -9 -18   -1.37    3.24
   2  -9 -17    5.78    6.62
  -2   9  17   11.71    7.19
  -2   9  16   10.28   10.01
   2  -9 -16    4.08    4.48
  -2  -9  15  231.56   27.59
   2  -9 -15  216.59   38.84
  -2   9  15  243.55   39.29
  -2   9  14    6.26    8.86
   2  -9 -14   -1.16    7.43
  -2  -9  14    2.55    1.48
   2  -9 -13   -4.73   11.05
  -2   9  13    3.19    7.76
  -2  -9  13    1.41    0.40
  -2   9  12   12.69    9.12
  -2  -9  12    7.73    5.50
  -2  -9  11  155.91   20.99
  -2   9  11  143.90   28.49
  -2   9  10    6.34    9.25
   2   9  -9   53.49    6.00
  -2   9   9   84.28   20.62
  -2   9   8    5.42    6.35
  -2   9   7  216.98   30.18
   2  -9  -6   22.43    5.96
  -2   9   6   34.68   13.65
  -2   9   5  135.13   22.42
   2  -9  -5  102.25   13.82
  -2   9   4  386.95   35.96
   2  -9  -4  369.95   27.53
  -2   9   3   50.37   13.30
  -2   9   3   25.39    5.77
   2  -9  -3   37.04    9.87
   2   9  -2   59.10    9.90
  -2   9   2   60.30   10.84
  -2   9   2   64.04   14.23
  -2   9   1  248.84   25.68
   2   9  -1  259.49   22.52
   2  -9  -1  258.11   25.61
  -2   9   1  252.58   23.68
   2  -9   0   -2.17    3.84
  -2  -9   0   -0.94    4.51
  -2   9   0    5.43    3.32
  -2   9  -1  248.27   23.17
   2  -9   1  255.23   23.60
  -2  -9  -1  245.75   23.59
   2  -9   2   33.23    7.66
  -2   9  -2   31.16    7.11
  -2   9  -3   81.63   12.49
   2  -9   3   81.64   12.06
   2  -9   4   -2.77    3.93
  -2   9  -4   -2.84    2.82
   2  -9   5    0.97    2.88
   2  -9   5    9.75    7.03
   2  -9   6   -1.13    2.42
   2  -9   6   -0.93    2.57
   2  -9   7  243.77   15.68
   2  -9   7  256.34   30.86
   2  -9   8   34.24    5.06
   2  -9   8   46.74   13.12
   2  -9   9   57.18   14.71
   2   9  10   19.67   14.10
   2  -9  10   -0.70    5.99
   2  -9  11   -0.16    1.25
   2   9  11    3.99   10.28
  -2  -9 -12   55.51   16.77
   2   9  12   72.61   21.47
   2  -9  12   53.70   15.63
  -2  -9 -13  227.34   35.02
   2   9  13  268.39   39.82
   2  -9  13  218.57   33.36
   2  -9  14    3.49    1.31
   2   9  14    1.70    3.13
   2  -9  15  162.08   29.80
   2   9  15  161.49   32.47
  -2  -9 -15  171.64   33.03
   2  -9  16    3.59    4.84
  -2  -9 -16   12.23   10.42
   2   9  16    1.18    4.15
   2   9  17    1.99    8.06
  -2  -9 -17   -0.03    3.74
  -2  -9 -18  -12.64   14.95
  -2  -9 -19    7.31    3.31
  -2  -9 -20    3.57    3.67
   2 -10 -21  -11.92   14.35
   2 -10 -20   24.09   17.38
  -2  10  19   90.97   26.04
   2 -10 -19   99.34   29.35
  -2  10  18   10.08   10.16
   2 -10 -18   12.70   12.03
  -2  10  17  122.36   29.11
   2 -10 -17  128.33   32.02
   2 -10 -16    0.60    6.01
  -2  10  16   10.18    9.02
   2 -10 -15   73.42   22.16
  -2  10  15   86.40   23.93
  -2 -10  15   77.41   16.77
  -2  10  14   14.42   13.05
   2 -10 -14    3.44    7.23
  -2 -10  14    4.02    2.16
  -2 -10  13   11.24    6.57
  -2  10  13   18.22   13.95
  -2  10  12   93.74   24.32
  -2 -10  12   77.26   15.68
  -2 -10  11  146.58   21.37
  -2  10  11  153.27   29.52
  -2  10  10  134.65   26.86
  -2  10   9  489.31   50.16
   2  10  -9  442.80   19.51
  -2  10   8   11.17   10.43
  -2  10   7  126.75   23.85
   2 -10  -7  107.05   15.78
  -2  10   6   14.18   11.17
   2 -10  -6   -1.89    5.21
   2 -10  -5  643.74   38.31
  -2  10   5  693.26   51.61
  -2  10   4  764.91   51.94
   2 -10  -4  683.65   37.46
  -2  10   3  159.79   23.79
  -2  10   3  157.07   19.36
   2 -10  -3  153.97   17.89
  -2  10   2    6.71    5.79
  -2  10   2   -4.42    5.69
   2  10  -2    0.93    4.27
  -2  10   1    6.92    6.42
  -2  10   1    2.20    4.68
   2  10  -1    5.71    5.02
   2 -10  -1    2.14    3.35
  -2  10   0   17.20    7.16
  -2 -10   0    2.72    3.92
   2 -10   0   18.08    6.62
  -2  10  -1  776.17   44.01
  -2 -10  -1  757.02   41.68
   2 -10   1  805.18   44.24
   2  10   2   78.98    6.53
   2 -10   2   97.80   14.45
  -2  10  -2   89.97   13.73
   2 -10   3  810.20   41.05
  -2  10  -3  782.60   40.41
  -2  10  -4   43.28    8.79
   2 -10   4   46.44    8.93
   2 -10   5  707.30   34.53
   2 -10   6   19.18    9.35
   2 -10   6   14.58    4.72
   2 -10   7   11.40    4.06
   2 -10   7    8.42    6.37
   2 -10   8   86.58   18.70
   2 -10   9   69.02   17.52
   2  10   9   91.44   24.34
   2 -10  10   80.09   18.37
   2  10  10   91.27   24.20
   2 -10  11   26.35   10.33
   2  10  11   40.02   17.20
   2 -10  12    0.72    1.50
  -2 -10 -12   -4.47    7.32
   2  10  12    6.17   10.02
  -2 -10 -13    6.67    2.36
   2 -10  13    4.94    5.82
   2  10  13   11.77   11.29
   2 -10  14    1.35    3.78
   2  10  14    5.60    8.37
  -2 -10 -14   -1.50    2.89
   2 -10  15   98.35   23.67
   2  10  15   95.33   26.23
  -2 -10 -15  103.72   26.49
  -2 -10 -16    2.09    5.38
   2  10  16   -0.29    3.64
   2 -10  16    6.78    5.96
   2  10  17   42.86   16.72
  -2 -10 -17   52.96   20.00
  -2 -10 -18   -8.53   12.73
  -2 -10 -19   -7.21   12.26
   2 -11 -21   54.82   24.21
   2 -11 -20   25.40   18.92
  -2  11  19    4.60    6.77
   2 -11 -19    4.52    7.13
  -2  11  18   20.60   14.45
   2 -11 -18   17.89   13.21
   2 -11 -17    0.64    6.86
  -2  11  17    4.75    9.91
  -2  11  16    4.57    8.89
   2 -11 -16  -11.84   12.49
  -2  11  15  147.21   31.65
   2 -11 -15  111.38   27.88
  -2 -11  15  122.10   20.94
  -2  11  14  144.33   30.55
  -2 -11  14  147.86   23.27
  -2 -11  13   40.34   12.02
  -2  11  13   34.45   16.18
  -2 -11  12  137.14   22.07
  -2  11  12  131.22   29.83
  -2  11  11   32.20   17.43
  -2  11  10   30.38   15.46
  -2  11   9  260.62   37.20
   2  11  -9  219.24   15.24
   2 -11  -8    7.39    3.47
  -2  11   8   24.84   14.45
   2 -11  -7  594.28   39.34
  -2  11   7  551.87   51.90
  -2  11   6   79.81   19.17
   2 -11  -6   69.29   11.49
  -2  11   5   41.98   15.21
   2 -11  -5   38.31    8.74
  -2  11   4   94.71   21.12
   2 -11  -4  103.95   15.26
  -2  11   3  809.43   46.17
  -2  11   3  781.83   54.11
  -2  11   2  155.97   19.69
   2  11  -2  166.27   19.15
  -2  11   2  163.77   23.85
  -2  11   1 1004.57   50.81
  -2  11   1 1024.16   56.83
   2  11  -1 1019.53   46.99
   2 -11   0  204.08   24.14
  -2 -11   0  188.49   20.38
  -2  11   0  195.75   24.76
  -2 -11  -1  221.89   23.45
   2 -11   1  227.87   24.57
  -2  11  -1  217.86   24.26
  -2  11  -2 1052.15   51.32
  -2 -11  -2  952.63   50.75
   2 -11   2 1060.55   51.63
   2  11   2  936.27   26.89
  -2  11  -3   24.79    6.37
   2 -11   3   31.90    9.07
   2 -11   4   -0.98    0.59
  -2  11  -4    1.04    2.83
  -2  11  -5  160.14   17.13
   2 -11   5  152.82   17.12
   2 -11   6  542.91   29.37
   2 -11   6  544.48   46.64
   2 -11   7  265.70   18.77
   2 -11   7  271.28   33.41
  -2 -11  -7  227.82   12.27
   2 -11   8  283.26   35.09
   2 -11   9   35.72   11.75
   2  11   9   49.87   20.52
   2  11  10   64.68   22.09
   2 -11  10   49.67   15.32
   2 -11  11   -0.20    4.61
   2  11  11   20.97   14.12
   2  11  12    9.46   11.01
   2 -11  12    1.02    4.72
   2  11  13   30.68   14.19
   2 -11  13   24.06   11.63
  -2 -11 -13   22.36   10.43
   2 -11  14   10.50    7.68
   2  11  14    8.06    7.19
  -2 -11 -14   17.76   12.57
   2 -11  15    9.63    8.17
  -2 -11 -15    8.25    8.03
   2  11  15    6.70    7.36
   2 -11  16   13.67    9.39
   2  11  16    1.48    6.43
  -2 -11 -16    6.01    5.67
  -2 -11 -17   11.31   12.48
   2  11  17    0.83   11.77
  -2 -11 -18   16.35   12.75
  -2 -11 -19   -3.22   10.82
   2 -12 -21    9.28   11.80
   2 -12 -20    6.11   10.33
   2 -12 -19    4.98    0.57
  -2  12  19    4.28    8.41
   2 -12 -18    5.52    9.30
  -2  12  18    1.30    6.66
  -2  12  17    3.97    4.28
   2 -12 -17    1.00    3.32
   2 -12 -16   41.56   15.34
  -2  12  16   56.29   21.10
  -2  12  15   11.81   12.38
   2 -12 -15   -6.69    9.43
  -2 -12  15    0.36    2.36
  -2 -12  14    0.24    1.57
  -2  12  14    4.92    9.08
  -2 -12  13   -1.62    1.00
  -2  12  13   10.04   12.21
  -2 -12  12    4.89    5.75
  -2  12  12   12.98   13.71
  -2  12  11   11.03   13.08
   2  12 -10  193.34   10.87
  -2  12  10  235.48   38.01
   2  12 -10  193.70   11.31
  -2  12   9  172.01   31.29
   2  12  -9  161.28   14.38
   2 -12  -9  158.41   20.49
  -2  12   8   34.10   12.51
   2 -12  -8   24.86    6.79
   2 -12  -7    5.11    5.45
  -2  12   7   22.37    9.29
  -2  12   6  176.67   28.03
   2 -12  -6  159.20   19.67
  -2  12   5   91.44   20.74
   2 -12  -5  103.72   15.24
  -2  12   4  320.40   37.18
   2 -12  -4  299.94   26.01
   2  12  -3  119.63   16.67
  -2  12   3  153.68   25.10
  -2  12   3  135.76   19.08
   2  12  -2  277.03   25.02
  -2  12   2  269.02   31.88
  -2  12   1   65.20   16.50
  -2  12   0    4.66    5.53
  -2 -12   0  -14.67    8.94
  -2 -12  -1  674.69   42.23
  -2  12  -1  687.50   45.50
   2 -12   2    3.73    5.76
   2  12   2    0.44    0.70
  -2  12  -2    0.56    2.79
  -2  12  -3   54.16   11.56
   2 -12   3   61.90   12.74
  -2  12  -4  199.13   21.43
   2 -12   4  205.97   22.05
   2 -12   5    7.95    5.93
  -2  12  -5    0.24    0.13
   2 -12   6   53.80   11.37
   2 -12   7  201.25   29.96
   2  12   8  140.15   29.87
  -2 -12  -8   93.31    8.50
   2 -12   8  121.66   23.69
   2 -12   9   52.77   15.80
   2  12   9   63.62   21.63
   2 -12  10  611.38   55.47
   2  12  10  600.61   62.68
   2  12  11   19.52   13.96
   2 -12  11   10.50    7.33
   2 -12  12    2.05    2.27
   2  12  12    2.74    5.76
   2 -12  13    2.62    4.42
   2  12  13    7.07    8.78
  -2 -12 -14    7.11    5.94
   2  12  14    5.01    5.66
   2 -12  14    9.09    6.96
  -2 -12 -15   95.62   25.25
   2  12  15   96.98   26.24
   2 -12  15  102.87   25.17
  -2 -12 -16    9.61    6.69
   2  12  16    3.22    1.28
   2 -12  16   10.19    8.04
   2  12  17    0.02    9.31
  -2 -12 -17    9.83    7.81
  -2 -12 -18   67.62   24.64
  -2 -12 -19   -7.52    9.08
   2 -13 -20   20.69   13.60
  -2  13  19   15.64   12.20
   2 -13 -19    2.33    4.26
  -2  13  18   -0.64    3.22
   2 -13 -18   -1.92    5.15
   2 -13 -17    9.27    7.58
  -2  13  17    9.90   10.31
   2 -13 -16   93.16   25.93
  -2  13  16  110.14   29.86
  -2  13  15   34.35   17.98
  -2 -13  15   23.12   10.63
  -2  13  14  142.34   32.12
  -2 -13  14  125.14   22.71
  -2 -13  13   10.80    7.26
  -2  13  13   21.17   14.73
  -2 -13  12   17.50    9.86
  -2  13  12   25.79   16.37
  -2  13  11   11.72   12.84
   2  13 -10    3.76    1.98
   2 -13 -10   -4.74    7.30
   2  13  -9   67.12    9.71
   2 -13  -9   64.98   13.12
  -2  13   9   80.36   23.69
   2 -13  -8  453.51   35.93
  -2  13   8  445.88   49.41
   2  13  -8  457.46   29.37
   2 -13  -7   33.63    8.54
  -2  13   7   27.88   11.45
  -2  13   6   70.23   18.92
   2 -13  -6   82.26   14.42
  -2  13   5  159.89   27.67
   2 -13  -5  176.31   20.24
  -2  13   4   38.93   16.20
   2  13  -3    7.58    1.52
  -2  13   3   16.90   10.77
   2  13  -2  212.41   22.32
  -2  13   2  213.54   29.19
  -2  13   1   67.57   16.94
  -2  13   0  311.84   32.87
  -2 -13   0  295.90   27.63
  -2  13  -1  145.38   22.01
  -2 -13  -1  152.45   20.04
   2  13   2   30.90    5.59
  -2 -13  -2   39.90   12.75
  -2  13  -2   34.00    9.92
  -2  13  -3   27.24    8.24
   2 -13   3   42.84   11.54
  -2  13  -4   26.38    6.60
   2 -13   4   44.39   12.22
   2 -13   5    8.13    7.77
  -2  13  -5   -1.59    1.73
  -2  13  -6   71.08   11.68
   2 -13   7   80.28   19.38
   2 -13   8   14.71   10.05
   2  13   8   27.66   15.81
  -2 -13  -9    2.48    1.12
   2 -13   9   15.41    9.77
   2  13   9   18.95   13.91
   2  13  10   42.49   21.44
   2 -13  10   25.67   11.05
   2 -13  11   10.45    5.03
   2  13  11   28.15   15.21
   2 -13  12    1.98    4.48
   2  13  12    4.37    4.23
   2 -13  13    1.75    1.58
   2  13  13    4.76    7.29
  -2 -13 -14   20.17   10.38
   2  13  14   33.12   16.04
   2 -13  14   26.91   13.15
   2 -13  15    9.63    8.83
   2  13  15    8.59    8.30
  -2 -13 -15    5.35    5.66
   2 -13  16    4.75    5.86
  -2 -13 -16   10.78    7.55
   2  13  16    2.49    3.93
  -2 -13 -17    8.58    8.98
   2  13  17    2.10    7.02
  -2 -13 -18   49.12   20.55
  -2 -13 -19   13.94   11.97
   2 -14 -20   -1.01    7.22
   2 -14 -19   52.94   23.60
  -2  14  19   52.83   21.62
  -2  14  18    6.84    7.90
   2 -14 -18   11.68    8.04
   2 -14 -17   45.24   19.06
  -2  14  17   52.63   20.78
  -2  14  16   15.77   13.41
   2 -14 -16    8.75    8.32
  -2 -14  15   39.51   13.72
  -2  14  15   47.59   19.86
  -2  14  14   11.05   12.16
  -2 -14  14    1.04    5.46
  -2 -14  13   25.30   11.35
  -2  14  13   24.39   15.33
  -2  14  12   71.85   24.01
   2 -14 -12   43.20   11.18
  -2  14  11   46.44   20.27
   2 -14 -11    0.79    6.32
  -2  14  10  524.30   57.78
   2 -14 -10  477.77   39.30
   2  14 -10  455.96   23.52
   2  14  -9    1.67    1.01
  -2  14   9   12.48   12.34
   2 -14  -9   -9.78   10.40
   2 -14  -8  172.11   21.11
  -2  14   8  182.05   31.93
   2  14  -8  170.55   19.53
  -2  14   7   22.10   10.50
   2 -14  -7   32.07    9.77
   2  14  -7   36.87   11.19
   2 -14  -6   56.68   12.60
  -2  14   6   31.69   12.91
  -2  14   5   85.53   20.06
   2 -14  -5  124.62   17.83
  -2  14   4  280.59   37.09
   2  14  -4  278.69   26.86
   2  14  -3   54.15   10.70
  -2  14   3   66.45   19.04
   2  14  -2   54.78   12.34
   2 -14  -2   47.92    6.46
  -2  14   2   47.47   16.44
  -2  14   1  211.32   29.12
  -2  14   0   67.59   16.39
  -2 -14  -1  252.06   26.54
  -2  14  -1  244.92   29.55
  -2 -14  -2   14.44    7.40
   2  14   2    5.47    2.39
  -2  14  -2    6.11    4.61
  -2  14  -3  202.69   24.63
  -2 -14  -3  226.73   26.92
  -2  14  -4   52.43   11.43
  -2  14  -5   -1.30    2.67
  -2  14  -6    8.95    2.97
   2  14   7   20.17   14.51
   2 -14   8   98.64   22.36
   2  14   8  111.66   27.62
   2  14   9   64.44   22.05
   2 -14   9   55.12   17.35
   2  14  10  206.28   38.31
   2 -14  10  185.57   31.90
   2 -14  11    1.88    3.73
   2  14  11   12.29   10.12
   2  14  12   17.44   13.75
   2 -14  12    8.32    4.25
   2 -14  13    7.37    5.68
   2  14  13    7.37    7.23
   2  14  14   44.10   20.33
   2 -14  14   47.94   17.78
  -2 -14 -15   15.68   10.10
   2 -14  15   21.55   12.61
   2  14  15   19.93   13.62
   2  14  16   26.67   13.57
   2 -14  16   36.63   16.05
  -2 -14 -16   23.61   13.81
  -2 -14 -17   37.30   17.49
   2  14  17   40.95   17.65
   2  14  18   -2.24   11.47
  -2 -14 -18   10.35   11.42
  -2 -14 -19   15.64   14.24
   2 -15 -20    9.09    9.01
  -2  15  20    6.33   10.16
  -2  15  19   35.29   18.51
   2 -15 -19   34.72   17.95
   2 -15 -18    3.22    7.82
  -2  15  18    2.97    3.65
  -2  15  17   16.79   15.26
   2 -15 -17   -4.85    9.45
  -2  15  16   54.25   23.12
  -2  15  15   14.57   12.90
  -2 -15  15    7.65    7.21
  -2  15  14   15.87   15.06
   2 -15 -14   -1.64    6.85
  -2 -15  14   10.00    8.66
   2 -15 -13   -6.25    7.80
  -2  15  13    7.72   12.60
  -2 -15  13    5.16    4.37
   2 -15 -12    3.39    6.10
  -2  15  12   12.34   13.09
  -2  15  11   23.52   15.79
   2 -15 -11   -8.96   10.75
  -2  15  10  218.51   39.36
   2  15 -10  197.95   17.02
   2 -15 -10  173.16   23.15
  -2  15   9   66.55   22.95
   2 -15  -9   48.95   11.21
   2  15  -9   54.82    9.80
  -2  15   8    8.71    0.84
   2  15  -8    5.77    5.61
   2 -15  -8    5.59    5.57
  -2  15   7   54.84   16.74
   2  15  -7   59.26   13.81
   2 -15  -7   60.38   12.83
  -2  15   6   -4.19    7.86
   2  15  -6   15.78    9.63
  -2  15   5   62.61   17.12
  -2  15   4    7.69   12.48
   2  15  -4   -6.28    7.11
  -2  15   3   67.56   19.35
   2  15  -3   64.80   13.03
   2 -15  -2    0.94    0.67
   2  15  -2   13.39    8.74
  -2  15   2    9.76    9.36
  -2  15   1   23.89   11.72
  -2  15   0    7.44    6.93
  -2 -15  -1   -0.15    7.71
  -2  15  -1    8.92    7.80
   2  15   2    4.32    1.51
  -2  15  -2    5.30    3.86
  -2 -15  -2    8.30    6.11
  -2  15  -3   44.81   12.14
  -2 -15  -3   67.90   16.73
  -2  15  -4   37.77   10.33
  -2  15  -5   52.60   12.24
   2  15   6   52.66   21.47
  -2  15  -6   41.13   10.08
   2  15   7   19.73   15.36
   2  15   8  164.92   34.25
   2 -15   8  143.06   28.40
   2 -15   9   21.35   11.89
   2  15   9   27.66   17.20
   2  15  10   18.26   14.55
   2 -15  10    8.24    7.79
   2  15  11   24.50   14.30
   2 -15  11   19.59   10.99
   2  15  12   19.09   12.33
   2 -15  12   17.25   11.29
   2 -15  13   51.13   17.88
   2  15  13   53.32   21.00
   2 -15  14   20.30   10.83
   2  15  14   17.04   12.82
  -2 -15 -15   22.67   14.00
   2 -15  15   26.37   14.63
   2  15  15   16.82    7.18
   2 -15  16    2.99    3.51
  -2 -15 -16    0.81    3.52
   2  15  16    2.02    3.86
   2  15  17   -6.52   10.63
  -2 -15 -17    0.34    6.49
  -2 -15 -18    5.00    7.70
   2  15  18   -4.06    9.89
  -2 -15 -19    4.18    7.36
  -2  16  20   -1.54    4.01
  -2  16  19    5.35    8.42
   2 -16 -19   11.58    2.98
   2 -16 -18   13.12    6.14
  -2  16  18   34.50   18.91
   2 -16 -17   59.35   22.88
  -2  16  17   54.22   21.20
  -2  16  16   15.79   13.22
  -2  16  15  113.63   31.50
  -2 -16  15  107.21   23.76
  -2 -16  14    7.73    6.88
  -2  16  14    8.78   13.07
   2 -16 -13   10.35    1.88
  -2  16  13   16.16   13.15
  -2 -16  13   18.01   11.31
  -2  16  12   18.14   15.66
   2 -16 -12  -10.64   10.64
  -2  16  11   33.35   19.02
   2 -16 -11    4.10    6.12
   2  16 -10   63.23   10.66
   2 -16 -10   58.50   12.02
  -2  16  10   77.08   26.23
   2 -16  -9   75.24   14.17
  -2  16   9   72.73   23.86
   2  16  -9   57.23   10.37
  -2  16   8    7.27    5.32
   2 -16  -8   18.66    8.02
   2  16  -8    4.46    4.42
   2  16  -7   33.60   11.29
  -2  16   7   38.74   12.96
   2 -16  -7   68.09   14.65
   2  16  -6   18.73   10.62
  -2  16   6    4.47    4.49
   2  16  -5   57.90   15.99
  -2  16   5   38.86   14.80
   2  16  -4  235.53   25.16
  -2  16   4  269.13   37.98
  -2  16   3  135.98   27.42
   2  16  -3  137.29   19.26
  -2  16   2   30.93   13.89
   2 -16  -2   18.61    3.32
  -2  16   1   32.56   13.75
  -2  16   0   20.53    9.95
  -2  16  -1  198.35   28.50
  -2 -16  -1  189.88   22.69
   2  16   1  219.23   19.33
  -2  16  -2  147.90   23.97
   2  16   2  137.66   14.48
  -2 -16  -2  134.85   20.63
  -2 -16  -3   84.79   17.55
  -2  16  -3   65.40   15.11
  -2 -16  -4  154.63   24.12
   2  16   4  129.85   28.98
  -2  16  -4  111.17   18.83
  -2  16  -5  102.01   17.57
   2  16   5  116.81   28.71
  -2  16  -6    0.20    2.22
   2  16   6   19.64   14.43
  -2  16  -7   -1.40    3.95
   2  16   7   10.62   14.33
   2  16   8  155.48   33.78
   2 -16   8  160.68   30.60
   2 -16   9   16.00   10.14
   2  16   9   18.97   15.31
   2  16  10   38.91   18.66
   2 -16  10   34.29   14.27
   2 -16  11    1.89    3.94
   2  16  11   10.62   11.86
   2 -16  12   26.74   13.08
   2  16  12   29.54   16.48
   2 -16  13    9.77    6.65
   2  16  13    5.88    7.64
   2  16  14    3.42    4.98
   2 -16  14   -0.30    4.39
   2  16  15    6.90    6.82
   2 -16  15   17.35   10.62
   2 -16  16    5.71    7.65
   2  16  16   -9.24    9.75
  -2 -16 -16   -1.91    8.19
  -2 -16 -17   54.82   22.20
   2  16  17   48.86   20.38
   2  16  18  -10.63   13.89
  -2 -16 -18   -0.06    2.54
  -2  17  20   19.14   13.85
  -2  17  19   31.56   17.62
   2 -17 -19   23.48   16.96
  -2  17  18   12.37   12.43
   2 -17 -18   -0.47    4.90
  -2  17  17    5.85    7.15
  -2  17  16   20.63   14.60
  -2 -17  15    0.94    2.30
  -2  17  15    3.57    9.84
  -2 -17  14   41.22   15.34
  -2  17  14   54.66   24.08
  -2  17  13    8.30   11.69
   2 -17 -12    1.23    4.77
  -2  17  12   18.07   14.74
  -2  17  11   28.53   17.98
   2 -17 -11    3.80    0.66
  -2  17  10   31.87   16.96
   2 -17 -10   44.32   11.87
   2 -17  -9   29.68    9.92
  -2  17   9   38.89   19.41
   2  17  -9    3.90    4.66
  -2  17   8   10.39   14.02
   2  17  -8    2.05    3.17
  -2  17   7   22.44   10.11
   2  17  -7   18.20    8.53
  -2  17   6   30.46   14.29
   2  17  -6   27.66   12.03
  -2  17   5   30.44   15.72
   2  17  -5   43.13   14.54
   2  17  -4  107.29   16.88
   2  17  -4  136.21   25.23
  -2  17   4  136.08   28.47
  -2  17   3   41.24   17.04
   2  17  -3   37.77   11.14
   2 -17  -3   36.27    7.37
   2  17  -3   42.10   16.41
   2  17  -2   13.68   12.87
  -2  17   2    7.92    9.96
  -2  17   1   38.51   15.10
  -2  17   0  187.06   29.40
  -2 -17  -1  102.10   16.02
  -2  17  -1  134.63   24.84
   2  17   1  170.46   18.43
  -2 -17  -2  134.45   20.08
  -2  17  -2  134.56   23.34
   2  17   2  131.70   14.73
   2  17   2  158.68   30.91
  -2  17  -3   55.33   14.27
  -2 -17  -3   81.50   17.19
   2  17   3   61.78    9.05
   2  17   3   97.43   26.69
   2  17   4   51.98   20.10
  -2  17  -4   27.02    8.75
  -2 -17  -4   53.80   17.11
  -2  17  -4   18.89    3.30
   2  17   5   27.65   18.82
  -2  17  -5   -5.37    6.11
  -2  17  -6    5.27    4.66
   2  17   6   18.06   15.28
  -2  17  -7   -0.52    3.10
   2  17   7   13.39   13.26
   2  17   8   45.83   21.19
   2  17   9  117.12   31.04
   2 -17   9  107.29   26.95
   2 -17  10   -4.65    4.99
   2  17  10    3.72    5.26
   2 -17  11   33.47   15.98
   2  17  11   34.62   17.48
   2 -17  12   26.87   12.71
   2  17  12   20.21   11.95
   2 -17  13   11.47   10.21
   2  17  13    9.79   10.53
   2 -17  14    7.79    7.16
   2  17  14   10.08    8.52
   2  17  15   15.24    7.07
   2 -17  15   13.73    9.41
  -2 -17 -16    3.72    6.99
   2 -17  16   10.24    8.54
   2  17  16    6.70    7.01
  -2 -17 -17   -5.67   10.82
   2  17  17   -8.46   13.06
  -2 -17 -18   -3.78    6.29
   2  17  18    0.17    9.68
  -2  18  20    3.84    4.51
   2 -18 -19   16.69   10.62
  -2  18  19   21.26   17.76
   2 -18 -18   -6.75   11.85
  -2  18  18    7.37   10.14
  -2  18  17   13.59   11.98
  -2  18  16   19.60   15.20
  -2  18  15    5.85   10.10
  -2  18  14    8.00   13.03
  -2 -18  14    3.33    6.79
  -2  18  13    7.44   11.41
  -2  18  12   37.00   19.11
  -2  18  11   25.57   18.33
   2 -18 -11   22.58    8.90
  -2  18  10  165.73   37.22
   2 -18 -10  170.73   22.10
  -2  18   9   11.48   14.72
   2  18  -9   -7.22    7.16
  -2  18   8   93.42   27.35
   2  18  -8   86.54   15.81
   2  18  -7   50.24   13.27
  -2  18   7   68.62   25.14
   2  18  -6  103.55   19.65
  -2  18   6  107.71   27.63
   2  18  -5  124.34   22.31
  -2  18   5  115.55   28.09
   2  18  -4   67.07   19.97
  -2  18   4   55.94   21.40
   2  18  -3   43.50   17.13
   2  18  -3   45.98   12.99
   2 -18  -3   27.44    5.89
  -2  18   3   55.30   20.11
   2  18  -2  227.83   34.11
  -2  18   2  224.45   35.95
  -2  18   1   55.57   17.85
   2  18  -1   74.67   21.78
   2  18   0   37.64   17.54
  -2  18   0   14.20   10.29
  -2  18  -1   32.76   13.09
   2  18   1   62.59   21.84
   2  18   1   51.40   11.74
  -2 -18  -2   -2.94    9.19
  -2  18  -2    3.62    6.07
   2  18   2    3.89    1.05
  -2  18  -3  127.54   22.74
  -2 -18  -3  135.49   22.05
   2  18   3  116.48   13.53
   2  18   3  151.64   31.94
   2  18   4   65.99   23.30
  -2  18  -4   46.32   12.97
  -2 -18  -4   69.52   17.36
   2  18   5   44.80   20.21
  -2 -18  -5   45.36   17.42
  -2  18  -6  175.41   24.34
   2  18   6  228.00   40.88
  -2  18  -7   11.62    6.00
   2  18   7   25.10   16.78
   2  18   8  121.13   31.12
   2 -18   9    8.20    7.68
   2  18   9   26.31   17.28
   2 -18  10   13.41   10.69
   2  18  10    5.20    8.42
   2  18  11    9.70   10.91
   2 -18  11   -3.53    7.33
   2 -18  12   92.49   26.13
   2  18  12  102.80   31.65
   2 -18  13   -0.81    4.21
   2  18  13    6.72    6.61
   2  18  14   -5.42    9.44
   2 -18  14    0.77    3.99
   2  18  15   -8.60   11.40
   2 -18  15   -6.06    7.58
  -2 -18 -16    2.24    7.19
   2  18  16    0.94    3.43
   2  18  17  -15.10   17.45
  -2 -18 -17   -2.50    8.27
  -2 -18 -18    3.33    1.60
   2  18  18   -8.28   16.16
  -2  19  19    0.08    2.85
  -2  19  18    2.21    7.25
  -2  19  17    7.01    6.22
  -2  19  16   13.51   14.46
  -2  19  15    6.48   11.55
  -2 -19  14   54.41   19.00
  -2  19  14   78.50   28.25
  -2  19  13   15.96   16.85
  -2  19  12   59.51   23.92
  -2  19  11   17.34   14.23
   2 -19 -10   58.88   14.19
  -2  19  10   33.44   19.19
   2  19  -9  116.99   18.14
  -2  19   9  142.63   34.72
  -2  19   8   26.79   18.45
   2  19  -8    9.82    4.23
   2  19  -7    6.19    5.51
  -2  19   7   24.11   17.69
  -2  19   6   84.05   24.79
   2  19  -6   80.38   17.93
   2  19  -5   49.50   16.12
  -2  19   5   42.38   20.86
   2  19  -4  212.84   31.67
  -2  19   4  205.26   36.86
   2 -19  -4  210.69   19.02
  -2  19   3   43.21   19.01
   2 -19  -3   28.06    5.10
   2  19  -3   56.38   17.78
  -2  19   2  256.67   39.50
   2  19  -2  244.54   36.74
  -2  19   1    7.52   10.61
   2  19  -1   35.57   17.37
  -2  19   0  169.67   30.13
   2  19   0  187.28   33.47
  -2  19  -1   50.17   16.83
   2  19   1   76.51   13.72
   2  19   1   55.46   19.86
  -2  19  -2   13.42    8.96
  -2 -19  -2   -5.10    8.24
  -2  19  -3   94.39   19.87
  -2 -19  -3  113.09   19.64
   2  19   3  137.70   30.26
  -2 -19  -4   21.61   10.74
  -2  19  -4    0.37    1.95
   2  19   4   21.89   15.66
   2  19   5   27.73   16.97
  -2  19  -5   10.36    3.22
  -2 -19  -5   45.22   17.27
  -2  19  -6  410.27   38.94
   2  19   6  440.21   56.21
  -2  19  -7   11.35    5.88
   2  19   7   21.13   15.09
   2  19   8  187.19   38.59
   2 -19   9   53.72   19.38
   2  19   9   36.49   17.36
   2  19  10   32.99   17.45
   2 -19  10   35.27   16.09
   2 -19  11    0.84    4.44
   2  19  11   -2.06    0.94
   2 -19  12   19.77   11.66
   2  19  12   22.03   13.62
   2 -19  13   14.49   10.98
   2  19  13   14.95   12.86
   2 -19  14   -0.86    2.99
   2  19  14    5.21    8.34
   2 -19  15   -2.11    8.69
   2  19  15   -8.49   11.87
   2  19  16   -3.14    9.08
  -2 -19 -17   -3.49    8.14
   2  19  17  -15.89   19.05
  -2 -19 -18   -0.48    9.24
  -2  20  18   27.17   15.28
  -2  20  17   19.26   16.36
  -2  20  16   14.94   13.34
  -2  20  15    3.45    8.65
  -2 -20  14   14.17   10.10
  -2  20  14   15.62   15.56
  -2  20  13    9.18   11.96
  -2  20  12    8.42   11.76
  -2  20  11   64.47   26.00
  -2  20  10   17.22   15.37
  -2  20   9   21.40   15.94
   2  20  -8    1.83    4.72
  -2  20   8   10.72   11.66
  -2  20   7   78.45   25.02
   2  20  -7   56.97   14.33
  -2  20   6   23.77   15.96
   2  20  -6   18.78    9.24
  -2  20   5   54.69   22.75
   2  20  -5   39.60   15.21
  -2  20   4   20.10   15.85
   2  20  -4   18.69   11.93
   2 -20  -4   17.13    6.23
  -2  20   3  106.48   26.87
   2  20  -3  124.67   25.69
  -2  20   2   89.31   25.58
   2  20  -2  100.00   23.96
  -2  20   1   17.55   12.43
   2  20  -1   11.26   12.49
  -2  20   0   14.82   12.76
   2  20   0   24.67   16.88
   2  20   1   20.78   14.43
  -2  20  -1    2.65    5.31
  -2 -20  -2   41.87   10.13
  -2  20  -2   64.57   17.32
  -2  20  -3   94.62   20.74
  -2 -20  -3   99.01   18.04
   2  20   3  106.30   27.39
  -2  20  -4   50.79   14.40
  -2 -20  -4   69.98   16.70
   2  20   4   59.56   22.89
  -2 -20  -5   64.31   18.11
  -2  20  -5   24.37    9.42
   2  20   5   52.84   21.85
  -2 -20  -6   50.49   17.45
   2  20   6   20.20   15.14
  -2  20  -6   19.57    9.47
  -2  20  -7   29.06    9.91
   2  20   7   34.06   17.99
   2  20   8   43.96   18.63
   2 -20   9   19.00   12.49
   2  20   9   24.82   15.61
   2 -20  10  179.76   36.57
   2  20  10  166.53   38.29
   2  20  11    1.75    7.14
   2 -20  11    4.83    7.43
   2 -20  12   40.21   17.67
   2  20  12   55.97   23.24
   2  20  13    2.59    7.92
   2 -20  13    2.46    3.96
   2 -20  14    4.97    7.57
   2  20  14    1.13    2.83
   2 -20  15    3.23    1.88
   2  20  15    0.11    6.76
   2  20  16   -5.75    9.30
  -2 -20 -17    1.05    5.09
  -2  21  17   42.14   23.73
  -2  21  16   13.69   14.32
  -2  21  15    3.26   11.43
  -2 -21  14   29.23   14.27
  -2  21  14   25.52   17.37
  -2  21  13    6.72   12.89
  -2  21  12   18.98   16.08
  -2  21  11    9.18   13.25
  -2  21  10   21.38   17.76
  -2  21   9   37.72   20.49
   2  21  -8   16.42    6.77
  -2  21   8   33.20   18.54
  -2  21   7   92.17   28.19
   2  21  -7   72.27   16.93
  -2  21   6  180.70   37.31
   2  21  -6  170.08   27.03
   2 -21  -5  288.09   24.81
   2  21  -5  278.07   35.87
  -2  21   5  287.91   46.28
  -2  21   4   54.32   22.47
   2 -21  -4   32.54    6.53
   2  21  -4   38.62   14.34
  -2  21   3   12.98   15.22
   2  21  -3   19.11   12.92
  -2  21   2   60.13   20.72
   2  21  -2   52.66   17.87
  -2  21   1    7.99    8.53
   2  21  -1   14.06   11.22
  -2  21   0   74.57   22.18
   2  21   0   59.71   21.21
   2  21   1   32.03   17.49
  -2  21  -1   17.78   11.34
  -2  21  -2    4.40    6.18
   2  21   2   10.74   11.46
  -2  21  -3   10.54    8.01
  -2 -21  -3  -10.24    8.98
   2  21   3   29.15   17.38
  -2  21  -4   38.29   12.39
  -2 -21  -4   36.54   12.15
   2  21   4   53.24   21.42
  -2  21  -5   29.95   10.25
  -2 -21  -5   43.87   14.24
   2  21   5   43.81   19.56
  -2 -21  -6  119.49   23.67
   2  21   6   96.85   29.06
  -2  21  -6  101.09   20.31
  -2 -21  -7   75.71   21.61
   2  21   7   47.96   19.67
   2  21   8   72.71   24.47
   2  21   9   95.07   28.54
   2 -21   9   91.21   26.17
   2 -21  10    4.06    7.01
   2  21  10    5.95    7.89
   2 -21  11   22.61   14.71
   2  21  11   19.80   16.16
   2  21  12    1.28    5.28
   2 -21  12    1.77    7.81
   2  21  13  101.40   32.55
   2 -21  13   93.57   27.48
   2  21  14   55.95   25.47
   2 -21  14   46.14   18.58
   2  21  15   -4.09   11.79
   2 -21  15    9.36    6.17
   2  21  16    1.55    5.16
  -2 -21 -17    9.72   11.99
  -2  22  16   -0.15   10.48
  -2  22  15   29.35   20.32
  -2  22  14    3.66   12.55
  -2  22  13   18.27   17.61
  -2  22  12    9.85   12.66
  -2  22  11    9.55   11.77
  -2  22  10   93.95   30.43
  -2  22   9   28.27   20.09
  -2  22   8   11.65   10.04
   2  22  -8   -1.05    4.95
   2  22  -7    1.24    1.92
  -2  22   7   12.01   15.05
   2  22  -6    2.98    3.20
  -2  22   6   21.35   16.69
  -2  22   5   18.36   16.86
   2  22  -5    2.94    6.13
  -2  22   4  329.28   49.83
   2  22  -4  329.32   41.79
  -2  22   3   52.75   21.26
   2  22  -3   35.60   14.33
  -2  22   2   46.87   20.55
   2  22  -2   51.61   17.92
  -2  22   1   11.21    9.82
   2  22  -1    4.67   10.62
  -2  22   0   60.50   20.28
   2  22   0   71.60   22.02
  -2  22  -1  113.08   25.84
   2  22   1  139.22   31.55
  -2  22  -2    0.98    3.51
   2  22   2   13.24   12.14
  -2  22  -3   22.76    9.84
  -2 -22  -3   12.65    5.63
   2  22   3   38.22   18.51
  -2  22  -4   -2.34    6.33
  -2 -22  -4   -3.46    4.93
   2  22   4    0.53    6.67
  -2  22  -5   70.32   17.49
   2  22   5   99.66   28.59
  -2 -22  -5   89.19   19.99
   2  22   6   80.44   25.76
  -2 -22  -6   82.03   20.43
  -2  22  -6   54.65   15.45
  -2 -22  -7   32.74   15.29
   2  22   7    8.55   10.12
   2  22   8   68.70   24.90
   2  22   9   21.88   15.57
   2 -22  10   -0.19    3.80
   2  22  10    4.51    9.52
   2  22  11   32.05   15.94
   2 -22  11   35.72   18.09
   2 -22  12    2.74    5.46
   2  22  12   -3.54    6.64
   2 -22  13   -2.03    5.68
   2  22  13   -0.75    6.97
   2 -22  14    4.57    6.20
   2  22  14    7.19    6.12
   2  22  15    8.49    9.88
   2 -22  15   14.71   10.54
  -2  23  15   14.52   12.96
  -2  23  14   23.53   19.02
  -2  23  13    4.44   12.06
  -2  23  12   56.89   25.66
  -2  23  11   19.28   16.65
  -2  23  10   26.11   17.14
  -2  23   9   51.88   23.31
  -2  23   8   28.93   19.37
  -2  23   7  142.71   35.32
   2  23  -7  124.88   24.29
  -2  23   6   58.76   22.53
   2  23  -6   48.08   15.36
   2  23  -5   73.46   19.44
  -2  23   5   98.50   29.57
   2  23  -4   35.08   14.56
  -2  23   4   36.18   20.80
  -2  23   3   27.45   16.50
   2  23  -3   16.56    9.48
  -2  23   2   12.92   11.02
   2  23  -2    3.36    7.81
  -2  23   1   71.63   22.29
   2  23  -1   71.33   21.18
  -2  23   0   23.83   13.92
   2  23   0   13.49   11.14
  -2  23  -1   29.52   14.30
   2  23   1   36.97   18.00
  -2  23  -2   10.11    8.65
   2  23   2   10.48   12.50
  -2  23  -3   95.48   23.28
  -2 -23  -3   64.56   15.62
   2  23   3   89.96   27.65
   2  23   4   20.99   14.86
  -2 -23  -4   11.52    1.77
  -2  23  -4   11.79    6.71
  -2 -23  -5   55.47   15.59
  -2  23  -5   42.77   13.27
   2  23   5   58.87   22.49
  -2 -23  -6   51.56   16.11
   2  23   6   45.87   20.29
  -2 -23  -7   64.67   19.43
   2  23   7   48.94   21.82
  -2 -23  -8   34.49   17.56
   2  23   8   10.78   11.96
   2  23   9  -14.17   13.69
   2  23  10   27.75   15.70
   2 -23  10   26.48   16.55
   2 -23  11    1.70    6.47
   2  23  11   -4.17    9.48
   2 -23  12   -0.47    7.44
   2  23  12   -0.06    7.45
   2 -23  13    3.40    1.94
   2  23  13   -2.33    8.87
   2 -23  14   -0.08    1.80
   2  23  14   -4.14   10.89
   2 -23  15   21.22   14.19
  -2  24  14    9.15   11.65
  -2  24  13   11.17   13.18
  -2  24  12   29.28   18.73
  -2  24  11   26.14   19.48
  -2  24  10   48.42   24.01
  -2  24   9   20.81   16.16
  -2  24   8    9.02   13.12
  -2  24   7   82.43   29.56
   2  24  -7   64.55   16.81
  -2  24   6   30.27   17.55
   2  24  -6   25.46   11.24
   2  24  -5   27.90   12.45
  -2  24   5   28.36   17.19
   2  24  -4   58.99   18.31
  -2  24   4   58.75   23.06
  -2  24   3    8.08    9.04
   2  24  -3   -3.77    6.09
  -2  24   2  105.65   28.90
   2  24  -2  104.93   26.23
  -2  24   1   15.07   13.80
   2  24  -1   15.24   10.94
  -2  24   0    3.62    7.93
   2  24   0    7.98    9.46
   2  24   1    3.19    4.97
  -2  24  -1    2.08    4.02
   2  24   2   15.60   12.52
  -2  24  -2   14.10   11.32
  -2  24  -3   11.34    8.03
   2  24   3   13.77   12.34
  -2  24  -4   -2.52    4.34
   2  24   4    1.49    4.90
   2  24   5    9.89    9.45
  -2 -24  -5    0.84    4.38
  -2  24  -5    3.67    3.25
  -2 -24  -6   23.42   11.40
   2  24   6   23.63   15.47
  -2 -24  -7   11.76   10.35
   2  24   7   14.32   12.74
   2  24   8   68.52   25.67
  -2 -24  -8   81.28   23.79
   2  24   9   10.10    9.66
  -2 -24  -9   24.60   14.48
   2 -24  10   68.13   24.71
   2  24  10   63.23   25.52
   2 -24  11   68.20   25.58
   2  24  11   53.52   23.17
   2  24  12   21.66   11.66
   2 -24  12   51.25   21.80
   2 -24  13    4.68    5.40
   2  24  13   -0.30   11.00
   2 -24  14    2.08    1.41
   2 -24  15   -5.90    8.32
  -2  25  13   18.64   15.74
  -2  25  12   49.83   23.91
  -2  25  11   25.84   17.80
  -2  25  10   36.00   21.35
  -2  25   9   15.08   15.82
  -2  25   8   35.44   20.94
  -2  25   7   17.39   14.29
   2  25  -6    9.05    5.51
  -2  25   6   25.11   18.26
  -2  25   5   11.38   11.55
   2  25  -5    2.66    4.61
   2  25  -4   -5.18    6.80
  -2  25   4    5.51   10.05
  -2  25   3    7.06    8.42
   2  25  -3    1.96    3.20
   2  25  -2   -4.14    7.41
  -2  25   2    4.90   10.22
  -2  25   1   49.77   20.19
   2  25  -1   38.72   16.77
   2  25   0   30.24   15.18
  -2  25   0   28.63   13.95
  -2  25  -1   51.78   18.82
   2  25   1   55.83   20.43
  -2  25  -2  411.42   51.98
   2  25   2  402.85   56.45
  -2  25  -3   -0.51    3.63
   2  25   3   19.94   14.42
   2  25   4    7.66    7.70
  -2  25  -4   -1.92    5.97
   2  25   5   69.27   24.65
   2  25   6   14.89   11.36
   2  25   7    6.06    8.89
   2  25   8   16.67   13.86
   2  25   9  -14.17   15.89
   2  25  10   25.85   15.06
   2 -25  10   36.66   20.60
   2 -25  11   19.88   15.47
   2  25  11   30.73   17.62
   2 -25  12   14.41   13.55
   2  25  12    7.09   10.19
   2 -25  13    7.44   10.69
   2 -25  14    6.50    5.89
  -2  26  12   39.67   22.86
  -2  26  11    9.35   12.17
  -2  26  10   42.19   22.61
  -2  26   9    7.83   14.12
  -2  26   8   10.89   12.76
  -2  26   7    6.78   12.23
   2  26  -6   24.38    9.11
  -2  26   6   51.84   25.46
   2  26  -5   -5.75    7.35
  -2  26   5   14.67   13.84
  -2  26   4   21.13   14.87
   2  26  -4    5.84    2.36
   2  26  -3   28.42   13.31
  -2  26   3   53.37   23.01
   2  26  -2   87.08   23.99
  -2  26   2  129.68   32.79
  -2  26   1    9.93   10.33
   2  26  -1  -10.21    8.96
   2  26   0    7.11    4.95
  -2  26   0    8.61   10.84
  -2  26  -1   11.85    9.41
   2  26   1    3.20    2.26
   2  26   2   12.86   13.50
  -2  26  -2    5.21    8.33
  -2  26  -3  114.98   26.76
   2  26   3  116.06   30.96
   2  26   4   -9.05   10.75
  -2  26  -4    4.88    3.97
   2  26   5   -1.16    9.82
   2  26   6    6.18    7.62
   2  26   7   37.41   18.69
   2  26   8   16.01   13.41
   2  26   9   18.45   14.90
   2  26  10   69.94   26.81
   2 -26  10   68.44   25.88
   2  26  11  -10.40   13.46
   2 -26  11    2.87    7.43
   2 -26  12   31.08   17.37
   2 -26  13    3.89    8.05
  -2  27  11   -0.51    7.93
  -2  27  10   -0.87    8.01
  -2  27   9   56.17   26.25
  -2  27   8   24.36   18.82
  -2  27   7   77.04   28.83
  -2  27   6   33.59   20.71
  -2  27   5   66.80   26.54
   2  27  -5   47.93   16.25
   2  27  -4   -4.44    7.38
  -2  27   4   16.66   15.48
   2  27  -3   28.16   12.28
  -2  27   3   42.81   20.59
  -2  27   2   31.39   18.64
   2  27  -2   14.65    8.03
   2  27  -1    8.30    9.38
  -2  27   1   15.24   14.58
   2  27   0   23.40   12.90
  -2  27   0   22.07   14.37
  -2  27  -1   13.80   10.58
   2  27   1   10.20    6.85
  -2  27  -2    1.33    5.11
   2  27   2    0.83    1.19
  -2  27  -3   -0.47    2.43
   2  27   3    3.49    4.89
   2  27   4    0.76    6.62
   2  27   5   48.33   21.72
   2  27   6    0.98    7.78
   2  27   7   -3.59    7.62
   2  27   8    7.25   11.67
   2  27   9   -3.73    8.81
   2 -27  10    0.80    4.91
   2 -27  11   23.55   16.77
   2 -27  12   28.22   18.05
  -2  28  10   10.12   14.59
  -2  28   9  136.39   38.94
  -2  28   8    8.50   13.23
  -2  28   7   15.49   14.50
  -2  28   6   30.50   19.68
   2  28  -5   12.18    6.51
  -2  28   5   29.68   18.20
   2  28  -4  -18.04   14.25
  -2  28   4    5.66   10.62
  -2  28   3   11.04    9.81
   2  28  -3   -4.25    7.85
   2  28  -2   -0.02    3.75
  -2  28   2    9.00    9.68
   2  28  -1   12.65    8.12
  -2  28   1   22.79   14.52
   2  28   0   11.64    8.17
  -2  28   0   22.21   12.25
  -2  28  -1   32.33   16.87
   2  28   1    9.14    5.77
   2  28   2    5.63    6.29
  -2  28  -2    7.53    6.36
   2  28   3   -1.86    8.02
  -2  28  -3   10.61    9.21
   2  28   4   22.42   12.33
   2  28   5   22.94   13.61
   2  28   6   -1.82    8.42
   2  28   7   -9.73   10.47
   2  28   8    2.02    6.71
   2 -28  10    9.53   14.07
  -2  29   9    7.29   10.17
  -2  29   8   12.28   14.58
  -2  29   7   30.77   20.91
  -2  29   6    2.73   10.84
  -2  29   5   27.27   17.58
  -2  29   4   24.66   17.01
   2  29  -4    3.66    6.76
  -2  29   3   -0.71    6.98
   2  29  -3   -7.03   10.83
  -2  29   2   38.00   19.88
   2  29  -2   16.14    8.95
  -2  29   1   58.06   23.26
   2  29  -1   40.13   16.64
   2  29   0   -0.01    5.80
  -2  29   0    6.55    7.89
   2  29   1   18.52   11.30
  -2  29  -1   24.82   15.25
   2  29   2    9.81    7.16
  -2  29  -2   14.20    9.50
   2  29   3   -0.76    7.19
   2  29   4   -6.05   10.15
   2  29   5   -7.81   11.90
   2  29   6    4.32    2.86
   2  29   7   11.29    6.58
  -2  30   7    7.67   11.36
  -2  30   6    1.10    9.12
  -2  30   5    9.14   12.17
  -2  30   4    7.16    7.48
   2  30  -4    1.91    6.00
  -2  30   3    4.02    9.70
   2  30  -3   -5.25   10.42
  -2  30   2   38.07   18.31
   2  30  -2   24.30   10.97
   2  30  -1    9.38    5.21
  -2  30   1   27.69   16.85
   2  30   0   -6.09    8.77
  -2  30   0    1.34    4.47
  -2  30  -1    7.29    8.94
   2  30   1   -3.09    8.43
   2  30   2  -13.87   15.32
  -2  30  -2   -2.25    6.05
   2  30   3   -6.82   11.49
   2  30   4   -3.65    9.01
   2  30   5   -0.72    9.54
  -2  31   6   11.92    8.35
  -2  31   5    7.80   10.25
  -2  31   4    3.51   13.05
  -2  31   3    3.69    9.83
   2  31  -3   -5.98   12.88
  -2  31   2   37.31   19.40
   2  31  -2   20.51   12.67
  -2  31   1   -1.03    6.19
   2  31  -1  -11.14   13.84
  -2  31   0    3.05    4.07
   2  31   0   -8.24   11.39
   2  31   1   -8.43   14.87
  -2  31  -1    5.99    7.43
   2  31   2    3.16    3.69
   2  31   3   -9.07   12.30
   2  31   4   -2.87   10.19
  -2  32   4    2.56    6.62
  -2  32   3   36.68   20.75
   2  32  -2  -12.68   13.08
  -2  32   2    0.82    3.73
   2  32  -1   -9.95   15.92
  -2  32   1   11.93   10.66
  -2  32   0    7.32    8.70
   2  32   0   -9.74   12.94
  -2  32  -1   33.83   15.60
   2  32   1    5.41    7.47
   2  32   2    5.69    8.97
  -2  33   2    0.60    2.69
   2  33  -2  -18.16   16.66
  -2  33   1    9.38   11.74
   2  33  -1    3.14    6.87
  -2  33   0    1.36    4.71
   2  33   0   -0.87   11.86
   2  33   1   -4.09   14.04
   2  34  -1   -8.16    7.22
  -2  34   1   -3.88    2.31
   3   0 -22   13.59   17.00
   3   0 -21   35.96   19.70
   3   0 -20    6.61    8.38
   3   0 -19   21.73   14.30
   3   0 -18   -5.62    8.47
   3   0 -17   57.94   18.60
   3   0 -16   -4.75    6.56
  -3   0  16   -1.17    3.77
   3   0 -15  153.14   29.43
  -3   0  15  151.98   22.22
  -3   0  14   -1.96    3.70
   3   0 -14  -16.38   12.07
  -3   0  13    3.56    4.01
   3   0 -13   -6.65   12.07
   3   0 -12   -3.93    9.26
  -3   0  12   -3.01    3.60
   3   0 -12    6.71    6.38
  -3   0  11    2.54    1.21
   3   0 -11    0.26    1.09
  -3   0  10   -0.78    1.77
   3   0 -10   -1.95    5.24
  -3   0   9  848.54   44.56
   3   0  -9  902.03   45.75
  -3   0   8    0.20    1.76
   3   0  -8    3.23    3.49
  -3   0   7  530.31   33.37
   3   0  -7  536.72   32.82
  -3   0   6   -2.89    3.14
  -3   0   6    0.20    1.56
   3   0  -6   -4.02    3.69
  -3   0   5  178.29   18.82
   3   0  -5  176.91   17.28
   3   0  -4   -0.68    0.60
  -3   0   4   -1.31    1.55
   3   0  -3 1163.56   38.72
  -3   0   3 1211.67   31.10
   3   0  -3 1197.60   30.99
   3   0  -2    0.67    1.07
   3   0  -2    0.36    1.25
   3   0  -1 1752.25   46.58
   3   0  -1 1750.03   31.36
  -3   0   0   -1.14    3.50
   3   0   0   -1.16    1.95
  -3   0   0    0.45    2.75
  -3   0  -1 2755.39   70.28
   3   0   1 2860.34   69.45
  -3   0  -1 2879.78   62.79
  -3   0  -2   22.83    9.41
   3   0   2   -0.33    1.16
  -3   0  -3   80.64    8.30
   3   0   3   80.88   13.30
  -3   0  -4    1.81    2.04
   3   0   4    0.82    2.34
   3   0   5 1335.53   59.07
  -3   0  -5 1329.03   45.44
   3   0   6   -0.97    2.38
  -3   0  -6    2.79    3.14
   3   0   7  272.13   29.01
  -3   0  -7  264.74   24.43
   3   0   8   -4.36    5.08
  -3   0  -8    1.16    3.64
  -3   0  -9   15.08    6.72
   3   0   9   10.71    6.05
   3   0  10   -0.60    1.82
  -3   0 -10    4.00    3.43
  -3   0 -11   18.62    9.70
   3   0  11   10.02    6.34
   3   0  12   -3.39    3.55
  -3   0 -12    5.85    7.34
   3   0  13   98.52   21.64
  -3   0 -13  103.08   22.20
   3   0  13  114.83   21.42
   3   0  14    3.30    6.37
  -3   0 -14    8.47   10.94
   3   0  14    2.32    4.32
   3   0  15    3.87    6.89
  -3   0 -15   11.13   11.55
  -3   0 -16   15.60   12.20
   3   1 -22    8.07   13.44
   3  -1 -22   13.90   12.58
   3  -1 -21   39.67   19.38
   3   1 -21   49.51   22.42
   3   1 -20   37.21   19.18
   3  -1 -20   33.39   18.24
   3  -1 -19   98.47   27.51
   3   1 -19  110.44   29.37
   3  -1 -18    3.17    4.35
   3   1 -18   16.97   12.99
   3   1 -17   64.97   21.95
   3  -1 -17   50.70   16.86
  -3   1  16   20.38    7.95
   3  -1 -16   14.58    8.50
   3   1 -16   35.61   15.85
  -3   1  15    4.80    3.92
  -3  -1  15   -0.75    3.61
   3  -1 -15   -6.84    9.62
   3   1 -15    9.09    8.37
  -3  -1  14    3.47    3.11
   3  -1 -14   -5.09   11.39
   3   1 -14   -0.09    6.30
  -3   1  14    4.97    2.89
  -3   1  13  236.16   27.65
   3  -1 -13  240.35   34.50
  -3  -1  13  232.99   25.44
   3   1 -13  236.75   33.02
   3   1 -13  248.27   25.95
  -3  -1  12   85.86   14.92
   3   1 -12   88.52   15.24
   3  -1 -12   68.05   15.01
  -3   1  12   80.49   15.47
   3   1 -12   71.57   17.01
  -3  -1  11    5.19    2.56
  -3   1  11   13.96    7.10
   3   1 -11    7.32    1.13
  -3  -1  10    8.61    4.24
  -3   1  10   10.17    5.57
   3   1 -10    2.79    3.60
   3  -1 -10   13.33    5.76
   3   1  -9    6.50    4.88
  -3  -1   9    1.39    0.93
  -3   1   9   -0.75    2.89
   3  -1  -9   -5.09    5.59
   3   1  -8   10.63    4.46
  -3   1   8    9.33    4.62
   3  -1  -8   13.01    6.78
   3  -1  -7  173.69   19.30
   3   1  -7  173.36   18.01
  -3   1   7  164.77   18.78
  -3   1   6   85.22   13.61
   3  -1  -6   85.83   12.92
   3   1  -6   84.95   12.39
  -3  -1   6   91.99   13.95
  -3   1   5  702.35   36.91
   3  -1  -5  692.99   36.74
   3   1  -5  695.82   33.71
  -3  -1   5  694.57   37.32
  -3  -1   4 2612.30   40.75
   3  -1  -4 2605.93   40.36
  -3  -1   4 2587.95   65.79
  -3  -1   3 2037.55   41.36
   3   1  -3 1953.62   40.93
   3   1  -3 1968.84   50.93
  -3  -1   3 2029.65   50.99
  -3   1   3 1993.14   41.40
   3  -1  -3 2020.75   40.99
   3   1  -2  841.19   27.75
   3   1  -2  829.89   29.74
  -3  -1   2  833.11   27.69
   3  -1  -2  840.74   29.59
   3   1  -1 5804.46   56.86
   3   1  -1 5912.70   87.05
  -3  -1   1 5815.85   57.73
   3  -1  -1 5868.49   86.18
  -3   1   0  702.22   32.61
   3   1   0  683.99   31.95
  -3   1   0  641.68   32.22
  -3  -1   0  722.43   36.04
   3   1   0  690.13   29.36
   3  -1   0  676.64   31.86
  -3  -1   0  675.22   28.54
   3   1   1  815.58   30.53
   3  -1   1  848.52   38.37
   3   1   1  858.91   38.67
  -3  -1  -1  850.36   40.36
  -3  -1  -1  897.30   33.10
  -3   1  -1  868.73   35.59
   3   1   2  953.92   43.12
  -3  -1  -2  919.35   33.41
   3  -1   2  960.12   43.13
   3  -1   2  939.37   24.10
   3  -1   3  984.99   30.18
   3   1   3  935.71   45.59
   3  -1   3  957.36   45.54
  -3  -1  -3  937.09   28.21
   3   1   4  286.32   25.89
   3  -1   4  272.59   25.61
  -3  -1  -4  271.39   18.18
   3  -1   4  294.97   19.29
   3  -1   5  577.63   30.95
   3   1   5  579.69   39.06
   3  -1   5  577.25   39.41
  -3   1  -5  551.35   29.39
  -3  -1  -5  566.77   29.83
   3   1   6   94.60   16.20
   3  -1   6   93.38   16.61
   3  -1   6   94.20   13.76
  -3   1  -6   97.30   14.45
  -3  -1  -6   87.22   12.47
   3  -1   7    1.26    1.24
  -3  -1  -7   -1.90    3.31
   3  -1   7    0.38    0.46
   3   1   7   -0.52    1.60
   3   1   8  180.13   24.98
   3  -1   8  182.28   24.83
  -3  -1  -8  177.38   21.52
  -3   1  -8  192.02   22.69
   3   1   9   25.16    9.90
  -3  -1  -9   23.43    8.46
   3  -1   9   20.75    8.32
  -3   1  -9   33.68   11.47
   3   1  10   10.58    7.46
  -3  -1 -10   11.50    4.91
   3  -1  10    5.74    3.11
  -3   1 -10   15.74    9.42
  -3   1 -11  239.81   30.07
   3   1  11  241.71   32.04
  -3  -1 -11  224.25   28.89
   3  -1  11  217.00   30.31
   3   1  12    7.73    6.80
   3  -1  12    0.82    3.39
  -3  -1 -12    7.53    7.47
   3   1  13   38.68   13.96
   3  -1  13   43.22   14.33
  -3   1 -13   49.38   16.89
   3   1  13   49.05   15.60
  -3  -1 -13   46.73   14.72
   3  -1  13   48.34   14.17
   3   1  14   25.61   12.38
  -3   1 -14   33.67   14.87
  -3  -1 -14   30.74   13.05
   3   1  14   24.68   10.05
   3  -1  14   22.08   10.23
   3  -1  15   60.22   18.11
  -3  -1 -15   78.11   20.66
   3  -1  16    4.56    3.36
  -3  -1 -16    7.15    9.13
  -3  -1 -17   80.14   23.17
  -3  -1 -18   14.97   12.96
   3  -2 -22   13.59   13.36
   3   2 -22   21.10   18.41
   3  -2 -21   35.42   16.83
   3   2 -21   53.93   22.69
   3  -2 -20   13.61   11.70
   3   2 -20   17.40   14.93
   3   2 -19   26.44   15.51
   3  -2 -19    7.95    5.44
   3   2 -18   74.56   24.35
   3  -2 -18   52.21   16.52
  -3   2  17   29.59   11.39
   3   2 -17   31.13   14.87
   3  -2 -17   28.48   12.97
   3   2 -16   60.62   20.28
  -3   2  16   38.67   12.58
   3  -2 -16   38.35   13.21
  -3   2  15    4.68    4.80
   3   2 -15    5.84    7.61
  -3   2  14  106.64   20.81
   3  -2 -14   88.42   19.22
   3   2 -14   93.78   21.84
   3   2 -13   29.23   10.12
   3  -2 -13    1.31    7.52
   3   2 -13   11.71    6.20
  -3   2  13   19.94    8.02
   3   2 -12   -4.96    7.76
   3   2 -12    9.18    5.49
   3  -2 -12    1.78    1.32
   3  -2 -12   -2.32    2.67
  -3   2  12    0.64    3.18
  -3   2  11    7.94    2.92
  -3  -2  11   14.35    3.24
   3   2 -11   10.35    3.69
   3  -2 -11   13.07    2.96
  -3  -2  10  185.16    9.99
  -3   2  10  207.79   24.43
   3   2 -10  207.41   20.53
   3   2  -9  486.48   30.46
  -3   2   9  493.83   36.74
   3  -2  -9  499.33   37.75
   3  -2  -8   29.76    9.89
   3   2  -8   20.18    5.29
  -3   2   8   23.00    8.48
   3   2  -7  454.56   28.09
  -3   2   7  458.02   32.95
   3  -2  -7  457.78   33.10
   3   2  -6  125.90   14.08
  -3   2   6  122.02   16.30
   3  -2  -6  131.10   16.56
  -3  -2   6  122.85   17.59
  -3  -2   5  619.90   36.25
  -3   2   5  628.95   36.18
   3  -2  -5  604.95   19.30
  -3   2   4  447.16   30.14
  -3  -2   4  471.20   28.42
   3  -2  -4  480.65   19.31
  -3  -2   4  473.74   19.42
  -3   2   3  679.13   36.36
  -3  -2   3  704.52   31.10
   3   2  -3  653.24   29.92
   3  -2  -3  693.24   25.87
  -3  -2   3  689.34   26.05
  -3  -2   2  135.68   11.72
   3  -2  -2  137.16   12.45
   3   2  -1 7805.44  102.51
  -3  -2   1 7770.66   74.27
   3  -2  -1 7985.94  104.99
  -3   2   1 7908.24  114.57
  -3  -2   0 3060.93   76.62
   3   2   0 3022.83   68.86
   3  -2   0 2989.60   64.82
  -3   2   0 2975.91   66.22
   3  -2   0 2990.16   69.35
   3   2   0 2979.93   58.15
  -3   2   0 3124.71   71.63
   3   2   1  930.83   40.96
   3  -2   1  948.75   41.49
  -3  -2  -1  925.13   43.72
  -3   2  -1  959.07   38.86
  -3  -2  -1  943.97   32.37
  -3   2  -1  916.34   38.31
   3   2   1  900.43   30.60
   3   2   2  162.28   18.31
   3  -2   2  156.59   17.75
  -3  -2  -2  159.43   13.48
  -3  -2  -3   37.02    5.35
   3   2   3   35.03    8.99
   3  -2   3   43.63    6.95
   3  -2   3   38.79    9.42
   3  -2   4    8.96    4.46
   3   2   4   11.04    5.04
   3  -2   4    7.84    3.00
  -3  -2  -4    9.55    3.45
   3   2   5  236.95   25.40
  -3  -2  -5  233.84   19.04
   3  -2   5  245.21   20.77
   3  -2   5  241.61   25.35
   3   2   6  122.23   18.94
   3  -2   6  124.43   15.87
  -3  -2  -6  124.89   15.62
   3  -2   6  122.40   18.94
   3   2   7    3.38    3.66
   3  -2   7    3.36    2.79
   3  -2   7    5.20    4.35
  -3  -2  -7   -3.67    5.82
   3   2   8    1.28    5.11
  -3  -2  -8   -2.36    6.03
   3  -2   8   -0.05    2.27
   3   2   9    6.75    5.89
  -3  -2  -9    3.17    3.27
   3  -2   9    4.71    2.74
  -3  -2 -10    1.53    4.93
   3   2  10    6.05    6.71
   3  -2  10    4.71    2.72
  -3  -2 -11   10.30    4.15
   3  -2  11    7.71    4.35
   3   2  12   10.02    8.33
   3  -2  12    4.42    3.11
  -3  -2 -12    1.02    4.72
   3  -2  13  293.47   37.82
  -3  -2 -13  300.77   37.16
   3  -2  13  327.60   30.58
   3   2  13  307.14   35.93
  -3  -2 -14    4.38    5.90
   3   2  14   12.68    9.68
   3  -2  14    1.50    1.86
  -3  -2 -15    3.64    6.45
   3  -2  15   -1.10    0.97
   3  -2  16    2.04    2.68
  -3  -2 -16   11.26    8.93
  -3  -2 -17   10.23   11.71
  -3  -2 -18   60.64   21.19
   3  -3 -22   15.38   13.26
   3   3 -21   30.68   18.97
   3  -3 -21    2.44    5.90
   3  -3 -20   45.24   19.24
   3   3 -20   54.33   24.12
   3   3 -19   11.43   11.41
   3  -3 -19  -13.25   12.32
   3  -3 -18   26.74   12.99
   3   3 -18   55.91   23.51
  -3   3  17   27.35   11.20
   3  -3 -17    8.82    7.55
   3   3 -17   32.44   16.52
   3  -3 -16   10.93    3.83
   3   3 -16   31.77   16.50
  -3   3  16   18.89    9.56
   3  -3 -15   -4.40   11.22
  -3   3  15    3.23    4.21
   3   3 -15   16.56   12.81
  -3   3  14   18.28    6.33
  -3  -3  14   17.93    4.82
   3  -3 -14   20.45    4.69
   3  -3 -14   25.89   12.31
   3   3 -14   35.68   15.64
  -3  -3  13   42.35    6.81
  -3   3  13   34.83    9.45
   3   3 -13   51.01   16.68
   3  -3 -13   35.92    5.91
   3  -3 -13   38.73   14.24
   3   3 -13   56.93   12.37
  -3   3  12  410.63   37.94
  -3  -3  12  396.36   20.02
   3  -3 -12  402.73   19.28
   3  -3 -12  406.32   44.38
   3   3 -12  432.63   29.12
   3   3 -12  424.53   44.55
   3   3 -11    4.02    2.94
  -3   3  11    7.56    3.64
   3  -3 -11    9.56    2.77
  -3  -3  11    9.03    2.82
  -3   3  10  194.45   24.82
  -3  -3  10  185.44   12.15
   3  -3 -10  185.45   11.64
   3   3 -10  213.69   19.92
  -3   3   9  216.19   25.31
   3  -3  -9  214.84   12.01
  -3  -3   9  211.67   12.35
   3   3  -9  229.84   20.21
   3   3  -8  451.32   27.53
  -3   3   8  461.75   36.06
  -3  -3   8  417.98   16.94
   3  -3  -8  475.03   36.23
   3  -3  -7  317.32   29.61
   3   3  -7  306.17   22.34
  -3   3   7  315.33   28.75
  -3   3   6  148.74   19.08
   3  -3  -6  145.34   18.71
  -3  -3   6  148.55   18.41
  -3   3   5  714.29   40.08
  -3  -3   5  770.70   41.04
  -3  -3   4  154.78   16.58
  -3   3   4  162.88   18.57
  -3  -3   3  204.66   17.21
  -3   3   3  202.03   20.03
   3  -3  -3  203.11   15.18
  -3  -3   2    5.76    4.43
   3  -3  -2    1.05    2.32
  -3   3   2   -2.03    4.31
   3  -3  -1    2.48    2.49
  -3   3   1   10.14    2.03
   3  -3  -1    9.38    3.65
   3  -3   0  702.73   34.62
  -3   3   0  656.34   30.04
   3   3   0  670.11   26.03
  -3   3   0  723.66   35.85
  -3  -3   0  696.96   37.95
  -3   3  -1   14.22    7.30
   3  -3   1   -1.15    1.89
   3   3   1   13.87    5.47
   3   3   1    4.00    4.47
  -3   3  -1   15.31    8.26
  -3  -3  -1   18.44   10.27
   3   3   2   82.56   13.36
   3  -3   2   77.32   12.55
  -3  -3  -2   76.09    8.14
   3   3   3   35.77    9.04
  -3  -3  -3   52.88    8.48
   3  -3   3   37.24    9.29
   3   3   4  200.07   22.15
   3  -3   4  190.43   17.34
   3  -3   4  181.72   21.40
   3   3   5   59.48   13.08
   3  -3   5   45.84    9.20
  -3  -3  -5   45.37    8.50
   3  -3   5   53.63   11.99
   3  -3   6  367.97   33.37
  -3  -3  -6  367.56   27.13
   3  -3   6  375.84   28.81
   3   3   6  377.27   33.69
  -3  -3  -7    1.74    0.78
   3   3   7    3.52    4.37
   3  -3   7   -0.27    0.97
   3  -3   7    0.24    3.21
   3   3   8  288.41   31.77
  -3  -3  -8  304.10   28.76
   3  -3   8  300.57   31.94
   3   3   9    6.15    6.52
   3  -3   9    0.07    3.57
  -3  -3  -9   -7.69    7.86
   3   3  10  248.90   31.52
  -3  -3 -10  230.46   28.20
   3  -3  10  238.87   30.71
  -3  -3 -11   12.63    2.89
   3  -3  11   12.91    6.85
   3  -3  12   97.01   20.59
  -3  -3 -12   91.79   19.14
   3  -3  13   39.10   13.20
  -3  -3 -13   41.94   13.37
   3   3  13   56.29   17.96
   3  -3  14   28.14   11.81
  -3  -3 -14   25.33   11.22
   3   3  14   30.39   12.93
  -3  -3 -15   23.45   12.95
   3  -3  15   14.15   10.08
  -3  -3 -16    5.82    9.07
   3  -3  16    0.46    2.03
  -3  -3 -17    7.80    8.41
  -3  -3 -18   18.00   14.30
   3  -4 -22   -0.02    5.16
   3  -4 -21   15.73   11.68
   3  -4 -20   -6.18    7.24
   3  -4 -19   11.25    3.75
   3   4 -19   56.90   23.95
   3   4 -18  118.75   30.66
   3  -4 -18   91.08   24.70
  -3   4  17    2.56    2.59
   3   4 -17   14.14   12.53
   3  -4 -17   -9.99   10.93
   3  -4 -16    6.85    6.85
  -3   4  16   24.58    9.57
  -3   4  15   30.72   10.79
   3   4 -15   47.96   18.33
   3  -4 -15   41.82   16.65
  -3  -4  14   20.25    5.27
   3  -4 -14   20.04    4.86
   3   4 -14   34.60   16.19
  -3   4  14   13.42    3.63
   3  -4 -14   22.33    9.42
   3  -4 -13   95.56   10.82
  -3   4  13   88.52   18.29
  -3  -4  13   94.51   11.05
   3   4 -13  104.87   23.66
   3   4 -13  113.74   15.01
   3  -4 -13  100.99   22.90
   3  -4 -12    7.10    2.66
   3  -4 -12    3.95    3.32
   3   4 -12    7.75    3.94
  -3  -4  12    6.30    2.43
  -3   4  12    2.42    1.24
   3  -4 -11   97.24   10.07
  -3   4  11   85.72   17.18
   3   4 -11  100.62   12.92
  -3  -4  11   98.19   10.50
   3   4 -10   51.57    9.62
   3  -4 -10   48.71    6.98
  -3   4  10   41.11   11.09
  -3  -4  10   48.23    7.04
   3  -4  -9   12.54    3.84
   3   4  -9   11.36    3.58
  -3  -4   9   13.83    3.79
  -3   4   9    7.94    2.66
   3   4  -8   80.27   11.37
  -3   4   8   72.01   14.96
   3   4  -7   75.38   10.73
  -3   4   7   70.22   14.23
   3  -4  -7   66.03   13.20
  -3  -4   6   -2.03    4.16
   3  -4  -6    4.66    4.59
  -3   4   6   -1.37    3.80
  -3  -4   5    5.28    3.08
  -3   4   5    1.02    3.04
  -3   4   4  449.88   33.15
  -3  -4   4  456.91   30.09
  -3   4   3  159.54   18.10
  -3  -4   3  157.75   16.19
  -3   4   2  329.37   25.47
  -3   4   2  330.18   26.29
   3  -4  -2  344.42   22.75
   3  -4  -1  387.53   21.90
  -3   4   1  385.23   27.60
  -3   4   1  415.69   27.70
   3  -4  -1  403.98   25.80
  -3   4   0  109.32   10.49
  -3   4   0  115.33   15.11
   3  -4   0  113.62   14.49
  -3  -4   0  110.94   15.24
   3  -4   1   20.07    5.73
  -3  -4  -1   32.98   11.45
  -3   4  -1   32.98    8.05
   3  -4   1   21.97    6.36
   3   4   1   23.30    4.28
   3  -4   2  842.92   43.76
  -3  -4  -2  830.04   25.58
   3  -4   3    6.58    2.61
  -3  -4  -3   14.06    4.15
   3  -4   4   36.97    9.24
   3  -4   4   41.47    8.85
   3  -4   5   26.26    7.44
   3  -4   5   27.17    8.67
   3  -4   6  178.24   20.03
   3  -4   6  167.71   22.70
  -3  -4  -6  161.53   18.50
  -3  -4  -7  112.73   16.56
   3  -4   7  111.77   19.40
   3  -4   8  172.09   24.57
  -3  -4  -8  162.41   21.67
  -3  -4  -9   38.67   11.22
   3  -4   9   40.95   12.35
  -3  -4 -10    0.90    1.54
   3  -4  10    2.90    3.15
  -3  -4 -11    2.62    7.94
   3  -4  11   10.26    6.11
  -3  -4 -12  158.40   25.81
   3  -4  12  157.01   27.08
  -3  -4 -13   -9.06    9.73
   3  -4  13    2.37    3.30
   3  -4  14   34.83   13.13
  -3  -4 -14   31.76   11.32
   3   4  14   43.71   15.66
   3  -4  15    8.00    7.14
   3   4  15   14.11    8.88
  -3  -4 -15    8.77    5.18
   3  -4  16   96.06   23.62
  -3  -4 -16   93.64   24.40
  -3  -4 -17    7.10    8.18
  -3  -4 -18   90.22   25.42
   3  -5 -22   16.57   12.17
   3  -5 -21    9.85    8.26
   3  -5 -20   -8.06   13.99
   3  -5 -19   72.01   22.49
  -3   5  18    1.63    2.93
   3  -5 -18   -8.44   14.50
  -3   5  17   84.55   20.30
   3  -5 -17   69.05   20.14
  -3   5  16    8.67    1.26
   3  -5 -16    5.89    3.23
   3  -5 -15  178.50   34.29
   3   5 -15  197.16   34.95
  -3   5  15  161.51   27.29
  -3   5  14   32.62   11.45
   3  -5 -14   22.95   11.33
  -3  -5  14   30.13    6.93
   3   5 -14   56.69   20.97
   3   5 -13   31.73    7.90
  -3   5  13   13.91    5.97
   3  -5 -13   18.57    5.29
  -3  -5  13   20.35    5.63
   3   5 -13   38.44   15.41
   3  -5 -13   25.41   11.30
  -3  -5  12  169.31   15.81
  -3   5  12  168.39   25.55
   3  -5 -12  173.55   15.34
   3   5 -12  172.63   15.97
   3  -5 -12  161.83   27.91
   3   5 -12  180.84   29.71
  -3  -5  11    0.11    1.63
   3   5 -11   -4.15    3.99
   3  -5 -11   -0.29    0.89
  -3   5  11   -3.36    4.99
  -3  -5  10   19.87    5.43
  -3   5  10   13.10    6.59
   3  -5 -10   23.02    5.74
   3   5 -10   21.36    5.94
   3   5  -9    0.17    2.73
  -3   5   9    1.16    2.24
  -3   5   8   74.12   15.57
   3   5  -8   73.61   10.30
  -3   5   7   -1.37    4.24
  -3   5   6   25.59    7.94
  -3   5   5  263.57   26.53
  -3  -5   5  264.48   25.69
  -3   5   4   -0.54    3.61
  -3  -5   4    9.66    5.60
  -3   5   3   37.97   10.41
  -3   5   2  548.55   33.90
  -3   5   2  567.58   35.68
  -3   5   1  893.39   43.46
   3  -5  -1  895.86   31.17
  -3   5   1  860.11   42.98
  -3   5   0   31.87    4.54
   3  -5   0   47.18    9.40
  -3   5   0   36.73    7.94
   3  -5   0   40.30    9.31
  -3   5   0   48.84   11.11
  -3  -5   0   38.46    8.22
   3  -5   1  626.53   37.39
   3  -5   1  650.32   34.81
   3   5   1  598.41   20.20
  -3   5  -1  603.67   27.13
  -3   5  -1  613.48   35.73
  -3  -5  -1  588.65   37.04
   3  -5   2   69.26   10.99
   3  -5   2   67.82   12.82
   3  -5   3   37.01    7.77
  -3  -5  -3   25.99    3.94
   3  -5   3   33.84    9.22
   3  -5   4   21.03    7.53
   3  -5   5   35.85    9.29
   3  -5   5   22.24    7.59
   3  -5   6    6.39    3.96
   3  -5   6    5.56    4.41
   3  -5   7   14.51    7.00
  -3  -5  -7    7.69    3.91
  -3  -5  -8  396.09   34.21
   3  -5   8  411.09   39.01
  -3  -5  -9    3.32    0.93
   3  -5   9   -1.56    3.05
  -3  -5 -10   16.18    7.67
   3  -5  10   11.86    6.49
  -3  -5 -11   61.54   15.55
   3  -5  11   65.33   17.19
   3  -5  12   10.13    6.35
  -3  -5 -12   -3.88    7.39
   3  -5  12   16.05    6.66
   3  -5  13   83.14   19.99
  -3  -5 -13   71.59   17.05
   3   5  13   94.41   22.98
   3   5  14    9.42   10.95
  -3  -5 -14    0.98    5.95
   3  -5  14    4.15    0.76
   3  -5  15  102.40   23.59
   3   5  15  120.22   25.99
  -3  -5 -15  108.84   23.94
  -3  -5 -16   16.48    9.41
   3  -5  16   12.80   10.87
  -3  -5 -17    6.40    6.80
  -3  -5 -18   -5.47    7.55
   3  -6 -22    5.54    4.03
   3  -6 -21  -11.02   12.78
   3  -6 -20  -12.69   14.04
   3  -6 -19   48.08   17.16
   3  -6 -18   25.64   10.47
  -3   6  18   40.31   14.57
  -3   6  17   -2.40    4.13
   3  -6 -17    1.48    7.80
   3  -6 -16   20.98   11.62
  -3   6  16   17.76    5.12
   3  -6 -15    2.32    1.68
  -3   6  15   -1.52    5.91
  -3   6  14   38.57   11.97
  -3  -6  14   39.28    8.48
   3  -6 -14   38.71   13.81
  -3   6  13   -2.53    4.74
  -3  -6  13    0.05    1.52
   3  -6 -13   -4.65   10.32
   3  -6 -13   -0.51    1.55
   3  -6 -12   44.20    8.48
  -3   6  12   37.94   11.91
   3   6 -12   36.39    6.49
  -3  -6  12   39.22    8.03
   3  -6 -12   30.19   11.80
  -3   6  11   63.92   16.12
  -3  -6  11   58.95    9.74
   3  -6 -11   49.00   14.61
   3   6 -11   57.00    9.08
   3  -6 -11   61.45    9.91
  -3  -6  10   48.67    9.11
   3   6 -10   44.03    7.46
  -3   6  10   39.68   12.08
   3   6  -9  500.48   26.44
  -3   6   9  494.16   42.63
  -3   6   8   70.64   15.26
  -3   6   7   -1.31    3.64
  -3   6   6  198.26   24.18
  -3   6   5    5.10    1.57
  -3  -6   5    8.73    6.92
  -3   6   4  112.80   17.52
   3  -6  -4  113.48   15.49
  -3   6   3  852.89   47.20
  -3   6   2  325.35   28.16
  -3   6   2  347.83   27.70
   3  -6  -1   54.64    6.83
  -3   6   1   55.48   11.13
  -3   6   1   51.61   10.14
  -3  -6   0  208.16   22.16
   3  -6   0  217.89   21.28
  -3   6   0  216.90   21.60
  -3   6   0  212.13   21.74
  -3   6  -1   -1.09    2.51
  -3   6  -1    7.42    4.48
   3   6   1   -1.52    2.06
   3  -6   1   -2.33    4.30
   3  -6   1    4.71    4.22
  -3  -6  -1   11.22    7.89
   3  -6   2  104.05   13.93
   3  -6   2   96.04   15.54
   3  -6   3   88.64   12.39
   3  -6   3   84.06   15.44
   3  -6   4   -1.60    2.63
  -3  -6  -4    6.35    2.83
   3  -6   4   -1.14    2.99
   3  -6   5    7.69    3.09
   3  -6   5    7.46    2.88
   3  -6   6    7.05    4.18
   3  -6   6   14.17    4.45
   3  -6   7    1.84    1.07
   3  -6   7    3.38    2.64
  -3  -6  -8   50.28   11.98
   3  -6   8   52.58   14.51
   3  -6   9   49.94   14.43
  -3  -6  -9   44.23   12.05
   3  -6  10    1.08    1.38
  -3  -6 -10   -1.85    4.15
   3  -6  11    7.92    5.21
  -3  -6 -11    8.03    4.97
  -3  -6 -12   20.09    9.90
   3  -6  12   18.30    9.39
   3   6  13   23.65   13.35
  -3  -6 -13    8.84    3.10
   3  -6  13   25.33   11.95
   3   6  14   41.10   16.98
   3  -6  14   36.11   13.75
  -3  -6 -14   24.49   10.25
  -3  -6 -15    3.39    6.02
   3  -6  15   13.16    9.10
   3   6  15   14.09    9.54
   3  -6  16   50.24   17.04
  -3  -6 -16   42.29   14.10
  -3  -6 -17    7.80    8.78
  -3  -6 -18   17.93   10.46
   3  -7 -22   -9.58   11.40
   3  -7 -21   11.56    2.88
   3  -7 -20   -4.41    9.82
   3  -7 -19    2.55   10.90
  -3   7  18    0.94    4.70
   3  -7 -18    5.84    1.88
  -3   7  17   66.30   19.48
   3  -7 -17   53.30   20.67
   3  -7 -16    0.62    6.48
  -3   7  16    1.51    4.28
   3  -7 -15   59.11   18.31
  -3   7  15   53.01   16.77
  -3   7  14   -1.86    3.19
   3  -7 -14   -2.62    6.91
  -3  -7  14   -0.69    1.96
  -3  -7  13   71.60   12.01
   3  -7 -13   76.93   12.19
   3  -7 -13   65.82   17.78
  -3   7  13   84.57   20.36
   3  -7 -12   61.55   16.05
  -3   7  12   73.45   18.45
   3   7 -12   70.33    8.37
   3  -7 -12   74.78   12.29
  -3  -7  12   73.89   12.18
  -3  -7  11   67.20   11.47
  -3   7  11   61.30   15.80
   3   7 -11   68.63    9.16
  -3   7  10   13.98    7.96
   3   7 -10    7.10    1.76
   3   7  -9   35.36    6.94
  -3   7   9   41.45   12.96
  -3   7   8   11.00    6.00
  -3   7   7  251.84   29.50
  -3   7   6  327.75   33.17
  -3   7   5   89.38   16.08
   3  -7  -5   74.54   13.18
  -3   7   4   16.52    6.51
   3  -7  -4    5.60    2.25
  -3   7   3   40.96    9.49
   3  -7  -3   44.82    9.44
  -3   7   2  322.68   27.87
  -3   7   2  321.59   28.97
   3   7  -2  337.61   28.91
   3   7  -1   42.21    9.99
  -3   7   1   37.09    9.87
   3  -7  -1   31.15    4.62
  -3   7   1   38.50    9.05
  -3   7   0   -0.97    1.78
  -3   7   0    8.17    6.37
  -3  -7   0   -3.18    5.15
   3  -7   0   -1.53    2.42
  -3   7  -1  309.76   28.02
  -3   7  -1  317.20   26.10
   3  -7   1  305.47   25.48
  -3   7  -1  311.64   17.51
  -3  -7  -1  295.62   28.51
   3  -7   2    5.35    2.46
   3  -7   2   10.90    6.11
   3  -7   3  403.43   27.24
   3  -7   3  404.93   34.13
   3  -7   4   69.41   11.29
   3  -7   4   74.69   15.67
   3  -7   5   48.41    9.37
   3  -7   5   46.68   12.10
   3  -7   6    4.91    3.16
   3  -7   6    5.47    4.18
   3  -7   7   90.01   11.83
   3  -7   7   84.02   17.24
   3  -7   8  148.81   23.76
   3  -7   8  138.55   14.44
   3  -7   9    9.40    6.71
   3  -7   9    8.04    3.38
  -3  -7  -9    5.54    2.76
   3  -7  10   77.24    9.87
   3  -7  10   80.18   19.10
  -3  -7 -10   79.05   17.28
   3  -7  11    3.23    5.92
  -3  -7 -11    3.13    3.43
  -3  -7 -12   67.55   18.70
   3  -7  12   66.39   18.50
   3   7  12   86.78   24.13
   3  -7  13    3.30    4.64
  -3  -7 -13    4.68    2.49
  -3  -7 -14   17.28    9.60
   3  -7  14   16.88    9.91
   3   7  14   20.67   12.89
   3  -7  15   78.69   21.14
  -3  -7 -15   63.15   18.52
   3   7  15   77.58   22.48
   3   7  16    4.79    3.36
   3  -7  16    3.06    4.33
  -3  -7 -17   71.64   21.77
  -3  -7 -18   -9.45   11.03
   3  -8 -22   -9.68   13.12
   3  -8 -21   12.07    9.55
   3  -8 -20   -3.62    8.87
   3  -8 -19   30.39   17.03
   3  -8 -18   19.06   11.03
  -3   8  18   21.12   11.20
   3  -8 -17   51.81   20.53
  -3   8  17   45.20   16.13
  -3   8  16   55.72   17.17
   3  -8 -16   60.83   20.75
  -3   8  15   69.90   19.39
   3  -8 -15   66.06   19.77
  -3  -8  15   68.34   13.15
  -3  -8  14   94.89   15.15
  -3   8  14   98.76   22.57
   3  -8 -14   97.36   23.26
   3  -8 -13   50.16   10.86
  -3   8  13   56.56   17.36
   3  -8 -13   50.87   16.18
  -3  -8  13   53.53   10.83
  -3   8  12  111.83   23.73
   3   8 -12   99.21    8.81
  -3  -8  12  122.92   16.83
   3  -8 -12  118.69   16.41
   3   8 -11    3.53    2.29
  -3   8  11    2.65    5.89
  -3  -8  11    3.19    3.89
   3   8 -10   11.67    4.18
  -3   8  10    9.06    6.56
  -3   8   9  398.39   40.99
  -3   8   8  690.98   52.17
  -3   8   7  594.16   47.25
   3  -8  -6   -6.61    7.20
  -3   8   6    0.87    2.57
  -3   8   5   13.20    7.04
   3  -8  -5    5.20    1.22
  -3   8   4   86.87   16.82
   3  -8  -4   79.72   13.30
  -3   8   3   55.94   12.90
  -3   8   3   46.17   10.29
   3  -8  -3   56.83   11.28
  -3   8   2  194.50   23.67
   3   8  -2  195.54   22.51
  -3   8   2  195.66   22.27
   3  -8  -2  201.42   21.83
  -3   8   1   65.01   12.62
   3   8  -1   82.78   14.25
   3  -8  -1   71.06    7.00
  -3   8   1   70.37   13.23
   3  -8  -1   80.13   14.84
   3  -8   0 1087.99   50.66
  -3  -8   0 1013.50   51.98
  -3   8   0 1022.86   51.00
   3  -8   1  158.44   18.71
  -3   8  -1  139.27   11.16
  -3   8  -1  147.49   18.45
  -3  -8  -1  158.93   20.60
   3  -8   2  292.07   29.11
   3  -8   2  286.82   24.71
  -3   8  -2  271.34   24.52
   3  -8   3    2.18    2.11
   3  -8   3    4.15    4.33
   3  -8   4   33.31   11.06
   3  -8   4   32.20    7.62
   3  -8   5  131.54   14.85
   3  -8   5  131.63   21.48
   3  -8   6  156.46   15.73
   3  -8   6  148.06   23.63
   3  -8   7  100.01   12.32
   3  -8   7  110.89   20.22
   3  -8   8   -0.78    5.24
   3  -8   8    2.45    1.10
   3  -8   9   32.65    6.10
   3  -8   9   39.67   12.90
   3  -8  10   53.51    7.34
  -3  -8 -10   58.79   14.78
   3  -8  10   60.63   17.28
   3  -8  11   34.61   13.21
  -3  -8 -11   31.21   10.19
   3  -8  12  171.30   29.69
  -3  -8 -12  167.08   28.54
   3   8  12  186.58   34.92
   3   8  13  137.45   29.49
  -3  -8 -13  127.57   26.04
   3  -8  13  134.24   27.09
   3   8  14  101.45   24.97
  -3  -8 -14   93.53   23.24
   3  -8  14   93.85   22.77
   3   8  15   -3.44    4.34
  -3  -8 -15   -5.75    6.78
   3  -8  15    0.65    3.33
   3  -8  16    3.32    5.26
   3   8  16   -0.59    2.56
  -3  -8 -17   -4.59    6.94
  -3  -8 -18   25.04   11.09
   3  -9 -21  -16.30   16.00
   3  -9 -20   11.09    3.83
  -3   9  19   -6.08    9.03
   3  -9 -19    4.69    9.17
   3  -9 -18   29.55   15.52
  -3   9  18   24.69   11.35
  -3   9  17   64.82   19.89
   3  -9 -17   51.28   20.84
  -3   9  16    3.47    5.47
   3  -9 -16   -9.03   10.50
   3  -9 -15   94.46   25.06
  -3   9  15   91.98   22.84
  -3  -9  15   92.82   16.25
  -3  -9  14   46.08   11.13
   3  -9 -14   43.77   14.79
  -3   9  14   50.51   16.54
  -3  -9  13   66.90   13.33
  -3   9  13   52.72   16.16
  -3  -9  12  164.00   20.58
  -3   9  12  155.08   28.88
  -3   9  11  162.23   28.87
   3   9 -11  153.58   12.37
   3   9 -10   14.01    4.04
  -3   9  10   21.94   11.43
  -3   9   9   44.04   14.76
  -3   9   8   70.80   17.86
  -3   9   7   -2.18    2.27
  -3   9   6  264.00   32.40
   3  -9  -6  271.81   27.74
  -3   9   5  276.19   32.41
   3  -9  -5  254.41   25.22
  -3   9   4  998.29   57.85
   3  -9  -4  914.26   47.62
  -3   9   3  163.88   22.88
  -3   9   3  147.96   20.04
   3  -9  -3  151.56   19.26
   3  -9  -2   96.98   16.46
  -3   9   2   73.88   14.89
   3   9  -2   82.70   14.15
  -3   9   2   59.99   12.04
  -3   9   1  113.94   18.11
   3   9  -1  130.05   18.59
   3  -9  -1  138.29   19.94
  -3  -9   0   36.90    9.11
   3  -9   0   52.34   12.35
  -3   9   0   40.55    9.61
  -3   9  -1   29.85    4.37
   3  -9   1   47.87   11.55
  -3  -9  -1   51.20   12.67
  -3   9  -1   39.42    9.89
  -3  -9  -2   58.45   14.50
  -3   9  -2   29.28    8.22
   3  -9   2   39.42    9.65
   3  -9   3  195.76   20.71
   3  -9   3  196.86   25.63
   3  -9   4   31.02   11.23
   3  -9   4   32.30    8.03
   3  -9   5   38.90    8.65
   3  -9   5   40.40   12.06
   3  -9   6   97.76   13.15
   3  -9   6   89.47   18.82
   3  -9   7   17.48    9.07
   3  -9   7   19.32    5.79
   3  -9   8 1438.57   79.39
   3  -9   8 1430.83   43.71
   3  -9   9  144.58   25.58
   3  -9   9  146.93   12.85
   3  -9  10  360.15   41.77
   3  -9  11   28.80   12.29
  -3  -9 -11   15.23    7.22
  -3  -9 -12  144.82   27.13
   3  -9  12  157.18   28.53
   3   9  12  171.59   33.88
   3  -9  13   -0.38    0.83
  -3  -9 -13   -2.47    5.25
   3   9  13   10.55   11.68
  -3  -9 -14   45.10   16.53
   3  -9  14   39.34   15.56
   3   9  14   44.68   18.22
   3  -9  15   26.97   13.01
   3   9  15   31.55   15.42
  -3  -9 -15   23.33   12.26
   3   9  16   21.10   12.61
  -3  -9 -16   13.90    3.51
   3  -9  16   31.79   15.31
  -3  -9 -17    1.78    7.47
  -3  -9 -18   18.50   10.95
   3 -10 -21  -21.49   18.97
   3 -10 -20   10.73    8.18
  -3  10  19   -2.95    8.42
   3 -10 -19    6.01    9.71
  -3  10  18   49.49   17.50
   3 -10 -18   47.00   20.69
  -3  10  17   10.16    6.74
   3 -10 -17    7.24    9.34
   3 -10 -16  371.67   53.63
  -3  10  16  390.48   50.99
  -3  10  15   33.35   14.61
   3 -10 -15   23.71   10.20
  -3 -10  15   24.63    8.47
  -3  10  14   82.74   22.08
   3 -10 -14   76.47   21.26
  -3 -10  14   81.02   15.60
  -3  10  13   40.78   15.28
  -3 -10  13   43.26   11.66
  -3  10  12  179.46   31.94
  -3 -10  12  180.01   22.91
   3  10 -11   19.34    3.75
  -3  10  11   28.79   12.56
  -3  10  10    4.18    7.55
  -3  10   9   58.61   17.00
  -3  10   8  167.75   28.32
  -3  10   7  231.47   31.53
   3 -10  -7  204.09   24.65
   3 -10  -6   -6.15    8.08
  -3  10   6    5.66    6.84
   3 -10  -5   54.47   10.28
  -3  10   5   66.56   16.19
  -3  10   4  276.93   32.40
   3 -10  -4  262.80   25.58
  -3  10   3   -4.97    5.00
   3  10  -3   -8.72    8.28
  -3  10   2  678.91   47.63
   3  10  -2  706.01   43.34
   3  10  -1  116.78   17.86
  -3  10   1   95.95   16.94
  -3  10   0  420.48   34.74
  -3 -10   0  399.94   33.99
   3 -10   0  402.85   34.41
  -3  10  -1  103.80   16.88
  -3 -10  -1   93.26   17.96
   3 -10   1  101.74   16.88
  -3  10  -2    8.01    4.41
   3 -10   2   15.81    8.25
  -3 -10  -2   17.70    9.64
  -3  10  -3   12.85    5.35
   3 -10   3   21.16    8.33
   3 -10   4   12.82    7.55
   3 -10   4   11.42    6.49
   3 -10   5  149.66   24.49
   3 -10   5  158.82   18.14
   3 -10   6  183.54   18.42
   3 -10   6  189.89   27.74
   3 -10   7   64.27   16.85
   3 -10   7   72.18   11.36
   3 -10   8   28.28   12.25
   3 -10   8   19.12    5.12
   3 -10   9   -1.55    2.24
   3 -10   9   -2.40    3.16
   3 -10  10   -0.74    4.84
   3 -10  11   27.05   11.95
   3  10  12  234.93   39.59
  -3 -10 -12  220.32   34.77
   3 -10  12  221.02   34.83
   3 -10  13   -3.79    4.96
  -3 -10 -13   -1.61    5.17
   3  10  13   10.76   12.87
   3 -10  14    9.23    6.46
   3  10  14   17.30   13.31
  -3 -10 -14    4.55    5.15
  -3 -10 -15    2.33    6.89
   3 -10  15   -3.27    1.03
   3  10  15    6.20   11.08
  -3 -10 -16   20.38   11.98
   3  10  16   17.07   11.23
   3 -10  16   22.35   12.48
  -3 -10 -17    4.29    7.57
   3 -11 -21   10.30   10.95
   3 -11 -20    8.57   11.76
   3 -11 -19   88.17   30.46
  -3  11  19   75.96   23.95
   3 -11 -18    8.73    4.28
  -3  11  18    0.29    2.17
   3 -11 -17   57.95   21.92
  -3  11  17   59.14   20.56
   3 -11 -16    0.80    7.69
  -3  11  16   11.80    9.63
  -3  11  15    7.90    8.14
   3 -11 -15    2.93    2.61
  -3  11  14  136.72   29.50
  -3 -11  14  141.17   21.76
  -3  11  13   29.36   12.95
  -3 -11  13   37.43   11.59
  -3  11  12    9.07    6.58
  -3  11  11    2.80    6.56
   3  11 -11    1.54    1.42
  -3  11  10    1.93    5.95
  -3  11   9   11.00    7.83
  -3  11   8  287.66   37.42
   3 -11  -8  252.06   28.53
  -3  11   7   17.36   10.05
   3 -11  -7    1.46    6.70
  -3  11   6  122.74   23.85
   3 -11  -6  112.50   17.15
  -3  11   5  223.60   30.96
   3 -11  -5  220.95   24.77
  -3  11   4  404.61   40.63
   3 -11  -4  403.93   31.86
  -3  11   3  110.80   20.73
   3  11  -3  106.98   16.58
   3 -11  -3  128.43   18.90
   3  11  -2    6.68    5.55
  -3  11   2    3.04    3.41
  -3  11   1   -1.32    2.14
   3  11  -1   18.24    9.74
  -3  11   0  265.19   28.42
  -3 -11   0  252.96   26.99
  -3 -11  -1 1302.00   63.51
  -3  11  -1 1352.70   63.25
  -3 -11  -2    5.48    6.93
  -3  11  -2    1.29    2.43
  -3  11  -2    2.88    2.56
   3 -11   2   -8.54    7.27
   3 -11   3  420.22   32.74
  -3  11  -3  405.21   32.37
  -3  11  -4    1.51    3.07
   3 -11   4   -3.45    4.91
   3 -11   4    7.50    7.21
   3 -11   5   21.33   10.02
   3 -11   5    6.47    2.79
   3 -11   6   35.66   13.14
   3 -11   6   22.74    5.60
   3 -11   7  119.61   13.89
   3 -11   7  129.47   23.96
   3 -11   8  219.62   32.29
   3 -11   8  203.13   17.12
   3 -11   9   15.97    5.97
   3 -11   9   15.44    4.22
   3 -11  10   -6.23    7.10
   3  11  11   13.11   14.86
   3 -11  11   -6.79    7.97
   3 -11  12   65.81   19.86
  -3 -11 -12   70.96   19.58
   3  11  12   73.27   23.59
   3 -11  13   24.67   11.77
   3  11  13   41.01   18.02
  -3 -11 -13   36.78   14.64
   3 -11  14   19.33   11.63
   3  11  14   20.91   16.90
   3 -11  15   27.58   13.45
  -3 -11 -15   29.42   14.54
   3  11  15   29.81   15.56
   3 -11  16    4.41    3.65
   3  11  16    3.84    3.53
  -3 -11 -16    6.42    7.96
   3  11  17    6.75    5.01
  -3 -11 -17   17.81   10.31
   3 -12 -21   19.94   13.13
   3 -12 -20  -13.03   13.41
  -3  12  19    4.88    5.59
   3 -12 -19    4.51   10.81
  -3  12  18    6.16    4.25
   3 -12 -18    8.40    8.92
   3 -12 -17   15.92    9.16
  -3  12  17   10.85    9.16
  -3  12  16    7.00    8.73
   3 -12 -16  -10.42   12.58
  -3  12  15   68.32   22.46
  -3  12  14   -2.27    6.25
  -3 -12  14    0.66    2.13
  -3  12  13    3.92    5.97
  -3 -12  13    5.99    5.69
  -3  12  12   49.66   17.84
   3  12 -11   64.58    8.38
  -3  12  11   77.79   21.56
   3 -12 -10   72.84   14.29
  -3  12  10   87.81   22.99
  -3  12   9  772.68   65.47
   3 -12  -9  779.13   52.71
   3 -12  -8   50.21    9.76
  -3  12   8   62.55   18.43
  -3  12   7  460.38   48.83
   3 -12  -7  446.79   37.01
  -3  12   6   69.69   18.89
   3 -12  -6   57.06   12.34
  -3  12   5  502.16   47.52
   3 -12  -5  483.47   36.05
  -3  12   4  192.08   28.38
   3 -12  -4  213.68   24.06
   3  12  -3   74.59   13.66
  -3  12   3   89.87   19.20
   3  12  -2   16.53    7.96
  -3  12   2    6.29    5.38
  -3  12   1   35.71   10.71
  -3 -12   0   14.35    4.93
  -3  12   0   24.25    8.00
  -3 -12  -1  141.07   21.17
  -3  12  -1  142.19   20.89
  -3 -12  -2   15.35    8.95
  -3  12  -2    3.21    3.86
  -3 -12  -3  390.69   37.10
  -3  12  -3  390.77   33.02
   3 -12   3  399.04   33.02
  -3  12  -4   -1.36    1.83
   3 -12   4   -1.48    4.99
   3 -12   5  355.10   28.97
   3 -12   5  341.24   39.05
   3 -12   6    1.93    4.40
   3 -12   6    0.92    2.04
   3 -12   7   87.76   12.46
   3 -12   7   95.13   21.42
   3 -12   8   64.51   18.10
   3 -12   8   68.02   10.33
   3 -12   9   89.53   21.56
   3 -12  10   -1.15    4.99
   3 -12  11  142.49   28.26
   3  12  11  176.14   35.96
   3 -12  12    1.36    3.60
   3  12  12   10.24   12.82
   3 -12  13   42.20   16.28
  -3 -12 -13   33.62   13.61
   3  12  13   54.02   21.96
   3 -12  14   10.78    8.70
  -3 -12 -14    8.91    5.81
   3  12  14   12.70   11.73
   3 -12  15    8.07    7.09
  -3 -12 -15    8.04    8.25
   3  12  15   13.12   12.71
   3 -12  16    0.17    3.88
  -3 -12 -16   -4.45    6.55
   3  12  16    0.02    1.26
   3  12  17    5.95    3.87
  -3 -12 -17    8.21    6.01
  -3  13  20   13.62    7.83
   3 -13 -20   23.37   16.90
   3 -13 -19   66.88   26.59
  -3  13  19   65.07   23.54
  -3  13  18    7.20    9.98
   3 -13 -18   -8.48   11.25
  -3  13  17   62.07   22.44
   3 -13 -17   56.77   21.40
   3 -13 -16    3.06    5.86
  -3  13  16    9.88    8.49
  -3  13  15    4.71    4.15
  -3  13  14    1.35    5.02
  -3 -13  14    1.97    4.66
  -3  13  13   11.93    9.93
  -3  13  12   40.47   18.30
   3 -13 -11  206.07   28.09
   3  13 -11  206.71   16.35
  -3  13  11  203.97   36.25
  -3  13  10    0.92    8.30
   3 -13 -10   -8.65    7.54
  -3  13   9    9.92   10.09
   3 -13  -9    0.21    8.39
   3 -13  -8  223.17   26.65
  -3  13   8  245.72   36.78
  -3  13   7   49.73   16.89
   3 -13  -7   32.93    9.07
   3 -13  -6  169.02   21.76
  -3  13   6  167.58   29.71
  -3  13   5   39.20   14.81
   3 -13  -5   51.31   12.76
   3 -13  -4   79.25   15.90
  -3  13   4   42.27   15.12
  -3  13   3   63.58   16.86
  -3  13   2   31.84   10.63
  -3  13   1   25.16    9.41
  -3 -13   0   44.72    8.75
  -3  13   0   64.33   14.92
  -3 -13  -1  195.74   25.36
  -3  13  -1  180.81   24.63
  -3  13  -2   49.08   12.38
  -3 -13  -2   55.83   15.95
  -3  13  -3  510.13   39.39
  -3 -13  -3  517.85   43.38
  -3  13  -4   59.68   12.64
   3 -13   4   55.85   12.41
   3 -13   5   20.92   11.73
   3 -13   5   12.12    4.93
   3 -13   6   23.13   10.68
   3 -13   6   19.24    6.97
   3 -13   7  138.52   26.61
   3 -13   7  145.51   17.01
   3 -13   8   46.18   15.78
   3 -13   8   51.47   10.26
   3 -13   9  254.46   37.19
   3 -13  10   85.53   21.69
   3  13  10  111.96   29.72
   3  13  11   27.54   17.21
   3 -13  11    4.30    0.60
   3 -13  12    3.10    3.75
   3  13  12   17.73   12.86
   3  13  13   42.72   18.77
   3 -13  13   26.09   13.61
   3 -13  14   19.82   10.98
  -3 -13 -14   10.29    6.97
   3  13  14   17.24   12.75
   3 -13  15   34.68   14.87
  -3 -13 -15   28.13   14.66
   3  13  15   29.84   16.57
   3 -13  16    0.94    4.61
   3  13  16   -0.94    4.89
  -3 -13 -16   -3.22    4.86
   3  13  17   25.79   15.58
  -3 -13 -17   24.75   14.88
  -3  14  20   -3.44    9.48
   3 -14 -20   12.93   13.02
  -3  14  19    0.42    0.42
   3 -14 -19   -6.37   11.02
   3 -14 -18   31.00   17.79
  -3  14  18   39.63   18.05
  -3  14  17    3.62    6.36
   3 -14 -17    5.92    6.14
  -3  14  16   38.61   18.72
  -3  14  15   41.52   19.15
  -3 -14  14   29.47   11.91
  -3  14  14   23.08   13.72
  -3  14  13   10.70   11.94
   3 -14 -13  -15.24   12.23
   3 -14 -12  -14.07   13.39
  -3  14  12   15.54   11.67
  -3  14  11   97.70   26.09
   3  14 -11   92.12   11.58
   3 -14 -11   88.90   18.53
  -3  14  10  146.51   30.60
   3 -14 -10  105.56   19.25
  -3  14   9  231.28   38.03
   3 -14  -9  217.73   25.91
   3 -14  -8   -4.87    7.28
  -3  14   8    7.48    9.91
   3 -14  -7   52.20   12.02
  -3  14   7   46.52   17.48
   3 -14  -6   12.31    8.29
  -3  14   6    5.63    7.26
  -3  14   5    6.08    7.28
   3 -14  -5   34.01   12.15
  -3  14   4  155.01   27.17
  -3  14   3   53.16   15.71
  -3  14   2   62.19   15.92
  -3  14   1    0.80    1.79
  -3 -14   0    5.66    6.35
  -3  14   0   33.83   10.84
  -3 -14  -1   28.15    6.99
  -3  14  -1   17.62    6.86
  -3  14  -2   22.47    6.01
   3  14   2   19.61    3.60
  -3  14  -3   69.52   15.08
  -3  14  -3   62.88    6.56
  -3 -14  -3   81.17   18.38
  -3  14  -4    5.05    3.67
  -3  14  -5  226.08   25.10
   3 -14   5  232.79   25.39
   3 -14   6   37.87   14.68
   3 -14   6   39.26   11.00
   3 -14   7    2.30    3.92
   3 -14   7   11.72    7.88
   3 -14   8    3.26    3.69
   3 -14   9   40.09   14.28
   3  14  10   26.70   18.83
   3 -14  10    2.05    3.04
   3 -14  11    4.13    2.23
   3  14  11   17.43   12.48
   3 -14  12   -0.78    2.71
   3  14  12   11.15   10.91
   3  14  13   35.90   18.49
   3 -14  13   22.74   11.39
   3 -14  14    1.30    1.71
  -3 -14 -14   -2.06    5.59
   3  14  14    2.58    2.48
  -3 -14 -15   13.85    9.93
   3 -14  15    9.65    7.44
   3  14  15   14.32   12.22
   3 -14  16   16.78   10.38
  -3 -14 -16    6.42    7.56
   3  14  16    6.57    4.68
  -3 -14 -17    7.04    5.75
   3  14  17    4.09    9.96
   3 -15 -20    2.01    2.69
  -3  15  20   -7.51   10.80
   3 -15 -19   11.68    6.07
  -3  15  19   20.45   12.67
   3 -15 -18   -3.40    9.37
  -3  15  18    0.71    4.38
  -3  15  17    1.27    5.56
   3 -15 -17   -2.01    8.74
  -3  15  16   14.15   12.29
  -3  15  15    8.00    5.16
   3 -15 -15   -6.26   10.40
   3 -15 -14   -1.44    8.00
  -3 -15  14   12.48    7.87
  -3  15  14   11.36   12.18
   3 -15 -13   32.39   10.53
  -3  15  13   36.10   17.91
  -3  15  12  155.32   33.80
   3 -15 -12  158.65   25.80
  -3  15  11   21.01   12.30
   3 -15 -11   -5.01    9.93
   3  15 -11   24.54    6.49
  -3  15  10   28.61   16.89
   3  15 -10   45.23   11.22
   3 -15 -10   16.35    1.72
  -3  15   9   97.59   26.99
   3 -15  -9   87.90   15.64
   3 -15  -8  276.74   29.33
  -3  15   8  258.79   40.65
  -3  15   7   19.68   13.66
   3 -15  -7   29.86   11.24
  -3  15   6    6.35    8.35
   3 -15  -6   39.16   13.21
  -3  15   5   14.54   10.63
  -3  15   4   24.26   12.61
  -3  15   3   27.65   11.49
  -3  15   2   11.12    9.08
  -3  15   1   64.23   16.20
  -3  15   0   22.02    8.47
  -3  15  -1   20.90    8.61
  -3 -15  -1    2.55    7.80
   3  15   2   20.80    3.71
  -3  15  -2   21.05    4.85
  -3  15  -3    5.82    5.24
  -3 -15  -3   11.85    9.82
  -3  15  -4   -0.47    2.83
  -3 -15  -4   46.74   15.89
  -3  15  -5   25.95    8.59
   3 -15   6   31.29   12.02
   3 -15   6   21.97   13.28
   3 -15   7   23.84   12.06
   3 -15   8   45.32   16.67
   3  15   9  122.54   31.64
   3 -15   9  117.50   26.44
   3 -15  10  177.33   33.45
   3  15  10  206.57   39.93
   3  15  11   21.14   16.35
   3 -15  11    7.46    4.53
   3 -15  12   19.40    9.84
   3  15  12   25.82   16.25
   3 -15  13    1.94    3.79
   3  15  13    4.30    8.93
   3 -15  14   12.93   10.40
   3  15  14   13.35   13.67
  -3 -15 -15   67.51   22.77
   3 -15  15   50.83   20.16
   3  15  15   47.99   20.51
   3  15  16   24.14   14.42
  -3 -15 -16   22.44   12.79
   3 -15  16   30.12   14.86
  -3 -15 -17    7.29    6.60
   3  15  17   -2.99   10.50
  -3  16  20    0.88    2.30
   3 -16 -19   -3.39    3.65
  -3  16  19   -3.79    7.81
  -3  16  18   31.77   17.58
   3 -16 -18   13.10    9.30
  -3  16  17   -1.78    3.92
  -3  16  16  174.94   38.79
  -3  16  15    6.53    5.91
  -3  16  14  141.11   34.08
  -3 -16  14  147.69   27.13
   3 -16 -14  153.05   26.41
   3 -16 -13   -9.75   10.54
  -3  16  13    1.68    7.23
  -3  16  12   10.62   10.91
   3 -16 -12   -7.13   10.80
  -3  16  11    7.41    8.70
   3 -16 -11   -8.30    7.66
   3 -16 -10  136.83   21.96
  -3  16  10  142.95   31.97
   3  16 -10  165.20   19.53
  -3  16   9   67.98   22.46
   3 -16  -9   65.17   14.43
   3  16  -9   74.67   15.69
   3 -16  -8   35.75   11.11
  -3  16   8   36.08   16.52
  -3  16   7    3.66    7.83
   3 -16  -7   38.74   12.64
   3 -16  -6   75.98   18.00
  -3  16   6   12.82    8.73
  -3  16   5   59.56   19.28
  -3  16   4  249.76   36.51
  -3  16   3   14.16   10.58
  -3  16   2 1075.72   73.30
  -3  16   1    5.36    5.00
  -3  16   0  104.91   21.70
  -3  16  -1    4.62    4.13
  -3 -16  -1   -8.29    9.03
  -3  16  -2  145.98   23.71
   3  16   2  135.97   11.99
  -3 -16  -2  170.99   24.65
  -3 -16  -3   67.35   18.38
  -3  16  -3   35.98   11.00
  -3  16  -4   11.12    5.87
  -3 -16  -4   39.97   15.54
  -3  16  -5   10.22    5.67
   3 -16   7   72.68   20.83
   3  16   8   27.59   18.23
   3 -16   8    8.73    8.23
   3  16   9   15.40   15.50
   3 -16   9    0.93    2.15
   3  16  10   23.09   15.70
   3 -16  10    3.47    5.06
   3 -16  11    5.25    4.55
   3  16  11   23.02   16.42
   3 -16  12   20.70   10.25
   3  16  12   24.51   15.58
   3 -16  13   -2.77    4.93
   3  16  13   12.75   13.64
   3  16  14    4.57    6.58
   3 -16  14   -1.00    3.66
  -3 -16 -15   -0.53    4.90
   3 -16  15    0.10    2.57
   3  16  15   -0.06    1.29
   3  16  16   32.80   17.02
   3 -16  16   21.71   14.62
  -3 -16 -16   20.80   13.28
   3  16  17    1.41    3.72
   3  16  18   25.13   14.29
  -3  17  20   15.02   11.46
   3 -17 -19    0.01    4.34
  -3  17  19   10.15   10.29
  -3  17  18   54.82   22.01
   3 -17 -18   56.04   23.38
  -3  17  17   17.43   12.77
  -3  17  16    8.10    9.61
  -3  17  15    0.92    7.03
  -3  17  14   25.98   15.22
   3 -17 -13   63.88   14.93
  -3  17  13   83.93   26.33
   3 -17 -12   -7.42    8.73
  -3  17  12    7.70    9.07
  -3  17  11   48.27   20.58
   3 -17 -11   32.95   10.60
   3 -17 -10  185.30   25.87
   3  17 -10  183.64   21.60
  -3  17  10  155.15   34.46
   3 -17  -9   69.03   14.58
  -3  17   9   71.09   23.23
   3  17  -9   76.99   15.86
  -3  17   8   76.07   23.01
   3  17  -8   99.10   18.77
   3 -17  -8   98.94   18.91
  -3  17   7   51.69   20.06
   3 -17  -7  101.80   19.87
  -3  17   6  226.53   38.04
  -3  17   5   11.07    9.67
  -3  17   4  130.15   26.84
  -3  17   3   18.62   10.94
   3 -17  -3   12.12    3.12
  -3  17   2   17.03   10.31
  -3  17   1   45.41   14.31
  -3  17   0   88.94   20.22
  -3  17  -1  210.07   30.24
  -3 -17  -1  188.33   25.79
   3  17   1  246.15   19.15
  -3  17  -2  335.59   37.34
   3  17   2  321.89   20.11
  -3 -17  -2  332.42   35.40
  -3  17  -3   43.51   11.54
  -3 -17  -3   58.30   16.35
  -3  17  -4    2.35    4.41
  -3 -17  -4   13.14   11.54
  -3 -17  -5  131.03   26.04
  -3  17  -5   84.45   17.15
  -3  17  -6  295.17   30.95
   3  17   7   28.10   20.44
   3 -17   7    9.13   10.47
   3 -17   8   98.85   25.35
   3  17   8  123.24   31.98
   3  17   9  102.84   29.88
   3 -17   9  106.62   26.80
   3  17  10  133.03   33.68
   3 -17  10  116.18   27.79
   3 -17  11   46.29   18.44
   3  17  11   52.20   21.63
   3 -17  12   22.32   11.52
   3  17  12   34.52   18.05
   3 -17  13   10.97    7.13
   3  17  13   30.36   19.03
   3  17  14   36.26   16.55
   3 -17  14   30.50   15.41
  -3 -17 -15   31.80   15.60
   3 -17  15   34.91   17.88
   3  17  15   36.20   19.65
  -3 -17 -16   43.83   19.12
   3 -17  16   52.97   20.16
   3  17  16   52.77   21.11
   3  17  17    8.56    8.15
   3  17  18   -5.75   12.48
  -3  18  20   -5.69    8.69
  -3  18  19    9.66   11.68
   3 -18 -18   16.48   13.01
  -3  18  18   29.92   18.42
  -3  18  17    6.12    9.52
  -3  18  16    1.03    3.34
  -3  18  15   15.46   14.61
  -3  18  14   37.06   19.01
   3 -18 -13   -6.39    8.02
  -3  18  13    6.63    9.90
  -3  18  12   10.49   10.82
   3 -18 -12    1.02    1.60
  -3  18  11  114.90   30.77
   3 -18 -11  133.72   22.22
  -3  18  10   22.47   15.09
   3 -18 -10   22.68    9.95
   3  18 -10   16.97    6.55
  -3  18   9  234.02   43.14
   3  18  -9  268.80   29.36
   3 -18  -9  283.59   31.39
  -3  18   8   54.49   21.38
   3  18  -8   57.17   15.81
   3 -18  -8   90.47   18.93
   3  18  -7  209.62   28.42
  -3  18   7  189.09   36.83
  -3  18   6   27.36   16.40
  -3  18   5    4.46    6.83
  -3  18   4    9.29    8.39
  -3  18   3   31.89   13.64
  -3  18   2   34.79   13.43
  -3  18   1  119.53   25.78
  -3  18   0   25.17   10.83
  -3 -18  -1    1.10   11.37
  -3  18  -1   14.62    6.00
  -3 -18  -2   47.81   11.61
  -3  18  -2   40.53   12.89
  -3  18  -3  157.01   25.62
  -3 -18  -3  172.79   26.03
  -3  18  -4    4.98    5.39
  -3 -18  -4   24.52   13.03
  -3 -18  -5   45.10   17.73
  -3  18  -5    9.13    5.61
  -3  18  -6   77.10   15.99
   3  18   6  101.70   29.36
   3  18   7   22.07   16.66
   3 -18   7    6.74   11.38
   3  18   8   16.58   16.78
   3 -18   8    5.63    6.67
   3 -18   9    3.78    7.46
   3  18   9   10.28   11.83
   3  18  10  127.27   33.64
   3 -18  10  108.97   27.65
   3  18  11  115.90   33.45
   3 -18  11   98.36   26.82
   3 -18  12   10.24    7.99
   3  18  12   30.93   17.68
   3 -18  13   42.90   18.89
   3  18  13   36.37   17.73
   3 -18  14    0.18    6.89
   3  18  14   11.96   13.01
   3 -18  15    2.96    5.90
   3  18  15   12.51    6.94
   3 -18  16   11.06   10.39
  -3 -18 -16    8.21    8.61
   3  18  16    0.90    8.64
   3  18  17   -1.86   11.51
  -3  19  19   25.25   14.58
  -3  19  18   17.89   13.50
  -3  19  17   64.90   26.11
  -3  19  16    8.84    9.76
  -3  19  15   12.78   12.26
  -3  19  14   10.41   12.32
  -3  19  13    7.97   10.83
   3 -19 -12   80.84   17.56
  -3  19  12   72.63   26.06
  -3  19  11   40.74   19.89
   3 -19 -11   50.79   13.99
   3 -19 -10   37.75   13.17
  -3  19  10    5.51   11.01
  -3  19   9   16.59   14.08
   3  19  -9   20.73    9.04
   3  19  -8   33.36   12.57
  -3  19   8   24.44   15.14
   3  19  -7   18.23   12.29
  -3  19   7    6.69   10.59
   3  19  -6  191.28   30.02
  -3  19   6  199.10   37.58
  -3  19   5   16.58   14.22
   3 -19  -4   18.11    5.70
  -3  19   4   10.45   10.27
  -3  19   3    9.69    7.42
  -3  19   2   15.89   10.44
  -3  19   1  200.55   33.18
  -3  19   0    8.71    5.61
  -3  19  -1   77.75   19.30
  -3  19  -2    7.11    2.62
  -3 -19  -2   -0.13    9.41
  -3 -19  -3   24.57   11.07
  -3  19  -3    7.14    2.00
  -3  19  -4   50.63   15.03
  -3 -19  -4   66.14   18.28
  -3 -19  -5  131.25   26.37
  -3  19  -5   98.45   20.29
   3  19   5  132.93   32.76
  -3 -19  -6   62.56   20.47
   3  19   6   46.56   20.61
  -3  19  -6   25.92    9.09
   3  19   7   18.51   17.23
   3 -19   7   12.22   11.50
   3 -19   8    5.88    6.46
   3  19   8   22.82   15.86
   3 -19   9    3.24    7.96
   3  19   9   11.01   13.56
   3 -19  10   43.39   18.10
   3  19  10   60.38   22.95
   3 -19  11    7.32    7.91
   3  19  11   12.67   14.10
   3 -19  12    4.80    3.37
   3  19  12    9.17   12.44
   3 -19  13   17.52   13.15
   3  19  13   22.82   14.61
   3 -19  14    5.97    5.54
   3  19  14   10.67   11.12
   3 -19  15   29.22   14.92
   3  19  15   44.07   22.33
   3  19  16   55.18   24.78
  -3 -19 -16   36.53   17.11
   3  19  17   -3.45   14.07
  -3  20  18   -1.19    2.65
  -3  20  17   10.69   11.51
  -3  20  16   42.65   22.38
  -3  20  15   17.18   14.17
  -3  20  14   57.45   23.65
  -3  20  13    9.53   11.83
  -3  20  12   12.42   13.88
  -3  20  11   32.55   18.16
   3 -20 -11   50.14   14.59
   3 -20 -10   85.26   18.13
  -3  20  10   50.99   22.34
  -3  20   9   74.19   26.62
   3  20  -9   70.27   15.58
  -3  20   8    2.34    4.96
   3  20  -8    7.15    6.24
  -3  20   7   24.82   14.74
   3  20  -7   29.19   12.81
   3  20  -6   20.56   14.87
  -3  20   6   15.63   13.94
   3  20  -5   25.25   15.47
  -3  20   5    8.41   10.90
   3 -20  -4   98.44   10.15
  -3  20   4  121.19   28.41
   3  20  -4  131.02   26.82
  -3  20   3   15.24   11.43
  -3  20   2  182.01   33.24
  -3  20   1   10.88    9.31
  -3  20   0   78.22   20.64
  -3  20  -1   -0.10    1.23
  -3 -20  -2   -7.92   12.74
  -3  20  -2    0.79    5.48
  -3  20  -3   28.41   10.64
  -3 -20  -3   21.63    7.82
  -3  20  -4    2.99    3.34
   3  20   4   25.02   18.54
  -3 -20  -4   10.39    8.89
  -3  20  -5  175.45   27.60
  -3 -20  -5  201.69   31.56
   3  20   5  187.51   39.78
  -3  20  -6   74.07   16.86
  -3 -20  -6  102.05   23.68
   3  20   6   87.72   28.79
   3  20   7    8.99   12.27
  -3 -20  -7   27.71   16.17
   3 -20   8   16.77   11.36
   3  20   8   25.33   17.28
   3 -20   9    7.31    9.45
   3  20   9    7.46   12.92
   3 -20  10    3.69    5.30
   3  20  10   21.38   15.62
   3 -20  11    0.96    5.72
   3  20  11    0.50    8.77
   3 -20  12   -0.12    2.32
   3  20  12   -1.00    8.20
   3 -20  13   15.11   10.63
   3  20  13   23.44   15.52
   3 -20  14    0.06    3.85
   3  20  14   -1.90    4.60
   3  20  15    8.90   11.50
   3 -20  15    1.56    2.23
   3  20  16    3.38    5.19
  -3  21  18    2.97    9.69
  -3  21  17    4.52    7.77
  -3  21  16    7.76   11.98
  -3  21  15    3.63    2.06
  -3  21  14   10.37   12.47
  -3  21  13    8.45   12.10
  -3  21  12   54.05   23.85
  -3  21  11   39.48   20.35
  -3  21  10   82.58   26.88
  -3  21   9   11.85   10.48
   3  21  -8   11.09    7.37
  -3  21   8   14.00   11.13
   3  21  -7  106.91   22.73
  -3  21   7  103.94   28.25
  -3  21   6  128.02   31.01
   3  21  -6  130.94   25.84
  -3  21   5   25.93   15.40
   3  21  -5   46.07   18.15
  -3  21   4   87.44   25.78
   3  21  -4  111.62   25.45
   3  21  -3   31.99   16.67
  -3  21   3   24.10   13.18
   3  21  -2   34.94   17.96
  -3  21   2    8.18    9.87
   3  21  -1   48.72   21.44
  -3  21   1   33.68   13.51
   3  21   0   35.35   18.36
  -3  21   0   17.95   10.36
   3  21   1   18.20   13.96
  -3  21  -1    3.32    1.20
  -3  21  -2   -1.66    6.27
  -3 -21  -2  -18.46   15.52
  -3  21  -3    8.93    3.39
   3  21   3   23.16   17.02
  -3 -21  -3    4.27    6.52
  -3  21  -4   -0.08    1.86
  -3 -21  -4    2.69    3.01
   3  21   5   12.62   14.84
  -3  21  -5   -2.04    3.41
  -3 -21  -5    7.16    9.10
   3  21   6   14.39   14.51
  -3 -21  -6   15.85   11.31
  -3  21  -6    3.78    3.75
  -3 -21  -7   17.16   12.48
   3  21   7   20.02   16.62
   3  21   8   51.60   23.85
   3 -21   8   55.55   21.31
   3  21   9   70.74   26.72
   3 -21   9   58.47   21.74
   3 -21  10  103.37   29.40
   3  21  10  141.73   37.12
   3 -21  11   11.93    9.59
   3  21  11   20.62   16.53
   3 -21  12    7.93    7.34
   3  21  12   10.34   13.02
   3 -21  13    2.62    4.50
   3  21  13    3.59    6.74
   3 -21  14   -1.50    0.88
   3  21  14    1.62    7.71
   3 -21  15   -6.73   10.37
   3  21  15    3.90    5.93
  -3  22  17    5.06    3.39
  -3  22  16   60.05   27.14
  -3  22  15   38.84   22.22
  -3  22  14   48.18   22.27
  -3  22  13   50.82   23.95
  -3  22  12   33.31   19.12
  -3  22  11    2.48    7.76
  -3  22  10   14.77   14.83
  -3  22   9   12.49   13.73
   3  22  -8   68.44   17.06
  -3  22   8   63.76   23.18
  -3  22   7   11.76   12.54
   3  22  -7    4.39    7.52
   3  22  -6   67.94   19.14
  -3  22   6   61.00   22.78
  -3  22   5   22.88   13.53
   3  22  -5   21.17   12.26
  -3  22   4   28.83   16.20
   3  22  -4   33.73   15.35
   3  22  -3   16.88   14.49
  -3  22   3   -3.86    7.87
  -3  22   2   48.75   19.21
   3  22  -2   64.88   22.55
   3  22  -1  122.78   29.39
  -3  22   1  103.19   25.23
  -3  22   0  202.09   35.25
   3  22   0  209.27   37.77
   3  22   1   30.86   15.97
  -3  22  -1   10.04    6.96
   3  22   2   33.63   18.93
  -3  22  -2   18.89    9.55
  -3 -22  -3    1.59    8.64
  -3  22  -3   16.21    8.64
  -3  22  -4   50.50   16.34
  -3 -22  -4   61.19   15.98
   3  22   4   75.19   25.68
  -3 -22  -5    5.63    8.34
  -3  22  -5    0.04    1.15
   3  22   6  204.45   42.03
  -3 -22  -6  203.57   33.08
  -3 -22  -7   36.59   16.98
   3  22   7   16.24   15.85
   3 -22   8    8.34    8.36
  -3 -22  -8   23.77   17.18
   3  22   8    1.24    8.21
   3 -22   9   12.74    9.60
   3  22   9    5.21   11.77
   3  22  10   50.77   22.30
   3 -22  10   41.03   18.66
   3 -22  11    6.35    7.38
   3  22  11   -1.12    4.43
   3 -22  12   11.68    8.82
   3  22  12   11.46    8.64
   3 -22  13    1.10    3.40
   3  22  13   -9.08   10.55
   3  22  14   -1.30    4.82
   3 -22  14   -3.27    7.89
   3 -22  15   20.61   14.87
  -3  23  16    5.36    8.79
  -3  23  15    9.11   12.76
  -3  23  14   19.11   16.18
  -3  23  13    9.75   12.37
  -3  23  12   29.34   19.04
  -3  23  11   11.15   13.63
  -3  23  10   91.94   30.66
  -3  23   9   16.73   14.42
  -3  23   8    3.26    9.95
  -3  23   7   29.85   17.16
   3  23  -7   33.51   12.72
  -3  23   6   33.20   17.00
   3  23  -6   31.52   14.24
  -3  23   5   18.05   14.11
   3  23  -5   28.40   14.12
   3  23  -4  235.87   37.81
  -3  23   4  233.86   42.89
  -3  23   3   11.40    9.89
   3  23  -3   18.35   12.18
  -3  23   2   12.80   10.14
   3  23  -2   14.05   14.21
  -3  23   1   -0.95    4.71
   3  23  -1    9.94   10.33
  -3  23   0   59.44   19.73
   3  23   0   67.41   23.14
  -3  23  -1   72.05   21.34
   3  23   1   72.67   24.86
  -3  23  -2  150.12   29.84
   3  23   2  186.96   38.76
  -3  23  -3   18.65    9.43
  -3 -23  -3    8.48    7.56
   3  23   4   71.08   25.06
  -3  23  -4   53.57   17.42
  -3 -23  -4   44.58   13.96
   3  23   5   81.65   27.78
  -3  23  -5   76.59   20.37
  -3 -23  -5   61.00   17.21
  -3 -23  -6   13.72   10.97
   3  23   6   27.45   19.49
  -3 -23  -7   30.86   16.54
   3  23   7    5.96   10.60
   3 -23   8   36.56   17.92
   3  23   8   42.51   22.01
  -3 -23  -8   50.19   19.00
  -3 -23  -9   28.54   16.92
   3  23   9   14.83   11.62
   3 -23   9   12.19   11.50
   3  23  10  113.41   34.19
   3 -23  10   83.50   27.65
   3 -23  11   15.08   13.23
   3  23  11   20.97   17.10
   3 -23  12   -2.89    4.63
   3  23  12   -0.65    4.16
   3 -23  13   10.07    9.49
   3  23  13    8.26    4.07
   3 -23  14   -2.58    5.28
   3 -23  15   19.19   12.52
  -3  24  15   30.24   20.15
  -3  24  14   10.01   13.19
  -3  24  13    7.22   11.54
  -3  24  12    8.10   10.01
  -3  24  11   39.33   21.62
  -3  24  10   80.98   28.18
  -3  24   9   76.47   27.12
  -3  24   8   15.43   12.50
  -3  24   7   65.26   24.46
   3  24  -7   53.05   16.32
  -3  24   6    9.45   11.73
   3  24  -6   12.33    8.98
  -3  24   5   19.95   13.90
   3  24  -5   20.06   12.03
   3  24  -4    7.37   11.28
  -3  24   4    9.62   11.34
  -3  24   3   46.40   20.09
   3  24  -3   62.73   22.86
  -3  24   2   45.47   20.49
   3  24  -2   52.10   19.76
  -3  24   1   40.18   17.84
   3  24  -1   51.34   20.25
  -3  24   0  123.98   29.32
   3  24   0  135.57   32.90
   3  24   1  119.12   31.30
  -3  24  -1   97.30   24.86
  -3  24  -2   22.19   10.16
   3  24   2   28.39   17.17
   3  24   3  200.87   42.18
  -3  24  -3  178.50   32.74
  -3 -24  -4  -15.87   11.07
  -3  24  -4   -4.24    8.27
   3  24   4    1.64    8.02
  -3 -24  -5   -2.56    5.27
   3  24   5    4.30    9.38
  -3 -24  -6   11.03    7.88
   3  24   6   13.39   15.86
  -3 -24  -7   23.15   13.25
   3  24   7   17.64   13.26
  -3 -24  -8   19.97   14.78
   3  24   8   27.57   17.98
   3 -24   8   20.98   14.38
   3 -24   9    2.78    7.04
  -3 -24  -9   23.47   15.47
   3  24   9   19.20   16.28
   3 -24  10    4.65    9.30
   3  24  10   -0.48    5.56
  -3 -24 -11  151.21   35.23
   3  24  11  139.45   39.00
   3 -24  11  125.47   34.53
   3 -24  12   24.30   14.65
   3  24  12   25.29   15.37
   3 -24  13   11.00    8.32
   3 -24  14   -0.80    6.57
  -3  25  14   11.96   11.64
  -3  25  13   18.70   16.58
  -3  25  12    1.28    9.61
  -3  25  11   40.79   21.07
  -3  25  10    4.38    9.57
  -3  25   9   17.64   15.14
  -3  25   8   28.99   18.07
   3  25  -7   16.94    9.87
  -3  25   7   25.46   17.06
  -3  25   6   11.34   12.33
   3  25  -6    5.64    7.74
   3  25  -5  112.85   26.89
  -3  25   5  105.72   30.29
  -3  25   4   26.19   14.32
   3  25  -4   34.58   16.18
  -3  25   3   44.69   21.29
   3  25  -3   47.86   18.22
  -3  25   2    6.11    4.14
   3  25  -2   15.45   13.88
  -3  25   1   22.64   12.58
   3  25  -1   40.91   17.14
  -3  25   0   18.76   12.08
   3  25   0   34.40   18.15
   3  25   1  170.09   37.04
  -3  25  -1  150.60   31.88
  -3  25  -2   22.64   10.94
   3  25   2   33.40   17.54
  -3  25  -3  277.69   42.13
   3  25   3  305.91   52.36
  -3  25  -4    5.56    1.67
   3  25   4   25.39   16.88
   3  25   5   14.69   12.14
  -3 -25  -6    2.84    1.85
   3  25   6   10.28   11.75
  -3 -25  -7    9.70    7.81
   3  25   7    7.65   10.76
  -3 -25  -8   29.45   15.67
   3  25   8   15.68   12.60
   3 -25   8   17.43   14.94
  -3 -25  -9   23.66   15.41
   3 -25   9    3.55    5.00
   3  25   9    4.70    9.55
   3  25  10   30.90   19.93
   3 -25  10   25.43   13.69
  -3 -25 -10   52.48   22.78
   3 -25  11    8.54    9.34
   3  25  11   10.11   11.99
   3 -25  12   37.40   18.82
   3 -25  13   10.96    9.70
  -3  26  12   28.42   16.70
  -3  26  11   16.76   16.28
  -3  26  10    6.32    7.68
  -3  26   9   49.63   21.41
  -3  26   8   26.58   18.28
  -3  26   7   16.39   13.93
  -3  26   6   23.81   16.79
   3  26  -6   22.26   11.95
  -3  26   5   12.34   10.96
   3  26  -5    3.93    4.36
   3  26  -4    4.15    1.27
  -3  26   4   12.05   14.68
   3  26  -3   41.73   17.07
  -3  26   3   39.34   18.00
  -3  26   2   -1.62    3.00
   3  26  -2   11.22   10.75
  -3  26   1   11.66   10.92
   3  26  -1   16.28   14.21
  -3  26   0    2.25    4.98
   3  26   0   20.92   15.74
  -3  26  -1   18.84   12.19
   3  26   1   36.94   19.02
  -3  26  -2   -9.74    9.54
   3  26   2    1.45    7.74
   3  26   3    3.12   10.12
  -3  26  -3    2.76    2.55
   3  26   4   14.30   13.02
   3  26   5    9.37   11.80
   3  26   6   -1.74    4.99
   3  26   7    6.77   10.01
   3  26   8    6.86    9.48
   3 -26   9    5.20    8.38
   3  26   9   -4.03    6.38
   3  26  10   -1.20    4.03
   3 -26  10    0.84    0.74
   3 -26  11   49.68   22.12
   3 -26  12    3.52    6.98
  -3  27  11   52.00   22.34
  -3  27  10   11.76   13.81
  -3  27   9    3.20    2.25
  -3  27   8    2.68    6.83
  -3  27   7   -7.71    5.60
  -3  27   6   14.15   11.78
   3  27  -6    3.95    6.52
   3  27  -5   -1.23    4.64
  -3  27   5    0.84    7.64
   3  27  -4  112.28   28.09
  -3  27   4  124.48   33.21
   3  27  -3   16.61   12.64
  -3  27   3    8.15    7.32
   3  27  -2    0.36    3.24
  -3  27   2    7.93    8.81
  -3  27   1   -4.41    7.66
   3  27  -1    0.09    5.84
  -3  27   0    8.32    5.67
   3  27   0    6.29   10.64
  -3  27  -1   11.54    7.27
   3  27   1   20.20   13.82
   3  27   2   15.82   13.43
  -3  27  -2   -1.05    6.55
  -3  27  -3   12.60    9.28
   3  27   3    6.16    9.18
   3  27   4   12.18   13.06
   3  27   5    9.65   10.03
   3  27   6   10.04    9.81
   3  27   7   13.16   11.91
   3  27   8   26.61   18.86
   3  27   9   13.30   12.34
   3 -27   9   16.20   16.26
   3 -27  10   27.76   17.15
  -3  28  10    4.96    9.60
  -3  28   9   12.49   14.16
  -3  28   8    9.80   11.10
  -3  28   7   -0.36    7.22
  -3  28   6   10.38   12.41
  -3  28   5    8.44   10.16
   3  28  -5   -2.84    7.35
  -3  28   4   35.76   20.01
   3  28  -4   30.57   14.68
  -3  28   3   29.05   16.62
   3  28  -3   24.96   13.05
  -3  28   2    0.81    4.84
   3  28  -2    5.77    6.18
   3  28  -1   49.97   20.83
  -3  28   1   61.37   22.77
  -3  28   0  119.22   30.78
   3  28   0  113.59   31.07
  -3  28  -1   -0.35    5.83
   3  28   1    5.74    7.67
  -3  28  -2   -3.09    8.26
   3  28   2    3.42    7.13
   3  28   3   11.17   10.55
   3  28   4    2.55    4.88
   3  28   5    4.64    1.65
   3  28   6   -3.68    3.91
   3  28   7    9.52   11.26
   3 -28   9   18.62   16.82
  -3  29   9    6.27   10.75
  -3  29   8    1.33    8.46
  -3  29   7    0.25    5.28
  -3  29   6   25.60   17.37
  -3  29   5   -2.81    6.87
   3  29  -4    7.95    8.47
  -3  29   4   14.62    9.93
  -3  29   3    8.69    9.81
   3  29  -3    2.23    5.43
  -3  29   2   -0.10    6.10
   3  29  -2   -1.11    3.38
  -3  29   1   10.63   10.35
   3  29  -1    7.28    6.67
  -3  29   0   15.65   13.16
   3  29   0   22.43   14.52
  -3  29  -1   -5.41    9.99
   3  29   1   -0.25    5.66
   3  29   2    4.69    9.16
  -3  29  -2   -9.51    9.19
   3  29   3   -1.12    5.06
   3  29   4    0.20    5.10
   3  29   5   -2.89    5.18
   3  29   6   -1.96    4.57
  -3  30   7   44.01   23.51
  -3  30   6    5.10    7.86
  -3  30   5   10.10   11.06
   3  30  -4   -2.25    6.37
  -3  30   4    7.08    6.19
   3  30  -3   -3.70    5.38
  -3  30   3   -7.12   12.16
  -3  30   2   21.24   13.68
   3  30  -2   19.75   11.44
   3  30  -1    0.61    2.02
  -3  30   1    3.98    3.14
  -3  30   0   11.48   12.39
   3  30   0   22.22   13.48
   3  30   1    6.20    5.13
  -3  30  -1   11.59    9.34
   3  30   2    1.92    5.01
   3  30   3   31.95   17.55
   3  30   4   19.23   14.96
   3  30   5   -4.15    8.85
  -3  31   6    9.80   13.37
  -3  31   5   21.56   17.24
  -3  31   4   21.08   15.77
  -3  31   3    1.96    2.21
   3  31  -3   -7.77    8.84
   3  31  -2   -2.23    7.84
  -3  31   2    6.20    8.25
  -3  31   1    1.63    4.06
   3  31  -1    5.77    5.61
  -3  31   0    8.31    6.17
   3  31   0    2.91    8.62
  -3  31  -1   -3.43   10.28
   3  31   1   -9.34   11.62
   3  31   2   21.14   14.38
   3  31   3   -2.02    9.49
  -3  32   4   24.98   16.77
  -3  32   3   10.85    8.92
   3  32  -3    4.81    2.52
  -3  32   2    1.07    7.79
   3  32  -2   -9.54   11.01
   3  32  -1   -5.03   11.15
  -3  32   1   -8.93   12.00
  -3  32   0    0.26   11.43
   3  32   0   -7.41   13.62
   3  32   1   17.71   13.36
  -3  33   2    0.54    2.43
   3  33  -2   -5.38   12.14
  -3  33   1    2.93    1.41
   3  33  -1   -0.35   13.42
  -3  33   0   -5.99   10.47
   3  33   0   -3.10   11.27
  -3  34   1   -8.47   13.52
   4   0 -22   24.39   19.20
   4   0 -21   10.59   12.67
   4   0 -20   38.34   18.80
   4   0 -19    0.72    3.59
   4   0 -18   46.05   16.72
   4   0 -17   -7.69    8.44
   4   0 -16  151.51   30.51
  -4   0  15   -3.64    5.99
   4   0 -15   -6.41    6.53
  -4   0  14  202.10   26.16
   4   0 -14  196.99   32.33
  -4   0  13   -3.25    5.29
   4   0 -13  -20.86   15.32
  -4   0  12  364.75   33.88
  -4   0  11    0.40    3.41
   4   0  -9   -0.27    1.18
   4   0  -8  558.53   37.13
   4   0  -7    0.61    2.00
   4   0  -6  328.35   27.71
   4   0  -6  317.51   27.60
  -4   0   6  297.83   13.25
  -4   0   5   -0.34    1.12
   4   0  -5   -2.32    3.74
   4   0  -5    3.17    2.93
   4   0  -5   -0.92    1.18
   4   0  -4  600.35   25.54
   4   0  -4  602.56   32.05
  -4   0   4  601.07   25.71
  -4   0   3    2.12    2.27
   4   0  -3    0.02    1.85
   4   0  -3    0.99    0.74
   4   0  -2  167.21   16.07
   4   0  -2  179.21   13.22
  -4   0   2  176.55   15.99
   4   0  -1   -0.74    1.07
   4   0  -1    1.34    1.27
  -4   0   0  105.47   15.39
   4   0   0  110.70   14.79
  -4   0   0  109.37   13.69
   4   0   0  118.80   14.53
  -4   0  -1    5.26    7.74
   4   0   1   -1.45    2.41
  -4   0  -1   -7.37    5.35
   4   0   2  441.38   32.65
  -4   0  -2  451.98   28.84
   4   0   3   -1.34    0.42
  -4   0  -3   21.30    8.72
   4   0   4 1399.97   64.02
   4   0   5    2.74    4.03
  -4   0  -5    7.13    4.55
   4   0   6 1077.14   61.18
  -4   0  -6 1038.44   42.88
  -4   0  -7    6.59    5.22
   4   0   7   -2.30    3.46
   4   0   8    9.76    5.05
  -4   0  -8   16.78    7.67
   4   0   9   -5.94    5.19
  -4   0  -9    6.83    7.44
   4   0  10    9.10    7.39
  -4   0 -10   20.68   10.27
  -4   0 -11    7.88    9.72
   4   0  11    0.47    1.95
   4   0  12   12.15    7.06
  -4   0 -12   22.54   12.60
   4   0  13    5.21    5.57
  -4   0 -13    8.19    9.79
   4   0  14  229.12   36.44
   4   0  15    2.08    4.65
   4  -1 -22   16.50   17.94
   4   1 -22   22.85   17.44
   4  -1 -21    7.56    7.25
   4   1 -21   18.52   15.00
   4   1 -20   76.22   26.25
   4  -1 -20   59.62   23.18
   4  -1 -19   15.83   12.89
   4   1 -19   13.01   13.73
   4  -1 -18   66.84   21.84
   4   1 -18   88.30   24.23
  -4   1  17   49.39   13.51
   4  -1 -17   43.85   15.42
   4   1 -17   50.46   17.17
  -4   1  16  114.92   20.93
   4   1 -16  115.73   26.71
   4  -1 -16  113.51   25.98
  -4   1  15   -1.08    4.39
   4  -1 -15   -8.25   10.22
   4   1 -15    3.81    4.55
  -4   1  14    2.34    2.31
   4  -1 -14    3.53    5.36
   4   1 -14   -2.44    9.32
   4   1 -13   21.70    5.20
  -4   1  13   25.73    9.37
  -4   1  12   12.14    5.85
  -4   1  11   11.66    4.76
   4   1 -11   22.45    8.96
  -4   1  10   16.14    6.37
   4   1 -10   19.73    7.82
  -4   1   9  121.27   18.41
   4   1  -9  121.30   17.26
  -4   1   8   38.71   10.47
   4  -1  -8   35.31    9.45
   4   1  -8   31.21    7.56
   4   1  -7    7.21    3.82
   4  -1  -7    8.01    3.43
   4   1  -6  106.16   15.17
   4  -1  -6  115.42   17.01
   4  -1  -6  102.23    8.04
   4   1  -6  108.78   16.00
  -4  -1   6  103.93    8.17
  -4  -1   6  108.27   16.48
   4  -1  -5  187.28   12.85
  -4   1   5  192.52   13.07
  -4  -1   5  192.46   20.03
   4   1  -5  180.63   19.43
  -4  -1   5  196.14   12.99
   4  -1  -5  180.51   19.73
   4   1  -4 1054.94   34.69
  -4   1   4 1080.14   34.91
  -4  -1   4 1079.58   34.88
   4  -1  -4 1057.50   43.58
  -4  -1   4 1101.75   43.64
   4  -1  -4 1069.57   34.72
   4   1  -4 1084.00   43.53
  -4   1   3    3.57    1.81
   4   1  -3    3.24    2.76
  -4  -1   3    3.67    2.20
  -4  -1   3    5.93    2.38
   4  -1  -3    1.78    1.64
   4   1  -3   -0.17    2.72
   4  -1  -3    4.76    2.48
   4   1  -2 1443.76   47.57
  -4  -1   2 1420.15   37.70
  -4  -1   2 1478.30   47.70
   4   1  -2 1442.03   37.55
   4  -1  -2 1429.49   47.12
  -4   1   2 1446.56   47.39
   4   1  -1 1216.16   46.74
   4  -1  -1 1204.02   46.48
   4   1  -1 1156.94   26.16
   4   1  -1 1209.99   46.74
  -4  -1   0  884.57   46.76
   4   1   0  880.69   42.34
   4  -1   0  885.27   42.20
   4   1   0  846.15   37.53
  -4   1   0  921.35   44.95
  -4   1   0  940.34   43.15
   4  -1   1  334.44   27.55
   4   1   1  341.58   27.52
   4   1   1  321.76   22.67
  -4  -1  -1  334.90   23.39
  -4   1  -1  350.43   26.21
  -4  -1  -1  318.76   28.79
  -4   1  -1  340.18   28.02
   4   1   2    3.42    2.43
   4  -1   2    4.40    0.90
  -4  -1  -2    4.73    3.64
   4  -1   2    5.53    3.15
  -4   1  -3  524.04   32.97
   4   1   3  547.65   38.78
   4  -1   3  546.93   38.66
   4  -1   3  570.80   21.79
  -4  -1  -3  536.44   19.11
  -4  -1  -3  551.78   31.12
   4  -1   4   12.76    3.78
   4   1   4   13.52    5.96
  -4  -1  -4   12.34    3.71
   4  -1   4   13.38    5.92
   4   1   5  297.83   30.48
   4  -1   5  292.45   21.10
  -4  -1  -5  285.09   20.17
   4  -1   5  273.79   29.78
   4   1   6  115.66   19.36
   4  -1   6  109.93   14.40
   4  -1   6  109.65   19.60
  -4  -1  -6  103.75   13.47
  -4  -1  -7   -0.03    2.36
   4  -1   7    3.08    3.76
   4   1   7    1.30    1.48
   4   1   8  179.05   26.80
   4  -1   8  177.12   26.82
  -4  -1  -8  175.66   21.32
   4   1   9    2.60    5.67
   4  -1   9    3.11    1.86
  -4  -1  -9    7.65    5.95
   4   1  10  254.15   33.88
   4  -1  10  246.54   33.47
  -4  -1 -10  262.65   29.67
   4  -1  11    0.94    1.77
   4   1  11    1.68    3.66
  -4  -1 -11    5.68    7.96
  -4  -1 -12   12.03    9.00
   4   1  12    2.34    6.11
   4  -1  12    0.66    3.81
   4   1  13   97.47   22.92
   4  -1  13   91.14   21.61
  -4  -1 -13  108.51   22.51
   4   1  14    6.64    7.65
   4  -1  14    4.98    7.04
  -4  -1 -14    9.94   11.62
   4  -1  15    8.95    8.31
  -4  -1 -15   12.76   10.15
   4  -1  16   35.93   15.32
  -4  -1 -16   54.96   18.55
   4  -1  17    3.75    6.82
   4  -2 -22    2.45    3.40
   4   2 -22   20.90   18.61
   4  -2 -21  118.70   32.58
   4   2 -21  152.87   37.82
   4  -2 -20   11.83    8.60
   4   2 -20   18.69   14.13
   4  -2 -19   18.72   10.63
   4   2 -19   33.30   17.48
   4  -2 -18   57.82   19.70
   4   2 -18   68.06   23.58
  -4   2  17    5.46    4.96
   4  -2 -17   -7.08   11.34
   4   2 -17   12.01   12.59
  -4   2  16    6.63    5.45
   4  -2 -16   -6.16   11.54
   4   2 -16    4.49    5.80
  -4   2  15    7.40    5.25
   4   2 -15   10.37   10.20
   4  -2 -15    5.60    4.18
  -4   2  14   52.27   14.32
   4  -2 -14   35.04    8.74
   4   2 -14   55.11   16.44
  -4   2  13   78.97   16.73
   4  -2 -13   70.59   18.10
   4   2 -13   71.44   17.73
  -4   2  12   24.87    8.30
   4   2 -12   18.77    5.36
   4   2 -12   22.38    9.29
   4  -2 -12   33.16   13.25
  -4   2  11   21.67    8.12
   4   2 -11   28.12    9.29
  -4   2  10    6.12    4.95
   4   2 -10    0.11    2.41
   4   2  -9  856.01   44.90
  -4   2   9  918.55   53.45
  -4   2   8   46.46   11.05
   4   2  -8   52.74   11.10
  -4   2   7  242.46   26.22
   4   2  -7  260.42   24.10
   4  -2  -7  266.75   26.61
  -4  -2   7  238.86   11.64
   4  -2  -7  232.74   11.23
  -4   2   6  132.60   18.65
   4  -2  -6  123.34   17.71
  -4  -2   6  135.06   10.30
   4   2  -6  128.84   17.64
  -4  -2   6  141.99   19.23
   4  -2  -6  134.20   10.15
  -4  -2   5    1.14    1.04
   4  -2  -5    2.20    1.44
   4  -2  -5   -0.71    3.00
   4   2  -5    1.38    1.70
  -4  -2   5    1.24    0.75
  -4   2   4    2.13    1.60
  -4  -2   4    0.71    1.09
   4   2  -4   -1.38    1.97
   4  -2  -4    1.19    0.72
  -4  -2   3    6.03    3.27
  -4  -2   3    1.91    1.22
   4  -2  -3    4.26    2.80
  -4   2   3    5.91    3.48
   4   2  -3    9.20    4.61
   4   2  -2  538.22   29.70
  -4  -2   2  556.71   29.93
  -4   2   2  530.65   29.47
  -4  -2   2  547.75   24.41
   4  -2  -2  557.30   30.14
   4   2  -1  421.52   27.86
   4  -2  -1  441.04   29.52
   4   2  -1  419.01   25.98
  -4   2   1  440.39   30.26
   4  -2  -1  437.48   28.37
  -4  -2   1  430.85   17.71
   4   2   0 1662.04   58.51
  -4   2   0 1743.48   60.18
  -4  -2   0 1605.51   65.94
  -4   2   0 1665.01   60.04
   4   2   0 1684.01   51.41
   4  -2   0 1655.37   58.15
  -4   2  -1   21.45    7.87
  -4  -2  -1   29.34   10.31
  -4  -2  -1   13.08    3.37
   4   2   1   16.52    5.71
   4   2   1   26.19    8.54
   4  -2   1   19.42    6.98
  -4   2  -1   19.18    6.71
   4  -2   2    2.26    2.36
   4   2   2   -0.22    1.37
  -4  -2  -2   -0.77    3.30
   4  -2   3  141.14   19.67
  -4  -2  -3  143.44   10.41
   4  -2   3  153.72   12.35
   4   2   3  144.61   19.55
  -4  -2  -3  156.45   16.05
   4   2   4  318.42   30.50
   4  -2   4  315.30   30.52
   4  -2   4  312.95   20.64
  -4  -2  -4  322.82   18.90
   4   2   5  205.67   26.03
   4  -2   5  217.59   18.95
   4  -2   5  208.92   25.85
  -4  -2  -5  199.86   16.84
  -4  -2  -6  417.91   27.63
   4   2   6  421.14   38.48
   4  -2   6  433.78   29.79
   4  -2   6  449.86   39.09
   4   2   7   93.87   18.60
   4  -2   7   90.37   14.77
   4  -2   7   90.70   18.08
  -4  -2  -7   84.31   13.51
   4   2   8   35.12   11.70
  -4  -2  -8   27.68    8.26
   4  -2   8   32.50   10.76
   4   2   9   74.87   18.25
   4  -2   9   82.48   18.22
  -4  -2  -9   78.53   15.12
   4   2  10   15.95    9.30
   4  -2  10    9.82    4.96
  -4  -2 -10   12.17    6.06
   4  -2  11   68.59   18.04
  -4  -2 -11   73.54   16.99
   4   2  11   75.39   19.35
   4   2  12    7.42    8.21
   4  -2  12   -5.85    5.47
  -4  -2 -12   13.14    8.16
   4   2  13   23.53   11.21
  -4  -2 -13   29.21   11.67
   4  -2  13   17.25    8.49
  -4  -2 -14   44.85   15.19
   4  -2  14   32.27   13.51
   4   2  14   45.86   16.26
  -4  -2 -15   14.58    9.87
   4  -2  15   10.46    8.26
   4  -2  16    3.19    5.47
  -4  -2 -16   21.71   13.70
   4  -2  17   -0.13    2.84
   4  -3 -22   -3.82    8.34
   4   3 -22   27.24   19.76
   4  -3 -21    0.01    1.29
   4   3 -21   44.53   23.15
   4  -3 -20   45.62   19.89
   4   3 -20   50.68   21.86
   4  -3 -19   -5.21   11.37
   4   3 -19   21.91   16.00
   4  -3 -18   -5.65   11.62
   4   3 -18   16.05   15.79
  -4   3  17  172.67   28.58
   4   3 -17  174.77   34.96
   4  -3 -17  165.44   33.82
  -4   3  16   67.66   17.62
   4   3 -16   86.19   24.22
   4  -3 -16   66.23   18.22
  -4   3  15    8.98    5.86
   4  -3 -15   -3.89   12.92
   4   3 -15   24.32   13.75
  -4   3  14   47.02   14.25
   4  -3 -14   55.60   18.33
   4   3 -14   50.19   11.34
   4   3 -14   60.01   18.59
  -4   3  13  352.21   37.90
   4   3 -13  359.52   29.87
   4  -3 -13  357.48   43.16
   4   3 -13  341.54   41.78
  -4   3  12    0.09    1.61
   4   3 -12    9.42    7.17
   4  -3 -12   -0.63    3.08
   4   3 -12    3.23    5.46
  -4   3  11  270.30   32.08
   4   3 -11  274.05   25.50
  -4   3  10   28.10    9.39
   4   3 -10   28.47    7.14
   4   3  -9  288.16   25.25
  -4   3   9  280.38   30.48
   4   3  -8   12.84    4.97
  -4   3   8   10.82    3.78
   4  -3  -8   12.72    2.85
   4  -3  -7    2.80    1.50
  -4  -3   7    1.98    1.55
   4   3  -7    0.49    1.26
  -4   3   7    2.59    2.86
  -4   3   6   65.89   14.08
  -4  -3   6   70.22   13.96
   4  -3  -6   68.16   13.08
   4  -3  -6   71.86    8.41
   4   3  -6   71.05   13.46
  -4  -3   6   74.92    8.73
  -4  -3   5   21.26    5.21
  -4   3   5   15.22    6.08
   4  -3  -5   19.90    4.96
  -4  -3   5   13.18    4.08
   4   3  -5   21.59    7.78
  -4   3   4    9.05    4.08
   4   3  -4   17.65    6.61
  -4  -3   4   11.96    3.24
   4  -3  -4   13.84    4.18
  -4  -3   4   19.69    5.18
  -4  -3   3  300.57   21.75
  -4  -3   3  284.74   21.06
   4  -3  -3  285.30   21.08
  -4  -3   2  667.06   34.24
   4  -3  -2  647.03   33.80
  -4  -3   2  628.92   27.50
  -4   3   2  634.17   33.23
   4  -3  -1 1635.77   56.89
  -4  -3   1 1573.33   37.69
  -4   3   1 1725.76   62.34
   4  -3  -1 1679.81   55.23
  -4  -3   1 1603.15   65.28
   4   3   0   40.76    9.68
  -4   3   0   27.67    6.42
   4  -3   0   40.56    9.27
   4   3   0   33.83    4.96
  -4   3   0   38.16    7.79
  -4  -3   0   38.22    9.54
   4   3   1  189.90   21.06
  -4   3  -1  182.29   19.92
   4   3   1  177.42   15.57
  -4   3  -1  176.68   19.31
  -4  -3  -1  182.18   22.94
   4  -3   1  185.33   20.73
   4   3   2   22.80    7.24
   4  -3   2   16.99    5.97
  -4  -3  -2   13.11    3.17
  -4   3  -2   33.47   10.45
   4   3   3 1133.86   56.50
   4  -3   3 1173.69   37.32
   4  -3   3 1136.72   56.50
  -4  -3  -3 1136.31   40.66
   4   3   4  206.91   24.96
  -4  -3  -4  200.52   15.60
   4  -3   4  196.12   24.63
  -4  -3  -4  207.19   18.14
   4  -3   4  208.18   17.74
   4  -3   5    4.84    3.42
   4   3   5    8.33    4.57
  -4  -3  -5    6.46    2.57
   4  -3   5    1.43    1.57
   4   3   6   85.29   17.36
   4  -3   6   86.73   13.97
  -4  -3  -6   81.97   12.53
   4  -3   6   79.78   17.03
  -4  -3  -7   -2.50    3.94
   4   3   7    1.61    5.10
   4  -3   7    1.02    1.24
   4  -3   7   -0.32    1.23
   4  -3   8   61.46   15.35
  -4  -3  -8   49.31   10.53
   4   3   8   61.39   15.75
   4   3   9   65.00   17.19
  -4  -3  -9   55.71   11.97
   4  -3   9   56.27   15.50
  -4  -3 -10   -4.35    7.57
   4  -3  10    3.55    3.88
   4   3  10    3.90    5.85
   4  -3  11   10.89    5.52
  -4  -3 -11   12.60    3.51
   4  -3  12   49.50   15.47
  -4  -3 -12   59.32   15.30
  -4  -3 -13   40.99   13.34
   4  -3  13   39.50   14.27
   4   3  14    8.41   10.78
   4  -3  14   -1.04    0.54
  -4  -3 -14    6.05    5.58
  -4  -3 -15   22.12   11.37
   4  -3  15   13.92    9.96
   4  -3  16    1.40    1.09
  -4  -3 -16   17.23    9.64
   4  -3  17    4.76    6.77
   4  -4 -22    1.88    6.93
   4  -4 -21   14.14   12.23
   4  -4 -20   10.53    8.22
   4   4 -20   32.41   19.63
   4  -4 -19   10.91    7.41
   4   4 -19   45.42   21.21
  -4   4  18   49.75   15.83
   4  -4 -18   37.23   10.69
   4   4 -18   78.93   25.16
  -4   4  17   81.79   20.33
   4  -4 -17   64.54   19.31
   4   4 -17   89.41   25.70
   4   4 -16   76.48   23.70
  -4   4  16   67.89   18.23
   4  -4 -16   39.44   14.85
  -4   4  15  152.09   26.82
   4   4 -15  169.45   34.56
   4  -4 -15  147.27   31.47
  -4   4  14   42.16   13.60
   4  -4 -14   46.33   16.72
   4   4 -14   64.75   20.01
   4   4 -14   37.52    9.02
   4   4 -13   15.37    4.44
  -4   4  13   17.94    8.44
   4  -4 -13   19.38    8.60
   4   4 -13   33.44   14.87
  -4  -4  12   29.65    4.37
   4  -4 -12   38.21   14.11
   4   4 -12   37.30   10.23
   4   4 -12   37.91   14.45
  -4   4  12   34.75   12.76
  -4   4  11    8.78    6.89
   4   4 -11    5.59    3.61
  -4  -4  11    5.08    1.98
   4  -4 -11    5.33    1.74
   4   4 -10   15.39    4.80
  -4  -4  10   15.84    3.40
  -4   4  10   19.82    8.76
   4  -4 -10   15.01    3.34
   4   4  -9  221.27   21.83
  -4   4   9  242.42   29.44
   4   4  -8   37.48    8.28
  -4   4   8   36.44   10.74
  -4   4   7    4.63    5.00
   4  -4  -6    1.95    2.54
  -4   4   6    0.76    0.92
   4   4  -6    6.12    6.25
  -4   4   5   28.41    8.68
   4  -4  -5   35.06    7.10
  -4  -4   5   27.06    7.19
   4  -4  -4    9.42    4.14
  -4   4   4    8.15    3.86
  -4  -4   4   10.98    4.40
  -4  -4   3  118.68   14.34
  -4   4   3  120.16   17.45
  -4  -4   3  118.63   14.22
   4  -4  -3  118.62   14.01
  -4  -4   2    8.17    4.24
  -4  -4   2    8.00    4.54
  -4   4   2   -1.12    6.28
   4  -4  -2    5.98    3.07
  -4  -4   1  822.50   47.35
   4  -4  -1  826.65   41.87
   4  -4  -1  834.81   38.13
  -4   4   1  811.03   44.36
   4  -4   0  289.32   26.53
   4  -4   0  270.04   24.85
   4   4   0  276.61   19.11
  -4   4   0  280.53   26.43
  -4   4   0  276.62   22.19
  -4  -4   0  286.64   27.48
  -4   4  -1    5.70    6.05
   4  -4   1   -2.06    3.34
  -4   4  -1    6.25    5.59
  -4  -4  -1   11.42    8.35
   4   4   1    7.17    4.38
   4  -4   2    2.03    3.19
  -4  -4  -2    3.89    1.52
  -4  -4  -3  100.27   11.20
   4  -4   3  115.46   18.90
   4   4   4   46.51   12.16
   4  -4   4   44.97    9.16
  -4  -4  -4   54.89    9.37
   4  -4   4   42.02   11.51
  -4  -4  -5    5.83    1.98
   4   4   5    8.28    6.86
   4  -4   5    6.59    5.13
   4  -4   5    4.39    3.71
   4   4   6    6.13    5.48
   4  -4   6    2.26    0.61
   4  -4   6    0.26    3.79
  -4  -4  -6    1.95    1.30
   4   4   7   40.93   13.19
   4  -4   7   36.53   12.37
  -4  -4  -7   34.58    9.04
   4  -4   8   52.18   14.90
  -4  -4  -8   55.14   12.09
  -4  -4  -9   25.57    7.36
   4  -4   9   37.98   12.81
  -4  -4 -10   15.23    4.94
   4  -4  10   23.13    9.78
  -4  -4 -11   -5.09    9.01
   4  -4  11    1.98    2.67
  -4  -4 -12    4.98    3.28
   4  -4  12   10.43    5.50
   4  -4  13   36.11   14.20
  -4  -4 -13   34.46   12.66
   4  -4  14   -2.06    0.94
  -4  -4 -14   -1.90    1.59
   4  -4  15   14.52    9.98
  -4  -4 -15   15.89    8.96
   4  -4  16   10.21    9.69
  -4  -4 -16   13.11    9.84
   4  -4  17    1.71    3.32
   4  -5 -22   -0.03    8.42
   4  -5 -21   38.57   16.53
   4  -5 -20  -10.00   12.46
   4  -5 -19   30.28   11.40
  -4   5  18   20.47   11.05
   4  -5 -18    5.46    7.62
   4   5 -18   35.70   18.07
  -4   5  17    4.20    2.44
   4  -5 -17  -18.15   13.79
   4   5 -17   10.02   14.00
   4  -5 -16   76.20   24.11
  -4   5  16   61.29   17.98
   4   5 -16   76.16   23.10
  -4   5  15   87.58   21.22
   4  -5 -15   89.45   23.79
   4   5 -15  100.44   25.95
  -4   5  14   23.06   10.59
  -4  -5  14   22.09    4.46
   4  -5 -14   24.78   12.46
   4   5 -14   45.61   18.00
   4   5 -14   20.51    6.19
   4  -5 -13    7.49    2.55
   4  -5 -13    9.15    5.63
   4   5 -13    0.04    5.65
  -4   5  13    3.60    2.61
  -4  -5  13    8.48    2.94
  -4   5  12   -8.79    9.20
   4  -5 -12    0.91    3.89
   4   5 -12    4.50    4.90
  -4  -5  12    0.58    0.82
   4  -5 -12    0.49    0.77
   4   5 -12   10.25   12.01
  -4   5  11  117.08   21.10
   4   5 -11  133.34   16.06
  -4  -5  11  125.25   11.41
   4  -5 -11  127.61   11.21
   4   5 -10   44.83    9.66
  -4   5  10   29.72    8.50
   4   5  -9  156.35   18.21
  -4   5   9  148.46   23.80
  -4   5   8  294.39   32.68
  -4   5   7  388.17   36.49
  -4   5   6   86.87   17.23
  -4   5   5   61.23   14.15
  -4  -5   5   57.73   12.24
  -4   5   4  509.42   38.47
   4  -5  -4  470.53   29.25
  -4  -5   4  519.52   33.03
  -4   5   3   -2.09    3.35
   4  -5  -3   -0.65    2.61
  -4  -5   3    2.75    4.63
  -4   5   2 1167.28   56.36
  -4   5   2 1239.69   56.58
   4  -5  -2 1194.91   49.30
  -4   5   1  156.45   19.37
   4  -5  -1  166.97   16.75
  -4  -5   1  134.74   18.44
   4  -5  -1  169.22   19.06
   4  -5   0  123.16   17.18
  -4  -5   0  110.74   16.76
  -4   5   0  102.63   13.34
   4  -5   0  116.08   16.66
  -4   5   0  115.40   16.38
   4  -5   1   54.02   11.28
   4   5   1   49.29    7.47
  -4  -5  -1   62.04   15.29
   4  -5   1   51.58   11.72
  -4   5  -1   48.13    9.34
   4  -5   2   62.45   12.03
   4  -5   2   53.20   12.09
  -4  -5  -2   90.77   18.80
   4  -5   3    7.78    3.12
  -4  -5  -3    9.20    2.28
   4  -5   4   25.10    9.08
  -4  -5  -4   23.61    5.39
   4  -5   5  479.34   32.31
   4  -5   5  467.94   40.85
  -4  -5  -5  444.08   24.37
   4  -5   6   17.50    6.05
   4  -5   6   21.88    8.11
   4  -5   7    3.20    2.70
  -4  -5  -7   -2.27    4.46
   4  -5   8   27.62   11.54
  -4  -5  -8   26.07    8.43
   4  -5   9   15.41    9.93
  -4  -5  -9   10.39    5.60
  -4  -5 -10   35.94   11.62
   4  -5  10   38.11   14.08
   4  -5  11  101.44   21.69
  -4  -5 -11  101.67   18.85
  -4  -5 -12    5.77    2.67
   4  -5  12    9.63    6.58
  -4  -5 -13   -6.57    8.91
   4  -5  13    0.89    1.59
   4   5  14   52.53   18.29
   4  -5  14   35.48   14.77
  -4  -5 -14   35.62   11.74
   4   5  15   12.02   11.64
   4  -5  15    2.01    1.94
  -4  -5 -15    1.12    3.60
   4  -5  16   50.75   19.15
  -4  -5 -16   60.91   19.26
   4  -5  17   14.28   10.69
   4  -6 -22   29.91   15.71
   4  -6 -21   -4.22   10.14
   4  -6 -20  -13.22   15.55
   4  -6 -19   -5.55   14.52
  -4   6  18    3.76    5.91
   4  -6 -18  -17.02   12.77
   4  -6 -17    0.19    4.94
  -4   6  17    3.31    6.48
  -4   6  16   10.18    6.50
   4  -6 -16   14.22    8.79
   4  -6 -15    9.57    6.61
  -4   6  15   14.64    7.06
  -4  -6  14    5.91    2.75
  -4   6  14   -3.32    8.86
   4  -6 -14   -2.95    6.69
  -4  -6  13    0.21    1.22
   4  -6 -13   -5.01    7.75
   4  -6 -13   -0.18    0.59
  -4   6  13   -7.81    9.27
   4   6 -13   -5.40    4.51
   4   6 -12  112.17   14.74
   4  -6 -12  109.88   12.10
  -4   6  12  100.31   20.23
   4  -6 -12  107.15   23.81
  -4  -6  12  116.11   12.47
   4   6 -11   35.25    7.52
  -4  -6  11   37.62    7.40
  -4   6  11   28.27    9.01
   4   6 -10   15.49    5.65
  -4   6  10   11.53    2.31
   4   6  -9   18.91    5.86
  -4   6   9   18.48    6.72
  -4   6   8   -3.01    6.57
  -4   6   7  279.78   31.02
  -4   6   6  362.12   36.01
  -4   6   5   80.75   16.45
  -4  -6   5   86.07   15.32
  -4  -6   4  935.76   46.09
  -4   6   4  931.53   53.53
  -4   6   3  224.09   25.38
   4  -6  -2  122.71   16.68
  -4   6   2  121.82   18.76
  -4   6   2  130.68   18.47
   4  -6  -1  172.32   16.20
  -4   6   1  184.51   21.54
   4  -6  -1  173.05   20.45
  -4  -6   1  157.75   19.79
   4  -6   0  530.90   36.72
  -4  -6   0  500.80   38.42
   4  -6   0  499.64   36.36
   4  -6   1  139.10   18.36
   4  -6   1  118.82   18.51
  -4   6  -1  117.82   14.06
   4   6   1  115.87   10.29
  -4  -6  -1  120.04   19.47
   4  -6   2  560.34   36.62
   4  -6   2  516.86   39.71
  -4  -6  -2  538.65   41.51
   4  -6   3   26.61    7.81
   4  -6   3   22.59    7.92
   4  -6   4   -2.22    5.13
   4  -6   4   -0.58    4.37
  -4  -6  -4   -2.80    3.24
   4  -6   5   61.96   11.74
   4  -6   5   75.15   13.56
   4  -6   5   60.55   14.29
  -4  -6  -5   73.64    9.11
   4  -6   6   88.11   18.57
   4  -6   7   29.78   11.73
  -4  -6  -8  411.81   34.98
   4  -6   8  426.48   42.94
   4  -6   9   35.13   13.12
  -4  -6  -9   34.45   10.38
  -4  -6 -10  184.34   25.68
   4  -6  10  192.21   30.91
  -4  -6 -11   30.86   11.73
   4  -6  11   27.50   11.85
  -4  -6 -12  -10.15    9.85
   4  -6  12    0.26    5.01
  -4  -6 -13   54.45   16.24
   4  -6  13   51.97   17.09
   4   6  14   54.17   20.33
  -4  -6 -14   27.98    8.94
   4  -6  14   41.07   15.29
   4  -6  15   12.78    7.71
  -4  -6 -15    9.72    6.41
   4   6  15   25.39   14.28
  -4  -6 -16    4.60    4.16
   4  -6  16    7.37    8.66
   4  -6  17    5.98    6.40
   4  -7 -22   16.68   13.47
   4  -7 -21   -8.97   10.61
   4  -7 -20    6.84    5.60
  -4   7  19    1.91    4.75
   4  -7 -19  -10.58   12.03
  -4   7  18   84.55   23.49
   4  -7 -18   82.96   25.67
   4  -7 -17   25.87   12.46
  -4   7  17   29.37   11.77
  -4   7  16   79.42   20.49
   4  -7 -16   83.79   24.82
   4  -7 -15    9.11    6.02
  -4   7  15    5.76    2.25
  -4   7  14   30.08   10.47
   4  -7 -14   33.67   13.55
  -4  -7  14   40.57    8.10
  -4  -7  13   31.19    7.03
  -4   7  13   31.31   11.38
   4  -7 -13   30.82    6.80
   4   7 -13   40.38    9.04
   4  -7 -13   36.97   14.17
   4   7 -12   16.40    5.38
   4  -7 -12    8.55    5.91
   4  -7 -12   16.60    5.39
  -4   7  12    7.31    1.49
  -4  -7  12   18.87    5.72
   4   7 -11   55.38    9.87
  -4   7  11   54.54   14.48
   4   7 -10   79.16   12.29
  -4   7  10   63.87   15.25
  -4   7   9   16.73    5.95
  -4   7   8   88.50   18.27
  -4   7   7   37.97   10.70
  -4   7   6  128.62   20.68
  -4   7   5   96.79   18.22
   4  -7  -5  100.88   17.67
  -4   7   4  266.93   29.33
  -4   7   3    4.12    3.43
   4   7  -3  -17.13   12.20
  -4   7   2 1071.86   56.63
  -4   7   1   11.01    5.54
   4  -7  -1   15.07    5.23
   4  -7  -1   12.52    5.46
   4  -7  -1   16.49    7.35
  -4  -7   0  266.94   28.58
   4  -7   0  283.88   27.40
   4  -7   0  277.27   27.76
  -4   7   0  280.46   27.31
  -4   7  -1   -0.02    1.09
  -4  -7  -1    5.26    7.34
   4  -7   1   -3.49    4.90
   4  -7   1   -1.23    2.38
   4   7   1   -1.77    3.17
   4  -7   2    0.65    2.79
   4  -7   2    3.19    2.58
   4  -7   3   -1.08    1.18
   4  -7   3    1.52    1.76
   4  -7   4  635.75   39.00
   4  -7   4  589.93   46.08
   4  -7   5   71.14   12.84
   4  -7   5   65.04   15.11
  -4  -7  -5   59.40    7.32
   4  -7   6   21.19    6.39
   4  -7   6   12.10    6.23
   4  -7   7   45.86   14.46
   4  -7   7   47.87   10.20
   4  -7   8   41.17    9.09
   4  -7   8   45.82   14.62
   4  -7   9    1.02    2.67
   4  -7   9    3.84    5.74
  -4  -7  -9    0.58    3.24
  -4  -7 -10  137.74   23.11
   4  -7  10  133.80   26.48
   4  -7  11   21.56   10.67
  -4  -7 -11   18.73    8.70
  -4  -7 -12    8.30    2.37
   4  -7  12    8.51    6.92
  -4  -7 -13   17.43    6.85
   4  -7  13   34.33   14.37
   4   7  14   29.46   16.02
  -4  -7 -14   11.64    4.66
   4  -7  14   10.90    6.07
  -4  -7 -15  -12.60    9.97
   4  -7  15    1.52    5.11
   4   7  15    2.85    6.92
   4  -7  16   95.01   25.01
  -4  -7 -16  100.76   24.67
   4  -7  17    9.12    6.97
   4  -8 -22  -10.36   13.20
   4  -8 -21   28.61   13.33
   4  -8 -20   35.53   14.34
   4  -8 -19    7.51   10.80
  -4   8  19    4.62    4.03
   4  -8 -18    7.91   11.18
  -4   8  18   -6.12   10.66
  -4   8  17    1.49    7.53
   4  -8 -17   12.80    9.79
   4  -8 -16   72.29   22.55
  -4   8  16   66.42   19.54
  -4   8  15   16.46    7.28
   4  -8 -15   10.99    5.98
  -4  -8  14   61.02   10.86
   4  -8 -14   59.57   18.71
  -4   8  14   61.14   17.40
  -4  -8  13   18.87    6.11
   4  -8 -13   21.59    6.42
  -4   8  13    7.78    5.43
   4   8 -13   19.97    6.39
   4  -8 -13   12.81    1.86
  -4  -8  12   14.97    6.12
  -4   8  12    5.57    1.86
   4   8 -12   11.15    3.68
   4   8 -11    3.37    1.92
  -4   8  11   -4.46    8.00
   4   8 -10   36.86    8.18
  -4   8  10   33.25   11.14
  -4   8   9   -0.63    3.79
  -4   8   8  111.09   20.95
  -4   8   7  947.37   62.45
  -4   8   6   11.82    0.60
   4  -8  -6   11.89    2.71
  -4   8   5  116.23   20.59
   4  -8  -5  113.53   18.23
  -4   8   4   16.98    3.90
   4  -8  -4   23.02    6.92
  -4   8   3  225.90   26.82
  -4   8   2  208.44   25.95
  -4   8   1  409.37   35.05
   4  -8  -1  396.55   21.22
  -4   8   0   63.27   13.48
   4  -8   0   65.33   13.10
  -4  -8   0   60.10   12.17
   4  -8   0   65.13   14.35
   4  -8   1  388.14   31.95
   4   8   1  343.80   16.96
  -4  -8  -1  392.84   35.49
   4  -8   1  355.86   33.68
  -4   8  -1  368.59   23.06
  -4   8  -2    7.59    5.97
   4  -8   2    1.75    4.18
   4  -8   2   -3.91    4.52
   4  -8   3  130.89   17.56
   4  -8   3  129.33   21.58
   4  -8   4  133.49   17.85
   4  -8   4  128.63   21.94
   4  -8   5   -0.61    1.67
  -4  -8  -5   -1.34    1.81
   4  -8   5    2.21    2.63
   4  -8   6  139.98   18.26
   4  -8   6  140.62   24.35
  -4  -8  -6  126.52   10.48
   4  -8   7   13.79    5.32
   4  -8   7    9.48    5.25
   4  -8   8   46.70   10.02
   4  -8   8   48.64   15.76
   4  -8   9   76.54   12.23
  -4  -8  -9   62.08   14.65
   4  -8   9   75.87   18.83
  -4  -8 -10   58.47   14.12
   4  -8  10   72.79   19.25
  -4  -8 -11   22.13    9.14
   4  -8  11   29.49   13.54
   4  -8  12   18.21   10.71
  -4  -8 -12   19.38   10.88
  -4  -8 -13  192.67   31.63
   4  -8  13  185.78   33.27
   4   8  14   21.53   15.89
  -4  -8 -14    2.25    7.87
   4  -8  14   15.50   10.14
   4  -8  15   23.82   13.03
  -4  -8 -15   12.50    2.39
   4   8  15   24.07   15.13
  -4  -8 -16   -2.17    8.14
   4  -8  16    2.05    5.61
   4  -9 -21  -12.42   18.56
   4  -9 -20   12.52   14.13
  -4   9  19    2.30    7.62
   4  -9 -19   11.22   11.98
   4  -9 -18   20.07   13.62
  -4   9  18   20.99   11.00
  -4   9  17   51.85   17.60
   4  -9 -17   55.14   19.01
   4  -9 -16   14.81    9.23
  -4   9  16   13.13    6.04
  -4   9  15   18.25   10.00
   4  -9 -15   10.54    4.43
   4  -9 -14    0.49    6.43
  -4   9  14    5.29    7.01
  -4  -9  14    7.56    3.59
  -4  -9  13   30.03    8.72
  -4   9  13   24.76   11.49
  -4   9  12   -3.19    7.33
   4   9 -12   -1.67    2.90
  -4   9  11  493.60   49.48
   4   9 -11  455.16   29.20
  -4   9  10   82.03   19.33
  -4   9   9  123.63   23.55
  -4   9   8   22.55    9.04
  -4   9   7  102.49   20.96
   4  -9  -7  104.04   17.36
  -4   9   6  190.51   28.00
   4  -9  -6  188.10   24.36
  -4   9   5  708.64   53.86
   4  -9  -5  724.54   47.30
  -4   9   4   -3.89    5.79
   4  -9  -4    1.21    1.82
  -4   9   3  517.77   43.29
   4  -9  -3  488.90   36.87
  -4   9   2   56.06   14.21
  -4   9   1   14.78    6.47
  -4   9   0    4.42    4.38
  -4  -9   0  -12.31   10.06
   4  -9   1  378.32   32.61
  -4   9  -1  372.97   21.96
  -4  -9  -1  379.77   35.28
  -4   9  -1  378.48   33.32
   4  -9   1  369.70   35.47
   4  -9   2   48.61   11.09
   4  -9   2   54.75   14.09
  -4   9  -2   56.84   10.22
  -4  -9  -2   68.07   16.66
   4  -9   3   35.78    9.38
   4  -9   3   31.42   10.50
   4  -9   4   62.86   11.73
   4  -9   4   68.43   15.99
   4  -9   5   66.38   11.90
   4  -9   5   66.65   16.53
   4  -9   6   -2.15    3.60
   4  -9   6   -2.22    4.31
   4  -9   7   34.76   11.73
  -4  -9  -7   38.98    5.81
   4  -9   7   33.25    7.90
   4  -9   8   -0.17    3.23
   4  -9   8   -1.95    6.71
   4  -9   9  135.24   26.60
   4  -9  10   16.34   11.28
  -4  -9 -10   13.29    6.24
  -4  -9 -11   27.41   10.60
   4  -9  11   21.13   11.23
   4  -9  12   49.06   16.90
  -4  -9 -12   49.28   16.07
   4   9  13   55.64   21.48
   4  -9  13   35.47   15.51
  -4  -9 -13   26.90    9.98
   4   9  14   23.56   15.87
   4  -9  14    7.80    6.88
  -4  -9 -14    7.05    6.97
  -4  -9 -15   -7.10    7.22
   4  -9  15    0.70    4.49
   4   9  15   10.85   12.48
   4   9  16   18.45   12.96
   4  -9  16   14.10    9.10
   4 -10 -21   30.95   14.85
   4 -10 -20   -0.49    5.02
   4 -10 -19   29.01   14.37
  -4  10  19   18.03   11.13
  -4  10  18   -6.39   10.87
   4 -10 -18   -3.61    4.67
   4 -10 -17    9.94    8.64
  -4  10  17    7.96    3.92
   4 -10 -16   25.61   13.45
  -4  10  16   30.71   13.34
  -4  10  15  111.86   26.17
   4 -10 -15  112.45   28.70
   4 -10 -14   17.26    7.18
  -4  10  14   12.92    9.13
  -4 -10  14   19.94    7.57
  -4 -10  13    5.16    5.06
  -4  10  13   -2.91    9.61
   4  10 -12    0.20    1.74
  -4  10  12   -4.66    6.47
   4  10 -11   37.06    7.67
  -4  10  11   36.43   13.46
  -4  10  10  195.71   31.74
  -4  10   9  113.07   23.60
  -4  10   8   44.16   14.19
   4 -10  -8   31.17    6.36
  -4  10   7  442.67   44.84
   4 -10  -7  447.96   38.82
  -4  10   6    3.09    0.95
   4 -10  -6   -1.33    9.83
  -4  10   5    8.47    3.34
   4 -10  -5    8.84    2.05
  -4  10   4   29.29   10.17
   4 -10  -4   45.01   11.81
  -4  10   3   67.03   14.94
   4 -10  -3  102.10   18.14
  -4  10   2   35.48   10.63
   4 -10  -2   23.70    4.08
  -4  10   1    4.65    4.42
  -4  10   0   11.77    5.80
  -4 -10   0   -7.96   10.10
  -4  10  -1  225.19   26.53
  -4 -10  -1  218.21   27.38
  -4  10  -2   18.55    7.02
   4 -10   2   22.36   10.45
  -4 -10  -2   25.08   12.63
  -4  10  -2   27.04    6.60
   4 -10   3  415.46   40.84
   4 -10   3  422.19   33.65
  -4 -10  -3  378.21   39.70
   4 -10   4    2.37    2.60
   4 -10   4    6.38    5.77
   4 -10   5    0.74    2.24
   4 -10   5   -2.07    2.57
   4 -10   6  190.15   20.73
   4 -10   6  185.70   29.36
   4 -10   7   32.03    8.37
   4 -10   7   34.34   12.36
   4 -10   8   68.26   17.69
   4 -10   8   72.57   12.37
  -4 -10  -8   66.53    7.27
   4 -10   9   14.81    7.67
   4 -10  10   10.14    8.49
  -4 -10 -11   -0.66    1.60
   4 -10  11    3.84    5.76
  -4 -10 -12    0.39    4.13
   4 -10  12    9.15    8.04
   4 -10  13  165.59   32.84
  -4 -10 -13  179.48   31.21
   4  10  13  179.95   36.65
   4 -10  14    6.23    7.33
  -4 -10 -14    5.52    4.27
   4  10  14   15.58   13.51
  -4 -10 -15  153.25   31.54
   4 -10  15  139.71   31.07
   4  10  15  150.04   34.90
   4 -10  16   -2.53    3.11
   4  10  16   10.52   10.65
   4 -11 -21    6.12   12.01
   4 -11 -20    5.64    9.06
  -4  11  20    1.93    5.47
  -4  11  19    4.39    3.42
   4 -11 -19    7.05    9.16
  -4  11  18    7.41    4.12
   4 -11 -18   10.39    9.69
  -4  11  17   22.19   12.35
   4 -11 -17   11.41    7.90
  -4  11  16   -4.63    8.74
   4 -11 -16    1.66    7.24
  -4  11  15   17.40    9.64
   4 -11 -15    7.57    6.86
  -4 -11  14   34.98   10.47
  -4  11  14   36.67   14.25
  -4  11  13    0.82    1.74
   4  11 -12   85.48   11.60
  -4  11  12   93.34   22.46
  -4  11  11  130.38   27.02
  -4  11  10   -3.99    6.53
  -4  11   9  215.13   33.15
   4 -11  -9  212.01   28.79
  -4  11   8   85.68   19.67
   4 -11  -8   80.62   16.88
  -4  11   7  194.32   30.62
   4 -11  -7  182.69   24.42
  -4  11   6  212.87   31.43
   4 -11  -6  209.73   26.08
   4 -11  -5    2.55    3.56
  -4  11   5   -3.91    5.56
  -4  11   4  101.49   20.27
   4 -11  -4  124.97   19.67
  -4  11   3  198.00   28.05
   4 -11  -3  222.58   26.31
  -4  11   2  173.16   25.34
   4 -11  -2  167.14   12.54
  -4  11   1   11.05    7.29
  -4  11   0  173.12   24.24
  -4 -11   0  160.25   22.89
  -4  11  -1  131.22   21.19
  -4 -11  -1  135.88   22.51
  -4  11  -2    1.50    1.09
   4 -11   2    8.27    7.26
  -4  11  -2    2.51    1.73
  -4 -11  -3   78.45   19.41
   4 -11   3   61.52   16.38
   4 -11   4   14.80    7.05
   4 -11   4   16.60   10.51
   4 -11   5   93.25   20.98
   4 -11   5   91.60   15.69
   4 -11   6    2.55    2.65
   4 -11   6    6.43    5.01
   4 -11   7   10.84    5.66
   4 -11   7    9.27    7.02
   4 -11   8    7.95    4.32
   4 -11   8   16.92    6.85
   4 -11   9   -4.84    6.82
   4 -11  10  120.01   26.49
   4 -11  11  305.89   42.78
   4 -11  12    1.96    4.20
  -4 -11 -12   -3.83    6.22
   4  11  13    7.70   11.45
   4 -11  13   -2.62    4.95
  -4 -11 -13    0.81    4.23
   4 -11  14   32.52   15.15
  -4 -11 -14   36.87   15.23
   4  11  14   49.43   21.86
   4 -11  15    4.28    6.98
  -4 -11 -15   -0.07    5.76
   4  11  15    9.38   13.92
   4 -11  16   41.52   18.01
   4  11  16   38.29   17.22
   4 -12 -21   28.81   20.33
   4 -12 -20   -2.67    4.48
  -4  12  20   -4.57    7.25
   4 -12 -19    0.25    8.51
  -4  12  19   -0.91    8.70
   4 -12 -18    9.38    2.67
  -4  12  18   16.26   10.58
  -4  12  17   -2.57   10.23
   4 -12 -17   -7.29   12.33
   4 -12 -16   65.99   22.78
  -4  12  16   70.55   21.57
  -4  12  15   53.88   18.69
  -4 -12  14   90.38   17.92
  -4  12  14   91.91   25.86
  -4  12  13   21.47    8.72
  -4  12  12   53.96   17.35
  -4  12  11   40.87   15.79
  -4  12  10  118.30   25.71
   4 -12 -10  110.25   20.30
  -4  12   9  168.28   29.70
   4 -12  -9  147.48   23.69
  -4  12   8    2.39    4.81
   4 -12  -8  -16.56   11.92
  -4  12   7   50.51   15.59
   4 -12  -7   30.76    6.88
  -4  12   6  204.29   31.65
   4 -12  -6  201.02   25.98
  -4  12   5   18.92    8.68
   4 -12  -5   23.73    9.07
  -4  12   4  277.43   34.41
   4 -12  -4  279.35   29.39
  -4  12   3   60.13   15.91
   4 -12  -3  128.55   21.40
   4 -12  -2   79.55    7.66
  -4  12   2   91.46   17.93
  -4  12   1    1.84    1.25
  -4 -12   0   -5.62    7.89
  -4  12   0   12.18    7.65
  -4  12  -1  281.42   31.30
  -4 -12  -1  288.90   33.27
  -4  12  -2   85.17   16.57
  -4 -12  -2  104.48   20.34
  -4  12  -2   80.12    8.85
  -4 -12  -3   18.90   11.51
  -4  12  -3    7.44    3.94
  -4  12  -3   20.91    6.80
   4 -12   3   11.83    8.51
   4 -12   4   29.21   12.46
   4 -12   5    8.49    8.43
   4 -12   5   20.43    9.24
   4 -12   6  149.55   20.33
   4 -12   6  159.94   28.41
   4 -12   7   99.03   15.97
   4 -12   7  103.32   23.06
   4 -12   8   35.73   13.77
   4 -12   9  127.76   26.51
   4 -12  10   -1.07    5.79
   4 -12  11   13.81    9.78
   4  12  12   35.47   19.65
  -4 -12 -12    9.57    4.60
   4 -12  12   17.64    9.94
   4 -12  13   -0.01    1.71
  -4 -12 -13    0.64    5.37
   4 -12  14    2.77    6.95
  -4 -12 -14   -3.12    4.46
   4  12  14    6.06    9.88
   4 -12  15   -4.44    5.90
   4  12  15    0.56    8.84
  -4 -12 -15    2.13    6.09
   4  12  16   -0.03    4.83
   4 -12  16   -4.13    2.40
  -4  13  20   -4.02   10.25
   4 -13 -20    1.72    6.94
   4 -13 -19   -0.02    7.28
  -4  13  19   -0.44    4.34
  -4  13  18   -1.06    5.72
   4 -13 -18   -1.85    5.80
   4 -13 -17    2.06    5.73
  -4  13  17    3.81    6.05
   4 -13 -16   75.69   23.97
  -4  13  16   78.10   24.47
  -4  13  15    3.71    2.47
  -4  13  14   23.29   11.65
  -4 -13  14   25.47   10.59
  -4  13  13   15.16   11.29
   4 -13 -12  -21.21   14.32
  -4  13  12   -1.01    0.35
   4 -13 -11   72.79   15.42
  -4  13  11   89.70   23.95
  -4  13  10  233.47   36.98
   4 -13 -10  189.24   28.37
  -4  13   9   75.11   20.19
   4 -13  -9   52.41    9.82
  -4  13   8    3.48    5.13
   4 -13  -8   -7.64   12.72
  -4  13   7   -0.75    2.93
   4 -13  -7    2.27    3.41
  -4  13   6  169.28   29.39
   4 -13  -6  161.47   22.82
   4 -13  -5   45.67   13.12
  -4  13   5   29.82   10.80
  -4  13   4  544.23   49.86
   4 -13  -4  519.63   40.45
  -4  13   3   48.63   14.40
  -4  13   2  292.91   35.85
  -4  13   1  292.59   34.35
  -4 -13   0    5.83    6.82
  -4  13   0   14.15    7.94
  -4  13  -1   12.69    6.70
  -4 -13  -1   11.10    4.88
  -4 -13  -2   83.38   19.33
  -4  13  -2   77.93   16.78
   4 -13   3  161.77   28.04
  -4  13  -3  175.11   14.61
  -4  13  -3  176.20   24.25
  -4 -13  -3  193.60   28.96
   4 -13   4  111.97   23.54
  -4 -13  -4  124.08   25.43
   4 -13   5    5.13    6.62
   4 -13   6    3.35    5.27
   4 -13   6   -1.94    5.64
   4 -13   7   -0.15    3.79
   4 -13   7   -4.30    5.65
   4 -13   8   55.83   18.04
   4 -13   9  130.26   27.53
   4 -13  10   42.41   15.41
   4 -13  11   -6.22    6.70
   4  13  12   40.19   22.34
   4 -13  12   20.96   12.48
   4  13  13   20.80   16.32
   4 -13  13   15.86   10.32
  -4 -13 -13   16.52    8.96
   4  13  14   33.96   20.42
  -4 -13 -14   12.53    8.60
   4 -13  14   23.87   11.58
   4 -13  15   35.05   16.46
  -4 -13 -15   29.36   13.28
   4  13  15   38.42   18.83
   4 -13  16   73.12   23.58
   4  13  16   85.19   27.84
   4 -14 -20   28.17   17.61
  -4  14  20   31.50   17.08
   4 -14 -19   76.12   27.51
  -4  14  19   64.05   22.92
  -4  14  18   15.97   11.55
   4 -14 -18   21.77   15.73
  -4  14  17    8.13    5.77
   4 -14 -17   14.96   10.46
  -4  14  16   73.60   22.32
  -4  14  15   18.86   10.99
  -4  14  14   10.63    5.37
  -4  14  13   78.76   23.40
   4 -14 -13   64.95   16.61
  -4  14  12  151.13   30.79
   4 -14 -12  136.71   23.47
  -4  14  11   -5.28    7.20
   4 -14 -11   -6.64    8.35
   4 -14 -10   22.55    2.40
  -4  14  10   57.40   19.40
  -4  14   9    6.25    7.85
   4 -14  -9   -2.85   10.32
  -4  14   8  183.28   31.79
   4 -14  -8  185.82   25.93
  -4  14   7  116.92   25.23
   4 -14  -7  113.32   19.02
  -4  14   6  288.72   39.11
   4 -14  -6  292.32   31.22
   4 -14  -5   37.77   13.04
  -4  14   5    8.52    5.19
  -4  14   4   47.80   14.98
  -4  14   3   13.39    6.89
  -4  14   2  189.96   29.41
  -4  14   1   92.56   19.70
  -4  14   0  185.12   27.61
  -4 -14   0  184.57   26.28
  -4  14  -1  106.53   20.58
  -4 -14  -1  104.03   18.62
  -4  14  -2    1.78    1.55
  -4 -14  -2   10.95    7.85
  -4  14  -3    1.48    1.15
  -4  14  -3    3.18    1.24
  -4 -14  -4   49.61   18.13
   4 -14   4    7.97    9.00
   4 -14   5   71.69   20.04
   4 -14   6   76.22   14.45
   4 -14   6   86.29   21.76
   4 -14   7   29.66   12.74
   4 -14   8  105.36   25.05
   4 -14   9    0.04    0.63
   4 -14  10   30.68   13.89
   4 -14  11   10.56    7.03
   4  14  12   44.15   20.70
   4 -14  12   20.12   11.62
   4 -14  13    5.92    4.04
  -4 -14 -13    8.81    3.50
   4  14  13   21.04   16.58
  -4 -14 -14   -1.21    2.61
   4 -14  14   -2.96    3.49
   4 -14  15   47.34   19.63
  -4 -14 -15   27.77   14.56
   4  14  15   45.48   22.96
   4 -14  16    3.21    2.44
   4  14  16   -2.16    5.38
   4  14  17    6.62    9.92
  -4  15  20    4.80    6.20
   4 -15 -20    9.19    8.12
   4 -15 -19    4.95    8.30
  -4  15  19    8.61    9.09
   4 -15 -18    1.02    6.80
  -4  15  18    7.54    9.79
  -4  15  17   38.47   17.44
   4 -15 -17   35.77   16.41
   4 -15 -16    3.75    7.03
  -4  15  16   17.93   11.63
  -4  15  15   -2.43    9.07
   4 -15 -15   -4.52    9.84
  -4  15  14   10.34    7.67
   4 -15 -14    2.99    5.93
  -4  15  13    4.67    7.81
   4 -15 -13   -4.80    8.15
  -4  15  12   95.85   26.20
   4 -15 -12   76.14   18.40
  -4  15  11  299.73   46.41
   4 -15 -11  278.47   33.82
  -4  15  10  158.28   31.83
   4 -15 -10  141.74   21.99
  -4  15   9  292.70   43.29
   4 -15  -9  272.11   32.18
  -4  15   8   81.94   22.35
   4 -15  -8   91.06   18.22
   4 -15  -7   25.36   10.31
  -4  15   7   20.55   11.64
  -4  15   6   -2.30    7.23
   4 -15  -6   36.10   13.61
   4 -15  -5   61.82   16.87
  -4  15   5    3.45    6.07
  -4  15   4   62.71   17.44
  -4  15   3   -2.17    5.70
  -4  15   2    0.88    6.09
  -4  15   1   -5.31    7.14
  -4  15   0   -0.92    7.25
  -4  15  -1   16.85    8.75
  -4 -15  -1   -5.22   11.96
  -4 -15  -2  172.68   27.02
  -4  15  -2  172.72   26.68
  -4  15  -3   52.99   14.08
  -4 -15  -3   87.02   20.41
  -4  15  -4   71.03   15.75
   4 -15   4   89.98   22.33
  -4  15  -4   79.70   10.52
  -4 -15  -4  109.66   24.73
  -4 -15  -5  107.35   24.89
   4 -15   5   66.13   19.04
   4 -15   6    7.05    8.70
   4 -15   7   37.14   14.61
   4 -15   8   92.10   24.06
   4 -15   9   79.70   22.05
   4 -15  10    2.63    2.56
   4 -15  11   72.89   21.60
   4  15  11  108.05   31.05
   4  15  12   27.55   16.86
   4 -15  12   12.65    8.01
   4 -15  13   10.92    9.94
   4  15  13   20.98   14.90
   4 -15  14   11.16    8.57
  -4 -15 -14   10.84    8.37
   4  15  14   16.22   13.40
   4  15  15    3.80    9.30
   4 -15  15    2.47    4.41
   4 -15  16   -2.48    4.30
   4  15  16    1.12    3.01
   4  15  17   46.10   22.39
  -4  16  20   -3.87    9.60
  -4  16  19   25.44   13.41
   4 -16 -19   34.69   19.51
   4 -16 -18    0.20    2.72
  -4  16  18   -0.05    4.64
  -4  16  17    7.98    7.29
  -4  16  16   16.22   13.33
   4 -16 -16   15.37    7.20
   4 -16 -15   36.81   12.91
  -4  16  15   42.63   19.79
  -4  16  14   12.97   10.30
   4 -16 -14    3.63    4.70
  -4  16  13   83.11   26.21
   4 -16 -13   55.61   15.04
  -4  16  12   30.32   16.97
   4 -16 -12    8.34    9.20
  -4  16  11  120.89   29.77
   4 -16 -11   98.06   17.71
  -4  16  10  131.25   29.97
   4 -16 -10   99.44   19.28
  -4  16   9  215.88   37.82
   4 -16  -9  239.49   29.46
   4 -16  -8   29.76   11.02
  -4  16   8   16.85   10.78
  -4  16   7   61.23   20.01
   4 -16  -7  109.95   20.42
  -4  16   6   56.36   18.35
   4 -16  -6  117.14   21.49
  -4  16   5  202.55   33.62
  -4  16   4   10.71    8.86
  -4  16   3   80.77   19.72
  -4  16   2   23.85   10.04
  -4  16   1  240.12   33.59
  -4  16   0   -7.82    9.34
  -4  16  -1  119.02   23.12
  -4 -16  -1   99.06   18.46
  -4  16  -2    7.55    4.83
  -4 -16  -2    6.18    3.53
  -4  16  -3   47.30   13.74
  -4 -16  -3   62.21   17.53
  -4  16  -4   23.13    9.46
  -4  16  -4   24.54    5.23
  -4 -16  -5   89.43   23.10
   4 -16   5   68.68   20.53
   4 -16   6   13.52    9.14
   4 -16   7   13.22   10.17
   4 -16   8    3.53    4.63
   4 -16   9    0.01    2.94
   4  16  10   22.36   16.51
   4 -16  10   17.42   11.10
   4  16  11   35.48   20.90
   4 -16  11   15.65    9.59
   4  16  12   29.93   17.78
   4 -16  12   27.43   15.14
   4 -16  13   88.14   26.68
   4  16  13   88.07   30.11
  -4 -16 -14   26.79   14.12
   4 -16  14   42.20   18.95
   4  16  14   41.81   19.77
   4  16  15   40.57   20.19
   4 -16  15   32.46   15.82
   4 -16  16    1.83    4.21
   4  16  16   11.79   12.24
   4  16  17   -0.96    5.26
  -4  17  21    7.60   11.21
  -4  17  20   -1.05    8.52
  -4  17  19   68.82   25.50
   4 -17 -19   65.63   26.64
   4 -17 -18   -0.18    6.77
  -4  17  18    3.80    2.98
  -4  17  17   42.17   20.43
  -4  17  16   -1.06    1.96
  -4  17  15   11.49    9.49
   4 -17 -15   -8.60   10.88
  -4  17  14   17.16   13.69
   4 -17 -14   11.90    2.51
  -4  17  13    0.85    4.09
   4 -17 -13  -19.18   12.80
   4 -17 -12   48.02   12.76
  -4  17  12   66.48   22.56
  -4  17  11   44.28   18.60
   4 -17 -11   25.00    8.53
  -4  17  10  247.47   42.80
   4 -17 -10  244.59   30.77
  -4  17   9  104.22   26.94
   4 -17  -9  115.01   20.44
   4 -17  -8   39.15   13.66
  -4  17   8   10.69    9.52
  -4  17   7   -0.74    4.66
   4 -17  -7   43.60   15.14
  -4  17   6    0.02    4.15
  -4  17   5   20.41   11.64
  -4  17   4  108.78   24.89
  -4  17   3   58.14   17.22
  -4  17   2  133.74   26.42
  -4  17   1   65.26   17.55
  -4  17   0   -6.72    8.79
  -4  17  -1  135.28   25.27
  -4 -17  -1  110.50   20.13
  -4  17  -2   -1.49    1.46
  -4 -17  -2   -4.31    7.99
  -4  17  -3  149.29   25.44
  -4 -17  -3  148.23   25.79
  -4  17  -4   50.30   14.07
  -4 -17  -4   65.59   18.05
  -4 -17  -5   30.43   15.01
   4 -17   5   16.60   11.94
   4 -17   6   30.24   15.64
  -4 -17  -6   65.69   23.03
   4 -17   7  154.83   31.63
   4 -17   8   79.37   23.44
   4 -17   9   12.26    9.53
   4  17  10   42.92   22.28
   4 -17  10   20.08   11.62
   4 -17  11   97.88   26.83
   4  17  11  125.29   34.53
   4 -17  12   -3.09   10.50
   4  17  12   12.51   15.33
   4  17  13   59.08   24.94
   4 -17  13   24.75   13.37
   4 -17  14    9.62   11.28
   4  17  14   13.82   11.93
   4 -17  15   -2.94    1.70
   4  17  15    9.80   14.22
   4  17  16    4.87    6.83
   4 -17  16   11.39    9.75
   4  17  17   22.97   15.71
  -4  18  20   -0.82    4.85
  -4  18  19    7.82    8.13
  -4  18  18    5.99    8.81
  -4  18  17   -0.87    7.09
  -4  18  16   37.23   18.86
  -4  18  15   -0.06    4.32
  -4  18  14   46.00   20.08
   4 -18 -14   42.54   11.87
  -4  18  13    4.62    7.35
   4 -18 -13    3.91    4.42
  -4  18  12   10.66   10.59
   4 -18 -12    9.52    6.65
   4 -18 -11    1.51    5.12
  -4  18  11    0.54    6.11
  -4  18  10   24.54   13.09
   4 -18 -10   30.16   11.63
   4 -18  -9   17.49   10.64
  -4  18   9    4.24    6.39
  -4  18   8    3.71    0.95
   4 -18  -8   43.23   15.16
  -4  18   7   -2.26    7.55
  -4  18   6    6.70    6.91
  -4  18   5   40.73   14.63
  -4  18   4   -0.37    4.68
  -4  18   3   39.97   15.57
  -4  18   2    9.13    4.37
  -4  18   1   34.30   12.95
  -4  18   0  106.14   22.55
  -4 -18  -1   90.12   15.89
  -4  18  -1   97.67   21.34
  -4  18  -2    3.70    4.46
  -4 -18  -2  -10.90   10.21
  -4  18  -3    9.53    7.34
  -4 -18  -3   13.17    7.81
  -4  18  -4   52.61   14.99
  -4 -18  -4   61.47   18.70
  -4 -18  -5   23.12   14.10
   4 -18   5    8.35   11.16
  -4  18  -5   -4.56    7.25
  -4 -18  -6  411.64   47.90
   4 -18   6  366.05   49.80
   4 -18   7   81.22   23.62
   4 -18   8   24.65   12.50
   4  18   9   38.64   22.24
   4 -18   9   27.65   14.08
   4  18  10   60.24   25.66
   4 -18  10   37.23   17.79
   4 -18  11   29.07   15.75
   4  18  11   27.64   19.48
   4 -18  12    0.16    3.43
   4  18  12   18.29   15.60
   4 -18  13   -0.88    5.44
   4  18  13    9.75   11.18
   4 -18  14    7.37   10.40
   4  18  14   21.81   16.33
   4 -18  15   12.73   10.81
   4  18  15   14.22   13.39
   4 -18  16    2.80    6.78
   4  18  16    3.64   10.50
  -4  19  19   31.10   17.64
  -4  19  18   39.82   18.84
  -4  19  17    1.52    3.76
  -4  19  16   45.10   21.81
  -4  19  15    5.40    8.31
  -4  19  14   35.97   18.23
  -4  19  13   23.94   15.57
   4 -19 -13   21.81   10.86
  -4  19  12    3.43    7.53
   4 -19 -12    2.75    4.39
   4 -19 -11   16.41   10.08
  -4  19  11   -2.54    4.03
  -4  19  10   37.41   18.09
   4 -19 -10   79.05   18.56
   4  19 -10   59.03   15.51
   4 -19  -9   27.86   12.28
  -4  19   9    5.42    5.45
  -4  19   8   13.49   11.59
  -4  19   7    4.83    5.60
  -4  19   6    0.21    2.92
  -4  19   5    3.56    3.20
  -4  19   4    1.29    0.83
  -4  19   3  175.53   33.08
  -4  19   2  252.23   37.21
  -4  19   1   61.55   17.65
  -4  19   0   20.78    7.64
  -4  19  -1   -0.17    9.80
  -4  19  -2   17.80   10.05
  -4 -19  -2   -3.93    9.44
  -4  19  -3    4.67    2.48
  -4 -19  -3    5.53    1.59
  -4  19  -4    4.55    3.40
  -4 -19  -4   16.82   11.46
  -4 -19  -5   14.22   11.39
  -4  19  -5   -2.84    5.33
  -4 -19  -6   28.03   16.84
   4 -19   6    7.79    8.96
   4 -19   7    5.12    8.16
  -4 -19  -7   32.09   17.01
   4  19   8   55.05   24.08
   4 -19   8   35.97   16.36
   4  19   9   10.84   13.02
   4 -19   9   -2.54    6.17
   4  19  10   62.03   25.67
   4 -19  10   51.99   20.49
   4 -19  11    5.90    6.09
   4  19  11    6.57   10.84
   4  19  12   46.41   22.55
   4 -19  12   31.66   16.75
   4 -19  13    5.76    6.29
   4  19  13    4.01    7.22
   4 -19  14   25.78   16.30
   4  19  14   34.30   19.93
   4 -19  15    3.00    6.76
   4  19  15    7.33   12.74
   4  19  16   11.02   13.60
   4 -19  16    0.78    4.85
  -4  20  18   -6.33   11.26
  -4  20  17   -1.81    4.12
  -4  20  16   13.34   10.26
  -4  20  15   16.03   15.77
  -4  20  14   13.73   10.65
  -4  20  13   22.78   13.45
  -4  20  12   57.04   23.79
   4 -20 -12   79.54   18.81
   4 -20 -11   35.77   13.93
  -4  20  11   20.18   10.77
  -4  20  10   50.84   22.28
   4 -20 -10  104.44   21.80
  -4  20   9  138.86   33.78
   4  20  -9  149.56   25.40
  -4  20   8   95.28   27.62
  -4  20   7    3.90    4.07
  -4  20   6  276.08   45.04
  -4  20   5   29.34   11.56
  -4  20   4    0.83    4.81
  -4  20   3   51.58   17.86
  -4  20   2    1.85    2.46
  -4  20   1   48.61   16.23
  -4  20   0   -5.03    9.11
  -4  20  -1   -7.54    8.99
  -4  20  -2    6.84    6.25
  -4 -20  -2  -13.95   13.56
  -4  20  -3   17.09   10.21
  -4 -20  -3    6.43    3.48
  -4  20  -4   -0.16    4.37
  -4 -20  -4    1.02    4.02
  -4  20  -5   -1.97    3.10
  -4 -20  -5    7.44    9.73
  -4 -20  -6  178.76   33.56
   4 -20   6  161.28   34.03
   4  20   7   76.12   28.38
  -4 -20  -7   71.73   22.89
   4 -20   7   49.83   19.17
   4  20   8   20.37   18.17
  -4 -20  -8   49.11   21.54
   4 -20   8   23.01   13.21
   4 -20   9   10.46   10.76
   4  20   9   15.08   16.57
   4 -20  10    5.47    7.58
   4  20  10   24.68   16.33
   4 -20  11   16.78   11.43
   4  20  11   34.65   21.37
   4 -20  12    4.82    2.31
   4  20  12   15.63   15.97
   4 -20  13   19.27    9.97
   4  20  13   40.64   22.15
   4 -20  14    6.40    5.87
   4  20  14   26.16   19.13
   4 -20  15    7.86   11.07
   4  20  15    1.84    6.11
  -4  21  18    0.99    6.29
  -4  21  17   26.63   18.33
  -4  21  16   -4.86    4.45
  -4  21  15   19.33   12.12
  -4  21  14   -3.57    2.19
  -4  21  13   17.48   12.68
  -4  21  12   19.27   14.12
  -4  21  11   87.22   28.34
   4 -21 -11  117.14   22.90
  -4  21  10    0.24    7.98
  -4  21   9  106.75   30.12
   4  21  -9  127.64   24.09
   4  21  -8   19.67   12.66
  -4  21   8   -1.87    2.71
  -4  21   7   93.31   26.97
  -4  21   6    2.25    3.50
  -4  21   5   34.25   15.32
  -4  21   4  167.65   33.36
  -4  21   3  215.11   37.68
  -4  21   2    8.46    5.14
  -4  21   1    2.13    5.77
  -4  21   0   20.86   10.25
  -4  21  -1   22.37    8.39
  -4 -21  -2    3.31   12.36
  -4  21  -2   26.56   12.61
  -4 -21  -3  111.89   23.17
  -4  21  -3  124.60   25.93
  -4 -21  -4    9.68    5.78
  -4  21  -4   11.46    7.58
  -4  21  -5  156.50   27.90
  -4 -21  -5  158.58   29.53
   4  21   6   22.69   20.05
  -4 -21  -6   23.08   14.00
   4 -21   6    3.84    7.73
   4  21   7   17.24   18.94
   4 -21   7    1.74    7.00
  -4 -21  -7   17.66   14.82
   4  21   8   19.37   16.95
   4 -21   8   10.24    9.41
  -4 -21  -8   35.95   17.94
   4 -21   9   49.63   21.00
  -4 -21  -9   71.63   25.02
   4  21   9   60.80   26.02
   4 -21  10    7.51    8.29
   4  21  10   11.57   12.21
   4 -21  11   24.40   13.86
   4  21  11   29.17   18.11
   4 -21  12   10.14    9.91
   4  21  12    5.86    8.29
   4 -21  13   13.55   10.88
   4  21  13   13.46   13.29
   4 -21  14   -7.27   12.28
   4  21  14    9.70    7.93
   4 -21  15    0.32    3.98
  -4  22  17   -5.53   10.56
  -4  22  16   -3.64    6.79
  -4  22  15    8.44   11.21
  -4  22  14   26.75   18.83
  -4  22  13    5.24    4.34
  -4  22  12    8.94   13.57
  -4  22  11   17.31   15.34
  -4  22  10   70.15   24.95
  -4  22   9   43.27   20.69
  -4  22   8    5.20    6.48
   4  22  -8   13.86   11.74
  -4  22   7  109.19   30.06
   4  22  -7  115.50   26.02
   4  22  -6   82.80   22.88
  -4  22   6   62.04   22.15
  -4  22   5  188.54   37.87
  -4  22   4    1.21    3.93
  -4  22   3   52.62   18.62
  -4  22   2   44.24   16.79
  -4  22   1  166.95   33.05
  -4  22   0   25.78   11.45
  -4  22  -1  131.03   27.62
  -4  22  -2    0.30    6.77
  -4 -22  -3  -13.51   11.57
  -4  22  -3    2.22    3.62
  -4 -22  -4   -8.03    8.96
  -4  22  -4   -3.87    5.46
  -4  22  -5   94.11   22.30
   4  22   5   90.95   28.27
  -4 -22  -5  101.09   24.40
   4  22   6   31.94   20.41
  -4 -22  -6   41.07   16.52
   4 -22   6   25.68   15.67
  -4 -22  -7  136.94   30.02
   4 -22   7  107.23   29.96
   4  22   7  127.91   36.83
   4 -22   8   -1.99    4.29
   4  22   8   11.29   13.54
  -4 -22  -9   34.40   18.41
   4 -22   9    8.39    9.28
   4  22   9   11.01   13.21
   4 -22  10   -0.99    4.14
  -4 -22 -10   29.46   19.56
   4  22  10    8.23   13.86
   4  22  11   41.75   22.60
   4 -22  11   53.05   22.20
   4 -22  12    4.65    5.68
   4  22  12    2.39    7.73
   4 -22  13   38.16   19.13
   4  22  13   46.70   23.20
   4 -22  14    5.91    6.74
   4 -22  15    2.25    3.90
  -4  23  16   26.94   18.16
  -4  23  15   11.98   11.11
  -4  23  14   21.25   16.83
  -4  23  13    0.28    5.38
  -4  23  12   -1.83    6.46
  -4  23  11    5.22    8.62
  -4  23  10    7.26    8.37
  -4  23   9   33.18   18.80
  -4  23   8   17.36   13.46
   4  23  -8   19.90   11.92
  -4  23   7   17.28   12.91
   4  23  -7   23.02   15.02
   4  23  -6   37.31   17.21
  -4  23   6   18.01   11.28
  -4  23   5   10.10    6.61
   4  23  -5   23.59   15.16
  -4  23   4  135.56   32.37
   4  23  -4  149.55   31.60
   4  23  -3   83.40   24.80
  -4  23   3   61.67   21.36
  -4  23   2   59.95   19.66
  -4  23   1    5.80    5.49
  -4  23   0   43.27   16.90
   4  23   1   64.69   26.18
  -4  23  -1   40.16   14.68
  -4  23  -2   62.92   18.80
   4  23   2   94.68   29.56
  -4  23  -3   67.58   20.21
   4  23   3   92.87   29.38
  -4 -23  -3   46.78   11.86
  -4 -23  -4    3.91    7.39
   4  23   4   27.90   17.88
  -4  23  -4   16.69   10.43
   4  23   5   32.61   19.15
  -4 -23  -5   12.92    6.46
   4  23   6   24.78   18.05
  -4 -23  -6    8.43    8.23
  -4 -23  -7   15.65   11.48
   4 -23   7   15.41   13.17
   4  23   7   22.75   19.36
  -4 -23  -8   32.16   16.13
   4 -23   8   20.80   14.43
   4  23   8   42.03   21.57
   4  23   9   27.96   17.65
   4 -23   9   22.82   14.58
  -4 -23  -9   36.00   17.81
  -4 -23 -10   48.66   20.65
   4 -23  10   12.71   11.68
   4  23  10   20.46   15.54
  -4 -23 -11  121.32   33.36
   4 -23  11  106.46   31.81
   4  23  11  106.46   35.04
   4 -23  12   31.02   17.40
   4  23  12   23.55   18.49
   4 -23  13   15.91   12.13
   4 -23  14   -3.50    6.30
  -4  24  15    1.48    3.10
  -4  24  14   33.82   19.71
  -4  24  13   23.39   16.09
  -4  24  12   28.52   15.25
  -4  24  11   45.16   20.41
  -4  24  10    2.77    4.54
  -4  24   9   -1.80    4.30
  -4  24   8   10.87   11.89
  -4  24   7   36.30   17.20
   4  24  -7   40.16   16.29
  -4  24   6   74.08   24.27
   4  24  -6  102.17   25.85
   4  24  -5   53.81   19.09
  -4  24   5   37.62   16.67
   4  24  -4   29.69   17.09
  -4  24   4   19.18   10.88
   4  24  -3   31.98   19.18
  -4  24   3    9.96    9.09
  -4  24   2   28.89   13.96
   4  24  -2   39.61   18.74
   4  24  -1   29.15   17.78
  -4  24   1    1.55    0.86
   4  24   0   37.58   18.64
  -4  24   0   10.25    2.96
   4  24   1   93.26   29.66
  -4  24  -1   56.17   17.65
   4  24   2    9.75   13.00
  -4  24  -2    6.70    6.20
   4  24   3   32.68   20.23
  -4  24  -3    3.08    3.29
  -4 -24  -4    6.53    9.62
  -4  24  -4   23.05   11.34
   4  24   4   43.09   22.16
   4  24   5   24.02   18.70
  -4 -24  -5   13.21    7.40
  -4 -24  -6   29.78   13.52
   4  24   6   47.71   25.52
   4 -24   7   39.41   18.56
  -4 -24  -7   54.32   19.17
   4  24   7   56.38   25.13
   4 -24   8   89.19   28.93
   4  24   8   79.41   29.44
  -4 -24  -8   81.44   24.15
  -4 -24  -9   17.74   15.89
   4 -24   9    4.17    9.37
   4  24   9   10.27   15.40
  -4 -24 -10   39.27   20.29
   4 -24  10   15.49   11.53
   4  24  10   17.80   16.56
   4 -24  11   13.64   12.22
   4  24  11    5.87   12.06
  -4 -24 -12   45.56   23.50
   4 -24  12    0.10    4.97
   4 -24  13   -3.47    7.78
  -4 -24 -13   42.42   24.00
  -4  25  13   14.15   12.02
  -4  25  12    8.57   10.40
  -4  25  11    5.36   11.33
  -4  25  10    2.65    2.44
  -4  25   9    0.02    3.98
  -4  25   8   19.75   11.70
  -4  25   7   27.01   16.52
   4  25  -7   31.15   14.39
  -4  25   6   48.31   21.13
   4  25  -6   47.75   18.26
   4  25  -5   25.67   13.91
  -4  25   5   10.42    5.60
  -4  25   4   56.88   20.67
   4  25  -4   80.96   24.65
  -4  25   3   51.19   20.38
   4  25  -3   66.29   23.60
  -4  25   2   35.82   16.65
   4  25  -2   63.90   23.13
   4  25  -1   17.92   15.17
  -4  25   1   -5.62    8.95
   4  25   0   14.69   14.67
  -4  25   0   -2.85    9.28
   4  25   1   33.52   19.29
  -4  25  -1    0.78    2.48
   4  25   2   97.00   29.26
  -4  25  -2   83.46   23.75
  -4  25  -3    6.70    7.29
   4  25   3   18.35   15.74
  -4 -25  -4  -14.20   14.16
   4  25   4   14.63   16.53
  -4 -25  -5    7.03    2.85
   4  25   5   34.35   19.27
  -4 -25  -6    6.17    1.84
   4  25   6    4.42   10.05
   4  25   7    6.88   11.30
  -4 -25  -7    8.65    7.96
   4 -25   7   -3.01    7.59
  -4 -25  -8    6.53    9.82
   4 -25   8    3.97    8.36
   4  25   8   11.73   15.41
  -4 -25  -9   19.34   13.97
   4  25   9    0.75    6.22
   4 -25   9   10.83   13.38
   4 -25  10   20.59   15.73
  -4 -25 -10   43.72   21.78
   4  25  10   26.55   18.24
   4 -25  11    3.52    7.40
  -4 -25 -11   30.13   17.91
  -4 -25 -12   49.87   23.48
  -4 -25 -13   27.06   20.95
  -4  26  12   35.15   21.59
  -4  26  11   -5.55    9.53
  -4  26  10   14.14   15.31
  -4  26   9   -4.37    6.74
  -4  26   8   14.79   12.55
  -4  26   7   -5.97    1.00
  -4  26   6   -3.47    3.07
   4  26  -6   10.26    9.64
  -4  26   5    5.64    8.24
   4  26  -5    3.46    6.84
  -4  26   4   13.26    8.84
   4  26  -4   26.07   14.30
  -4  26   3   -2.84    5.40
   4  26  -3   16.42   15.24
  -4  26   2    4.62    1.09
   4  26  -2   18.85   15.30
   4  26  -1    4.41   10.69
  -4  26   1  -11.89   12.55
  -4  26   0   18.26    6.41
   4  26   0   36.41   20.37
  -4  26  -1    5.45    4.44
   4  26   1   40.20   22.43
  -4  26  -2   12.05    7.69
   4  26   2   13.44   14.16
  -4  26  -3   25.01   12.86
   4  26   3   43.64   23.07
   4  26   4    7.91   11.68
   4  26   5   97.54   32.56
   4  26   6   34.41   19.96
   4 -26   7   16.15   14.11
   4  26   7   24.38   17.54
   4 -26   8   26.50   16.70
   4  26   8   24.55   16.53
   4 -26   9    8.03   10.93
   4  26   9   -2.67    6.09
   4 -26  10    6.22   12.00
  -4  27  11   12.18   12.63
  -4  27  10   32.09   20.97
  -4  27   9   26.00   16.56
  -4  27   8   10.24   10.59
  -4  27   7   17.03   11.93
  -4  27   6   -3.93   10.02
   4  27  -6    7.25    9.30
  -4  27   5    0.60    8.15
   4  27  -5   12.57   10.21
  -4  27   4   -0.79    1.14
   4  27  -4    4.89   10.75
  -4  27   3    8.15    8.66
   4  27  -3   21.13   14.60
  -4  27   2    1.38    4.82
   4  27  -2   11.15   13.43
  -4  27   1   32.23   15.72
   4  27  -1   58.22   22.31
  -4  27   0   -1.94    8.17
   4  27   0   28.05   16.64
  -4  27  -1   85.35   25.37
   4  27   1  129.75   35.46
  -4  27  -2    0.99    6.33
   4  27   2   19.95   16.03
   4  27   3   54.87   24.46
   4  27   4    5.87    8.30
   4  27   5   38.77   20.72
   4  27   6   13.54   14.18
   4 -27   7    8.04   11.63
   4  27   7   14.31   12.45
   4 -27   8    9.68   13.48
   4 -27   9    5.14    9.67
  -4  28  10   -0.35    5.76
  -4  28   9    0.37    7.02
  -4  28   8   10.51   10.13
  -4  28   7   13.81   12.56
  -4  28   6   22.52   13.35
  -4  28   5    0.99    1.91
   4  28  -5    5.92    7.45
   4  28  -4    9.08   10.80
  -4  28   4    6.26    9.27
  -4  28   3    9.29    8.90
   4  28  -3   14.46   11.79
  -4  28   2   40.20   17.77
   4  28  -2   49.48   20.94
   4  28  -1   27.02   16.35
  -4  28   1   16.38    8.98
  -4  28   0   -0.17    7.94
   4  28   0   20.97   17.61
   4  28   1   59.95   24.48
  -4  28  -1   50.60   19.87
  -4  28  -2    2.71    3.72
   4  28   2    9.27    9.27
   4  28   3   26.90   16.70
   4  28   4    9.69   13.48
   4  28   5    0.86    9.86
   4  28   6    2.56    6.38
   4 -28   7   12.31   14.43
  -4  29   8   10.64   10.98
  -4  29   7   -9.37   12.70
  -4  29   6   14.20   14.19
  -4  29   5    8.75    6.72
   4  29  -5   10.97    8.32
  -4  29   4   26.10   15.52
   4  29  -4   32.06   15.69
  -4  29   3   -1.56    7.44
   4  29  -3   10.44    8.78
  -4  29   2    1.18    1.18
   4  29  -2   17.81   12.80
  -4  29   1   11.68    9.82
   4  29  -1   23.49   13.64
  -4  29   0   11.98    4.01
   4  29   0   21.45   14.35
  -4  29  -1   -2.18    5.58
   4  29   1   15.84   15.74
   4  29   2   -0.71    5.23
   4  29   3   27.67   16.83
   4  29   4    8.70   10.07
   4  29   5   13.79   13.05
  -4  30   7    2.26    7.95
  -4  30   6   18.14   11.95
  -4  30   5    1.76    5.84
  -4  30   4   10.38   10.69
   4  30  -4   12.01   10.78
  -4  30   3   -2.65    9.43
   4  30  -3   12.07   10.39
   4  30  -2    0.13    4.31
  -4  30   2   -3.65    4.50
  -4  30   1   14.89   11.14
   4  30  -1   31.22   18.33
  -4  30   0   -0.78    8.33
   4  30   0    6.62    9.24
   4  30   1    2.40    8.58
  -4  30  -1    0.25    6.83
   4  30   2   17.50   12.98
   4  30   3   16.29   13.41
  -4  31   5  -12.29   14.13
  -4  31   4    3.21    8.12
   4  31  -4    0.06    8.69
  -4  31   3    0.14    6.42
   4  31  -3    1.38    5.20
   4  31  -2   -3.06    2.33
  -4  31   2   -1.29    4.02
  -4  31   1  -10.72   12.33
   4  31  -1    8.82   10.56
  -4  31   0   -3.01   10.46
   4  31   0    4.15    6.62
   4  31   1   -4.78    5.40
   4  31   2    8.77    8.97
  -4  32   4   -6.25    6.65
  -4  32   3   -2.21    7.50
   4  32  -3   -4.46   10.43
   4  32  -2    7.16   12.39
  -4  32   2    0.73    9.85
  -4  32   1   -6.85   10.05
   4  32  -1    7.93    7.68
  -4  32   0    2.41    7.77
   4  32   0    0.26    3.58
  -4  33   2  -11.94   16.15
   4  33  -2   -3.59    8.47
  -4  33   1   -5.07   11.83
   5   0 -22   13.56   14.78
   5   0 -21   56.55   23.23
   5   0 -20    4.20    9.20
   5   0 -19   68.03   22.91
   5   0 -18   -5.78    8.77
   5   0 -17   -1.13    6.45
   5   0 -16   -2.51    7.01
   5   0 -15    8.67    0.75
   5   0 -14   -5.07    9.55
   5   0 -13   87.36   18.70
   5   0 -12  -13.10   11.88
   5   0  -9    8.21    5.37
   5   0  -8   -8.56    8.67
   5   0  -7   94.07   15.85
  -5   0   7  100.99    9.16
   5   0  -6    1.61    1.79
  -5   0   6   -0.35    1.09
   5   0  -6    0.69    2.32
  -5   0   5  140.07   13.66
   5   0  -5  138.15   13.71
   5   0  -5  129.95   16.98
  -5   0   4    0.46    1.42
   5   0  -4   -1.23    2.50
   5   0  -4   -1.00    1.53
  -5   0   3    5.16    3.21
   5   0  -3    5.34    3.23
   5   0  -3    3.25    1.84
  -5   0   2    0.27    1.40
   5   0  -2   -4.18    2.84
   5   0  -2    0.59    1.64
   5   0  -2   -4.59    6.07
   5   0  -1 1396.87   30.89
   5   0  -1 1365.46   56.31
   5   0  -1 1435.10   56.79
   5   0   0   -1.03    2.67
  -5   0   0   -3.12    5.26
  -5   0   0   -3.28    5.58
   5   0   0    7.80    5.60
   5   0   1 1222.95   50.48
   5   0   1 1368.57   61.27
  -5   0  -1 1388.27   56.45
  -5   0  -1 1312.27   61.78
  -5   0  -2    8.07    9.07
   5   0   2    1.99    3.52
  -5   0  -2   -0.53    3.16
  -5   0  -3   16.04    7.71
   5   0   3    3.91    3.31
   5   0   4   -0.63    0.87
   5   0   5   66.98   16.17
   5   0   6   -3.82    6.31
   5   0   7    2.40    2.90
   5   0   8   -2.70    6.24
   5   0   9   17.30    9.15
   5   0  10   -3.84    5.95
   5   0  11    1.97    1.86
   5   0  12    3.02    5.67
   5   0  13   46.61   18.60
   5   0  14    6.91    9.38
   5   0  15   51.18   18.15
   5  -1 -22   18.44   15.69
   5   1 -22   13.64   15.71
   5  -1 -21   23.84   15.50
   5   1 -21   24.54   16.97
   5  -1 -20   22.61   14.83
   5   1 -20   40.23   18.86
   5  -1 -19   15.80   10.55
   5   1 -19   19.84   14.86
   5  -1 -18   20.78    9.72
   5   1 -18   22.38   14.13
   5  -1 -17   47.25   16.37
   5   1 -17   48.89   19.40
   5  -1 -16   58.19   15.38
   5   1 -16   82.12   21.81
   5   1 -15   25.94   10.69
   5  -1 -15   25.98    6.08
   5  -1 -14  -10.93   10.72
   5   1 -14   -2.08    2.60
   5  -1 -13  -13.02   13.14
   5   1 -13  -14.67   10.67
   5  -1 -12   34.81   10.87
   5   1 -12   37.25   11.02
   5   1 -11    6.23    6.35
   5  -1  -9   92.13   18.16
   5   1  -9   93.26   17.63
   5   1  -8  176.21   23.43
   5  -1  -8  181.01   24.18
  -5  -1   8  164.71    9.51
   5  -1  -7   13.66    3.33
   5  -1  -7   12.09    5.73
   5   1  -7    7.12    2.54
  -5  -1   7   12.45    3.13
   5  -1  -6   25.77    5.31
  -5   1   6   24.07    5.33
   5  -1  -6   23.80    7.40
  -5  -1   6   14.97    5.69
   5   1  -6   20.96    6.36
  -5  -1   6   22.20    4.93
   5   1  -5    3.57    2.67
  -5  -1   5    2.19    2.01
  -5  -1   5    0.53    0.53
   5   1  -5    4.82    3.98
   5  -1  -5    0.86    1.23
   5  -1  -5    2.17    2.16
  -5   1   5    1.87    1.24
   5   1  -4   79.98   11.36
   5  -1  -4   75.33   11.10
  -5  -1   4   79.97   11.80
   5  -1  -4   72.19   11.30
   5   1  -4   72.12   11.15
  -5  -1   4   77.03   10.93
  -5   1   4   71.60   10.69
   5   1  -3  639.41   34.47
  -5   1   3  638.88   34.08
   5  -1  -3  627.50   33.74
   5   1  -3  634.48   29.79
  -5  -1   3  650.36   34.48
   5  -1  -3  624.04   30.43
  -5  -1   2   17.08    6.06
   5   1  -2   22.19    6.49
   5  -1  -2   13.65    1.59
   5   1  -2   20.31    4.76
   5   1  -2    6.97    5.43
   5  -1  -2   19.32    4.40
   5  -1  -2   20.05    6.05
  -5   1   2   19.08    5.98
   5   1  -1  156.71   19.09
   5  -1  -1  163.58   11.18
   5  -1  -1  162.18   19.04
   5  -1  -1  175.58   22.06
   5   1  -1  145.46   17.51
   5  -1  -1  149.87   17.98
  -5   1   0   12.84    3.53
   5  -1   0   21.95    8.92
  -5  -1   0    8.42    3.74
   5   1   0   14.77    5.68
   5  -1   0   16.53    6.22
   5   1   0   21.68    7.18
  -5   1   0    9.08    2.48
   5  -1   1  439.60   34.58
   5   1   1  413.42   34.22
  -5  -1  -1  429.95   30.54
  -5   1  -1  435.89   32.48
  -5  -1  -1  412.60   35.38
   5   1   1  424.73   29.38
  -5   1  -1  408.05   35.43
  -5   1  -2   14.51    9.39
   5   1   2    1.70    3.56
   5  -1   2    5.86    4.43
  -5  -1  -2    3.10    2.33
  -5  -1  -2   20.23   10.14
  -5   1  -2    5.89    3.59
   5  -1   3   34.14    4.91
   5   1   3   38.89   10.67
  -5  -1  -3   42.91   10.14
   5  -1   3   42.58   11.02
   5   1   4   49.33   13.34
   5  -1   4   63.42   14.74
  -5  -1  -4   70.83   14.12
   5   1   5   66.56   15.92
   5  -1   5   62.80   15.35
   5   1   6   41.50   13.04
  -5  -1  -6   46.05    8.91
   5  -1   6   39.28   11.92
   5   1   7  124.20   23.09
   5  -1   7  123.86   23.19
  -5  -1  -7  125.25   16.10
   5  -1   8   -5.63    7.08
   5   1   8   -0.38    4.01
  -5  -1  -8    7.82    6.18
   5   1   9    1.95    0.97
   5  -1   9   -2.03    6.08
  -5  -1  -9   10.06    7.50
   5   1  10    1.56    3.93
   5  -1  10   -4.95    6.74
  -5  -1 -10   10.65    8.21
   5   1  11  160.57   29.74
   5  -1  11  171.39   30.48
  -5  -1 -11  204.57   26.91
   5   1  12    2.16    4.85
  -5  -1 -12   20.16   11.78
   5  -1  12    6.96    6.78
   5   1  13  391.82   49.18
   5  -1  13  402.92   49.75
   5   1  14   67.46   21.27
   5  -1  14   61.74   19.47
   5  -1  15    1.91    5.94
   5  -1  16   36.46   16.35
   5  -1  17   13.69   11.77
   5  -2 -22   12.52    9.99
   5   2 -22   10.42   12.87
   5   2 -21   45.68   22.12
   5  -2 -21   28.11   15.17
   5  -2 -20    2.60    5.94
   5   2 -20   23.87   17.45
   5  -2 -19   16.21    9.24
   5   2 -19   21.49   13.84
   5  -2 -18   33.87   13.80
   5   2 -18   63.81   22.31
  -5   2  17    0.86    4.85
   5  -2 -17  -16.32   15.73
   5   2 -17    8.61   11.75
  -5   2  16   -2.62    6.79
   5  -2 -16   -8.84   11.66
   5   2 -16    1.57    6.67
  -5   2  15    0.71    5.60
   5  -2 -15  -16.26   16.19
   5   2 -15    2.64    7.46
  -5   2  14   11.05    4.96
   5  -2 -14    3.90    6.29
   5   2 -14   19.49   10.94
  -5   2  13   22.49    7.98
   5  -2 -13   14.91    4.72
   5   2 -13   11.66    2.00
  -5   2  12  562.79   47.50
   5  -2 -12  536.69   51.66
   5   2 -12  540.98   50.86
  -5   2  11    0.02    2.82
   5  -2 -11    1.23    3.73
   5   2 -11   -2.33    4.58
  -5   2  10   -1.51    5.42
   5   2 -10   -0.06    3.08
  -5   2   9    7.52    4.43
   5   2  -9    7.16    3.11
   5  -2  -8  546.10   19.10
   5  -2  -8  569.51   43.84
  -5  -2   8  541.72   19.67
   5   2  -8  576.53   42.50
   5  -2  -7    1.16    1.67
   5  -2  -7    3.58    1.90
   5   2  -7    1.35    1.75
  -5  -2   7    3.58    1.90
  -5  -2   6   95.19   10.75
   5  -2  -6   98.64   10.85
   5  -2  -6   94.38   15.98
  -5  -2   6   92.18   15.38
   5   2  -6   96.31   15.18
   5  -2  -5    1.96    2.13
   5  -2  -5   -0.08    2.09
  -5  -2   5    1.03    2.89
   5   2  -5    1.95    2.09
  -5  -2   5    2.59    1.94
  -5   2   5    2.46    2.28
  -5  -2   4  555.98   30.49
  -5  -2   4  543.98   31.91
   5   2  -4  542.38   31.59
   5  -2  -4  549.10   30.32
  -5   2   4  560.85   30.41
   5   2  -3   77.82   10.78
  -5  -2   3   77.99   12.04
   5   2  -3   76.96   12.44
  -5  -2   3   78.83   10.75
   5  -2  -3   76.85   12.26
  -5   2   3   79.97   11.96
   5   2  -2  493.84   32.22
  -5   2   2  496.81   32.43
  -5  -2   2  487.95   23.36
   5  -2  -2  487.71   32.35
   5  -2  -2  514.07   35.89
  -5  -2   2  504.48   32.42
   5   2  -1  564.22   36.19
   5  -2  -1  551.12   36.92
  -5  -2   1  543.03   40.53
  -5  -2   1  533.71   19.78
   5  -2  -1  549.89   36.15
  -5   2   1  580.14   39.09
   5   2  -1  565.06   34.84
   5   2   0   41.28   10.24
  -5   2   0   38.37    8.66
   5  -2   0   45.86   11.19
  -5  -2   0   37.19    9.31
   5   2   0   42.85    8.88
  -5   2   0   31.96    8.03
   5  -2   0   62.49   13.00
   5  -2   1    7.40    4.59
  -5   2  -1   25.10    9.00
   5   2   1   14.52    6.53
  -5  -2  -1   25.67   11.21
  -5   2  -1    9.00    2.85
  -5  -2  -1    7.61    2.50
   5   2   1   30.94   10.80
  -5   2  -2  139.21   20.58
   5   2   2  107.62   18.05
   5  -2   2  109.33   18.52
   5  -2   2  103.28    8.45
  -5  -2  -2  124.75   21.70
  -5  -2  -2   93.24   13.41
   5   2   3   61.20   14.14
   5  -2   3   61.85   14.33
  -5  -2  -3   60.19    5.73
   5  -2   3   60.37    7.32
  -5  -2  -3   63.90   11.33
   5   2   4   56.17   14.24
  -5  -2  -4   60.40    7.42
   5  -2   4   57.22    8.21
   5  -2   4   58.83   14.27
  -5  -2  -4   63.02   11.98
   5  -2   5    0.55    0.77
  -5  -2  -5    1.69    1.59
   5  -2   5   -1.41    3.40
   5   2   5    0.92    3.24
   5  -2   6  201.77   19.42
   5   2   6  196.56   28.28
   5  -2   6  206.18   28.66
  -5  -2  -6  194.53   18.05
   5   2   7   56.25   15.45
   5  -2   7   51.00   14.10
   5  -2   7   58.29   11.21
  -5  -2  -7   57.08   10.78
   5   2   8  139.79   25.73
   5  -2   8  131.03   24.69
  -5  -2  -8  139.48   18.30
   5   2   9   18.63   10.64
   5  -2   9   17.83    9.70
  -5  -2  -9   19.88    7.88
   5   2  10   89.99   21.77
  -5  -2 -10  104.13   18.72
   5  -2  10   94.41   21.62
   5   2  11    7.71    6.20
   5  -2  11   -0.44    6.70
  -5  -2 -11   12.99    8.77
   5   2  12    2.90    6.02
   5  -2  12    1.55    4.64
  -5  -2 -12   14.06    9.15
   5  -2  13    5.54    4.51
   5   2  13   12.55   10.74
  -5  -2 -13   15.30   11.77
   5  -2  14   64.42   20.90
  -5  -2 -14   78.04   19.97
   5  -2  15    4.92    6.08
   5  -2  16   18.85   12.02
   5  -2  17   13.04   11.94
   5  -3 -22   -0.64    2.37
   5   3 -22   21.90   17.67
   5   3 -21   12.79   13.06
   5  -3 -21    4.22    6.78
   5  -3 -20   -0.13    7.01
   5   3 -20   15.78   15.06
   5  -3 -19    2.39    5.26
   5   3 -19   14.18   15.38
  -5   3  18  191.03   31.26
   5  -3 -18  185.29   37.13
   5   3 -18  209.41   38.38
  -5   3  17   31.84   12.19
   5   3 -17   45.97   19.54
   5  -3 -17   24.02   12.49
  -5   3  16  200.75   31.27
   5  -3 -16  188.71   34.64
   5   3 -16  204.39   36.94
  -5   3  15   50.55   14.17
   5   3 -15   48.61   18.41
   5  -3 -15   40.79   12.46
  -5   3  14  235.63   32.78
   5  -3 -14  241.00   37.70
   5   3 -14  227.22   36.00
  -5   3  13    2.49    1.24
   5  -3 -13    5.63    4.23
   5   3 -13    6.01    6.19
  -5   3  12   51.59   14.37
   5  -3 -12   59.77   16.71
   5   3 -12   49.72   16.12
  -5   3  11    2.15    3.46
   5   3 -11    2.66    5.17
   5  -3 -11   -0.79    2.94
  -5   3  10   43.87   12.82
   5   3 -10   54.69   15.38
  -5  -3   9   68.06    6.65
  -5   3   9   67.38   15.43
   5  -3  -9   63.75   15.52
   5   3  -9   77.46   16.90
   5  -3  -9   65.32    6.17
  -5   3   8   75.98   16.21
  -5  -3   8   76.52    8.38
   5  -3  -8   74.87   15.50
   5   3  -8   82.77   15.77
   5  -3  -8   77.37    8.25
  -5   3   7   22.87    8.42
  -5  -3   7   25.94    5.19
   5  -3  -7   24.17    8.86
   5   3  -7   24.98    8.00
   5  -3  -7   28.28    5.70
  -5  -3   6  241.84   18.43
   5   3  -6  231.14   24.26
   5  -3  -6  234.93   17.86
   5  -3  -5   29.67    6.87
  -5  -3   5   29.48    6.55
   5   3  -5   35.16    9.14
  -5  -3   5   33.22    8.52
   5  -3  -4  124.43   14.85
  -5  -3   4  121.78   14.75
  -5  -3   4  121.69   15.20
   5   3  -4  110.19   14.57
  -5   3   4  120.64   14.71
  -5  -3   3  308.00   24.83
  -5   3   3  301.96   24.29
  -5  -3   3  294.57   22.04
   5  -3  -3  311.42   25.13
   5  -3  -2    7.04    3.22
  -5   3   2    9.12    4.99
   5  -3  -2    6.73    4.84
  -5  -3   2    5.61    1.81
  -5  -3   2    8.09    4.52
  -5  -3   1  567.89   42.71
   5   3  -1  538.87   35.98
   5  -3  -1  559.06   36.37
  -5  -3   1  551.29   22.22
   5   3  -1  527.01   32.58
   5  -3  -1  550.08   36.40
  -5  -3   0    9.37    1.39
   5   3   0   15.61    6.96
   5  -3   0   11.70    4.21
  -5  -3   0   12.98    2.91
   5   3   0   12.29    4.34
  -5   3   0   11.62    2.87
   5   3   1   12.31    6.92
   5   3   1    0.12    3.55
  -5   3  -1    5.15    5.51
  -5  -3  -1    5.99    7.25
   5  -3   1    0.18    1.82
   5   3   2    3.27    3.52
  -5   3  -2   17.17    9.70
  -5  -3  -2   17.03   12.22
  -5  -3  -2    2.83    3.04
   5  -3   3   17.17    8.03
   5   3   3   16.38    7.82
  -5  -3  -3   10.19    2.60
   5  -3   3   13.84    4.24
  -5  -3  -3    4.21    3.29
   5   3   4  316.52   33.99
  -5  -3  -4  334.98   18.61
   5  -3   4  351.83   22.18
   5  -3   4  350.47   35.17
  -5  -3  -4  313.42   25.17
   5  -3   5    1.69    1.34
   5   3   5    4.09    4.37
   5  -3   5    4.63    1.77
  -5  -3  -5    0.94    2.85
  -5  -3  -6  466.29   32.35
   5   3   6  443.78   42.40
   5  -3   6  462.85   30.90
   5  -3   6  435.64   42.54
  -5  -3  -6  446.63   27.81
   5   3   7   11.34    8.11
   5  -3   7    8.08    4.22
  -5  -3  -7    4.13    1.70
   5  -3   7    5.28    4.84
   5   3   8   17.53   10.00
  -5  -3  -8   11.16    4.19
   5  -3   8   13.10    7.30
  -5  -3  -9   -6.47    5.11
   5   3   9    6.85    7.94
   5  -3   9   -0.82    3.51
   5   3  10   39.09   14.36
   5  -3  10   24.95   11.47
  -5  -3 -10   29.11    9.44
   5   3  11   79.58   20.90
   5  -3  11   89.03   22.42
  -5  -3 -11   90.80   18.39
   5  -3  12   19.49   10.81
  -5  -3 -12   27.31   11.05
   5  -3  13   -5.63    7.05
  -5  -3 -13    8.46    8.40
   5  -3  14   -2.01    6.34
  -5  -3 -14   10.81   11.13
   5  -3  15    8.52    6.12
   5  -3  16   59.58   20.20
   5  -3  17   13.53   13.53
   5  -4 -22   10.06   10.25
   5  -4 -21  -15.68   13.93
   5   4 -21   19.22   17.16
   5  -4 -20  -11.11   13.08
   5   4 -20   14.24   15.75
   5  -4 -19    5.57    7.22
   5   4 -19   35.43   18.92
  -5   4  18   49.36   15.75
   5  -4 -18   38.72   14.79
   5   4 -18   58.17   21.57
  -5   4  17   -2.49    4.56
   5  -4 -17  -14.51   15.91
   5   4 -17   19.15   14.90
  -5   4  16   95.66   21.86
   5  -4 -16   83.90   23.39
   5   4 -16  110.28   27.21
  -5   4  15   -1.30    4.10
   5  -4 -15    5.59    9.76
   5   4 -15   16.31   15.09
  -5   4  14    0.53    5.18
   5  -4 -14    5.68    1.95
   5   4 -14   10.06   12.28
   5  -4 -13   65.60   18.93
   5   4 -13   66.74   19.69
  -5   4  13   61.10   15.88
  -5   4  12   54.62   15.56
   5  -4 -12   60.80   16.89
   5   4 -12   72.81   18.92
  -5   4  11   13.75    7.20
   5  -4 -11   14.05    7.41
   5   4 -11   27.06   13.22
  -5  -4  10    1.47    1.28
  -5   4  10   -0.70    1.01
   5  -4 -10    0.58    0.36
  -5   4   9  157.30   24.45
  -5  -4   9  152.87   12.15
   5  -4  -9  137.90   23.37
   5   4  -9  149.36   24.42
   5  -4  -9  151.62   11.66
  -5   4   8   83.57   17.42
  -5  -4   8   90.74   10.46
   5  -4  -8   84.00   16.72
   5   4  -8   91.51   18.22
   5  -4  -8   89.28    9.89
  -5  -4   7  146.52   14.20
   5  -4  -7  142.20   13.70
   5   4  -7  155.60   21.41
  -5   4   7  140.51   21.91
  -5   4   6  230.47   27.61
  -5  -4   6  238.02   19.56
   5  -4  -6  236.36   19.02
   5   4  -6  244.17   25.42
  -5  -4   5  165.93   17.23
  -5  -4   5  153.52   19.17
   5  -4  -5  155.89   16.21
  -5  -4   4  593.36   34.69
   5  -4  -4  582.59   33.52
  -5  -4   4  597.25   35.16
  -5  -4   3   46.76    9.96
   5  -4  -3   41.77    9.28
  -5  -4   3   39.68    8.58
   5  -4  -2  221.96   22.54
  -5  -4   2  237.84   23.69
  -5  -4   2  227.52   18.01
  -5   4   2  228.68   22.89
   5  -4  -2  226.55   23.12
  -5  -4   1    6.18    3.37
   5  -4  -1    0.08    3.11
   5  -4  -1    9.78    6.86
   5  -4   0  145.58   20.25
  -5  -4   0  132.61   20.27
  -5   4   0  146.18   18.26
   5   4   0  138.95   15.28
   5   4   1  210.56   25.16
  -5   4  -1  221.58   23.67
  -5  -4  -1  219.51   27.84
   5   4   1  219.94   18.89
   5  -4   1  221.07   25.71
   5   4   2   39.11   11.60
   5  -4   2   39.46   11.42
  -5  -4  -2   58.06   16.34
  -5   4  -2   45.65   12.31
   5   4   3  132.24   21.14
  -5  -4  -3  111.09   13.66
   5  -4   3  121.30   20.28
   5   4   4    3.37    4.37
   5  -4   4    1.31    2.37
  -5  -4  -4   -3.15    2.36
   5  -4   4    3.17    3.11
  -5  -4  -4   -1.26    1.75
   5   4   5   44.23   13.91
   5  -4   5   44.02    8.79
  -5  -4  -5   41.81    7.68
   5  -4   5   41.90   12.56
  -5  -4  -5   55.49   10.66
   5   4   6  138.42   24.00
  -5  -4  -6  138.00   16.09
   5  -4   6  139.08   17.27
   5  -4   6  141.60   24.19
  -5  -4  -6  170.68   19.05
   5   4   7    2.06    5.20
   5  -4   7   -1.18    4.00
   5  -4   7    1.98    1.49
  -5  -4  -7   -2.86    4.95
   5   4   8  207.97   31.27
  -5  -4  -8  199.58   22.14
   5  -4   8  203.60   30.66
  -5  -4  -9   69.62   14.05
   5  -4   9   74.85   19.53
   5  -4  10  174.81   30.55
  -5  -4 -10  195.35   24.96
  -5  -4 -11   -1.26    1.29
   5  -4  11   -1.08    3.41
   5  -4  12    5.47    4.55
  -5  -4 -12    6.02    3.98
   5  -4  13    1.41    1.50
  -5  -4 -13    7.79    8.93
   5  -4  14    1.24    4.62
  -5  -4 -14   14.60    9.73
   5  -4  15    0.84    3.05
   5  -4  16   20.98   13.62
   5  -4  17    2.99    2.98
   5  -5 -22   -4.10    5.10
   5  -5 -21   52.85   20.34
   5  -5 -20   -6.45   11.12
   5  -5 -19  -15.28   13.92
  -5   5  18   24.04   11.88
   5  -5 -18   14.20    4.84
   5   5 -18   40.11   20.58
  -5   5  17   18.77    9.92
   5  -5 -17   17.01    6.33
  -5   5  16   11.37    8.04
   5  -5 -16   10.90    9.60
   5   5 -16   25.78   15.13
  -5   5  15   21.93   10.67
   5  -5 -15   26.57   12.40
  -5   5  14  200.49   32.21
   5   5 -14  241.73   38.77
   5  -5 -14  189.80   34.73
  -5   5  13    8.98    6.36
   5  -5 -13    5.99    6.68
   5   5 -13   20.93   13.49
  -5   5  12   30.86   12.31
  -5  -5  12   25.85    4.08
   5  -5 -12   30.27   10.84
   5   5 -12   36.64   15.89
   5   5 -11   50.56   11.51
  -5   5  11   50.85   14.95
   5  -5 -11   40.51   12.27
   5   5 -11   55.86   16.80
   5  -5 -11   46.90    6.15
   5  -5 -10   12.37    3.68
   5   5 -10   14.21    6.54
  -5   5  10   12.40    6.08
   5   5  -9   96.66   15.95
   5  -5  -9   99.62   10.97
  -5   5   9   95.44   20.15
   5   5  -9  104.05   20.90
  -5   5   8  401.28   39.69
   5   5  -8  410.47   37.11
   5  -5  -8  404.11   23.55
  -5   5   7  133.63   21.99
   5  -5  -7  141.23   14.86
  -5   5   6   13.46    6.70
   5  -5  -6   13.72    4.96
  -5   5   5  283.82   30.84
  -5  -5   5  285.90   24.05
  -5  -5   5  267.88   26.59
   5  -5  -5  277.41   23.08
  -5   5   4   60.71   14.15
  -5  -5   4   59.82   11.61
  -5  -5   4   58.97   11.47
   5  -5  -4   62.05   11.22
  -5  -5   3  659.16   39.28
   5  -5  -3  649.30   38.79
  -5  -5   3  651.70   34.98
  -5  -5   2  117.63   17.43
   5  -5  -2  114.74   16.79
   5  -5  -2  107.80   14.72
  -5  -5   2  116.06   13.72
   5  -5  -1   84.32   14.75
  -5  -5   1   77.80   14.51
   5  -5  -1   96.00   15.22
  -5  -5   0   68.43   14.44
   5  -5   0   76.80   14.66
  -5   5   0   75.82   11.66
   5   5   0   70.85   10.87
  -5  -5  -1    6.34    6.97
  -5   5  -1   -1.22    1.42
   5  -5   1   -4.65    5.14
   5   5   1    3.33    3.51
  -5   5  -2   12.70    9.48
  -5  -5  -2   12.70   13.04
   5  -5   2    1.69    3.59
   5  -5   3   35.60   11.41
  -5  -5  -3   28.21    5.98
   5  -5   4   62.62   11.13
  -5  -5  -4   44.09    7.72
   5  -5   4   50.89   14.23
   5  -5   5   26.82   11.03
   5  -5   5   23.80    7.74
  -5  -5  -5   22.15    5.82
  -5  -5  -5   24.50    6.30
  -5  -5  -6  243.81   21.93
   5  -5   6  256.57   24.39
   5  -5   6  236.98   31.93
  -5  -5  -6  266.06   22.05
   5  -5   7    5.72    5.73
  -5  -5  -7    4.40    2.89
   5  -5   8   39.93   14.10
  -5  -5  -8   41.91   10.51
   5  -5   9   99.82   22.71
  -5  -5  -9   87.87   15.78
  -5  -5 -10   -9.82    7.93
   5  -5  10    1.80    3.17
  -5  -5 -11   21.06    6.46
   5  -5  11   25.21   11.30
  -5  -5 -12    0.35    3.58
   5  -5  12    0.89    3.90
   5  -5  13   -2.67    4.39
  -5  -5 -13    3.68    3.10
   5  -5  14   -0.37    5.11
   5  -5  15   18.55   11.52
   5  -5  16   11.80    8.78
   5  -5  17   -4.35    7.52
   5  -6 -22    0.76    6.12
   5  -6 -21   23.23   13.39
   5  -6 -20    4.52    1.03
  -5   6  19    8.02    5.64
   5  -6 -19   -0.27   11.36
  -5   6  18   35.70   14.33
   5  -6 -18   42.97   15.94
   5  -6 -17   11.42    9.40
  -5   6  17   15.71    9.88
  -5   6  16   22.13   11.70
   5  -6 -16   19.52   12.80
  -5   6  15    6.05    8.34
   5  -6 -15    5.17    6.40
  -5   6  14    4.37    5.87
   5  -6 -14    3.69    5.07
   5  -6 -13   11.71    3.07
  -5   6  13   11.76    8.02
   5   6 -13   11.77    5.04
   5  -6 -13    9.15    6.09
   5   6 -13   25.18   12.73
  -5  -6  13   11.00    2.93
  -5  -6  12   40.26    6.70
   5   6 -12   29.57    7.77
  -5   6  12   40.31   14.88
   5  -6 -12   40.47   13.64
   5   6 -11   82.91   14.48
  -5   6  11   75.89   19.22
   5  -6 -11   77.68   18.69
   5   6 -10   -1.89    3.50
  -5   6  10    1.37    1.46
  -5   6   9   22.49    9.03
  -5   6   8   24.19    9.51
  -5   6   7  232.95   30.02
   5  -6  -7  220.59   19.86
  -5   6   6  288.29   33.48
   5  -6  -6  285.83   23.82
  -5   6   5   40.80   11.14
   5  -6  -5   40.87    9.30
  -5   6   4   45.32   12.78
  -5  -6   4   53.48   11.95
   5  -6  -4   55.16   11.44
  -5   6   3   -2.57    4.17
  -5  -6   3    1.19    2.86
  -5  -6   3    3.14    4.97
   5  -6  -3    0.81    1.63
   5  -6  -2   16.24    6.33
   5  -6  -2   15.40    5.16
  -5  -6   1  627.75   47.76
   5  -6  -1  641.99   35.63
   5  -6  -1  621.14   42.45
  -5  -6   0    8.77    5.13
   5  -6   0   28.81    9.26
   5   6   0   22.81    5.02
   5   6   1 1538.78   45.83
  -5  -6  -1 1615.70   76.03
   5  -6   1 1619.99   72.62
  -5   6  -1 1608.82   61.96
   5  -6   2  104.05   19.02
  -5   6  -2  111.51   17.38
  -5  -6  -2  104.68   21.24
   5  -6   3    6.44    2.23
  -5  -6  -3   24.74   15.17
   5  -6   4   13.38    5.31
   5  -6   4   13.09    7.07
  -5  -6  -4   11.15    3.09
   5  -6   5    7.61    7.26
   5  -6   5   12.23    6.98
  -5  -6  -5    3.72    2.11
   5  -6   6   22.49    9.86
  -5  -6  -6   23.80    6.76
   5  -6   7   18.79    9.51
  -5  -6  -7    9.97    4.34
  -5  -6  -8   55.19   12.07
   5  -6   8   54.88   16.67
   5  -6   9   55.92   17.51
  -5  -6  -9   56.92   13.37
  -5  -6 -10   18.23    7.05
   5  -6  10   19.47    9.47
  -5  -6 -11   -3.03    8.11
   5  -6  11    3.39    5.92
  -5  -6 -12    8.12    3.46
   5  -6  12    8.04    6.20
  -5  -6 -13   83.75   18.99
   5  -6  13   80.17   22.37
   5  -6  14   21.52   12.53
   5  -6  15    0.94    1.36
   5  -6  16    7.94    9.80
   5  -6  17   -3.65    4.17
   5  -7 -22    3.93    5.14
   5  -7 -21  -19.36   17.06
   5  -7 -20  -10.61   16.07
  -5   7  19   19.76   11.57
   5  -7 -19   28.75   14.63
  -5   7  18    6.03    7.89
   5  -7 -18    5.66    7.82
  -5   7  17   35.12   15.34
   5  -7 -17   28.07   13.58
  -5   7  16  262.31   40.56
   5  -7 -16  240.47   42.38
  -5   7  15    2.53    4.50
   5  -7 -15    5.73    3.54
  -5   7  14    4.04    6.34
   5  -7 -14   -4.93    7.32
  -5  -7  13    9.29    3.60
   5  -7 -13    8.77    3.74
  -5   7  13   11.17    7.19
   5  -7 -13    7.64    2.99
   5   7 -13    9.61    4.03
   5  -7 -12    9.82    5.97
   5   7 -12   10.63    3.29
  -5   7  12   15.56   10.89
   5   7 -11   14.59    6.21
  -5   7  11   16.67    8.55
   5   7 -10   35.65    9.02
  -5   7  10   37.57   14.13
  -5   7   9  112.42   23.44
  -5   7   8    7.01    7.15
  -5   7   7  111.23   21.70
  -5   7   6   -0.59    2.83
   5  -7  -6   -5.59    8.71
   5  -7  -5  137.71   17.73
  -5   7   5  135.54   22.92
  -5   7   4  113.52   20.56
   5  -7  -4  119.91   17.96
  -5  -7   4  128.01   18.14
  -5   7   3   -3.36    5.60
   5  -7  -3    3.97    4.14
  -5   7   2   65.44   14.44
   5  -7  -2   67.81   11.01
   5  -7  -2   70.52   14.45
  -5  -7   1   -3.84   11.56
   5  -7  -1   17.49    7.59
   5  -7  -1    4.76    4.34
  -5  -7   0   -4.65    8.84
   5   7   0   -3.28    4.22
   5  -7   0   -1.41    2.64
  -5  -7  -1  202.71   28.51
   5  -7   1  211.84   27.18
   5   7   1  187.55   15.41
  -5   7  -1  205.73   21.10
  -5   7  -2   54.76   11.74
   5  -7   2   42.48   12.11
  -5  -7  -2   61.89   17.13
   5  -7   3    5.98    3.76
  -5  -7  -3   15.66   12.93
   5  -7   4   56.37   13.94
   5  -7   5   68.65   17.18
   5  -7   5   73.28   14.60
  -5  -7  -5   65.39    8.96
   5  -7   6    2.49    2.27
   5  -7   6    3.89    3.53
  -5  -7  -6    2.70    1.19
   5  -7   7  446.76   36.35
  -5  -7  -7  423.40   25.81
   5  -7   7  448.72   46.43
   5  -7   8   -2.32    4.07
   5  -7   8    5.64    5.43
  -5  -7  -8   -0.84    5.75
  -5  -7  -9   66.89   14.55
   5  -7   9   60.61   18.00
  -5  -7 -10   52.10   13.36
   5  -7  10   53.87   17.75
  -5  -7 -11   19.02    8.63
   5  -7  11   18.83    9.97
  -5  -7 -12   -7.57    7.91
   5  -7  12    3.10    4.82
  -5  -7 -13  114.68   22.94
   5  -7  13  111.70   27.36
   5  -7  14    3.30    3.48
   5   7  15    9.10   11.85
   5  -7  15   -0.26    4.20
   5  -7  16    1.85    5.70
   5  -7  17   12.61    9.60
   5  -8 -21    9.68    5.15
   5  -8 -20   -7.07   11.58
  -5   8  19   13.86   10.20
   5  -8 -19   13.72   13.24
  -5   8  18   42.81   17.39
   5  -8 -18   47.09   19.92
  -5   8  17   25.50   13.60
   5  -8 -17   18.53   11.07
   5  -8 -16   28.74   14.77
  -5   8  16   37.70   15.60
  -5   8  15   11.77    9.07
   5  -8 -15   -1.29    5.87
  -5   8  14    1.45    0.71
   5  -8 -14   -0.74    5.20
  -5  -8  14    0.48    1.17
  -5   8  13   -5.11    4.82
   5   8 -13   -0.91    2.80
   5  -8 -13   -5.00    9.72
  -5  -8  13    4.35    3.70
   5   8 -12   12.30    5.67
  -5   8  12    1.70    3.46
   5   8 -11    4.44    3.71
  -5   8  11   -3.81    7.29
  -5   8  10   15.48    7.58
  -5   8   9    1.18    3.39
  -5   8   8   31.75   12.72
  -5   8   7  150.81   26.90
   5  -8  -7  141.14   22.30
  -5   8   6   54.57   14.66
   5  -8  -6   50.41   12.84
  -5   8   5   30.99   10.72
   5  -8  -5   16.55    1.84
  -5   8   4  130.24   22.01
  -5   8   3   90.18   18.53
   5  -8  -3   96.34   16.84
  -5   8   2  291.50   32.18
   5  -8  -2  296.36   29.90
   5  -8  -2  281.35   22.72
   5  -8  -1   28.07    8.52
   5  -8  -1   20.93    7.92
  -5  -8   0   85.81   16.42
   5  -8   0   90.06   17.22
  -5   8  -1   45.40    8.16
   5  -8   1   52.38   13.77
   5   8   1   45.71    6.67
  -5  -8  -1   42.95   11.97
  -5   8  -2   47.98   11.05
  -5  -8  -2   60.63   17.18
   5  -8   2   42.49   12.36
   5  -8   3    0.50    0.36
  -5  -8  -3   20.23   14.49
   5  -8   4   -4.19    5.07
   5  -8   5   15.07    6.47
   5  -8   5   11.80    6.01
   5  -8   6  161.25   27.80
  -5  -8  -6  144.44   13.14
   5  -8   6  172.54   22.09
   5  -8   7    2.09    2.09
  -5  -8  -7    1.89    0.78
   5  -8   7    7.28    6.15
   5  -8   8  175.43   21.85
  -5  -8  -8  165.53   22.94
   5  -8   8  165.94   29.56
   5  -8   9  106.38   24.31
  -5  -8  -9  104.49   19.04
   5  -8  10   12.89    9.92
  -5  -8 -10   13.97    7.99
   5  -8  11    9.04    6.53
  -5  -8 -11   10.85    6.02
  -5  -8 -12    9.58    7.68
   5  -8  12    6.87    7.39
  -5  -8 -13   23.81    8.87
   5  -8  13   29.09   14.61
   5  -8  14   54.18   19.25
   5   8  15   20.99   16.15
   5  -8  15    9.07    9.77
   5  -8  16    8.44    8.53
   5  -8  17    2.48    5.96
   5  -9 -21  -11.08   15.98
   5  -9 -20    4.23    8.64
  -5   9  19   25.77   14.44
   5  -9 -19   27.93   18.51
  -5   9  18   -0.02    4.43
   5  -9 -18    5.02    8.12
  -5   9  17   19.92   11.32
   5  -9 -17   21.62   13.83
  -5   9  16  201.76   36.50
   5  -9 -16  176.28   37.13
  -5   9  15   16.80    6.98
   5  -9 -15   26.00   13.26
  -5   9  14  296.22   41.94
   5  -9 -14  278.91   43.18
  -5  -9  14  306.43   24.69
  -5   9  13    0.93    8.76
   5   9 -12   52.59   11.25
  -5   9  12   40.90   13.04
   5   9 -11   18.30    6.20
  -5   9  11   10.56    1.59
  -5   9  10  123.46   25.01
  -5   9   9   -3.67    7.28
   5  -9  -8   -5.50   11.13
  -5   9   8   -4.66    8.21
  -5   9   7    6.01    5.50
   5  -9  -7   -0.54    6.62
  -5   9   6  154.40   25.48
   5  -9  -6  125.23   19.83
  -5   9   5   13.27    8.89
   5  -9  -5    6.64    2.99
  -5   9   4  122.65   22.90
   5  -9  -4  133.11   20.82
  -5   9   3   13.40    7.11
  -5   9   2  305.88   34.06
   5  -9  -2  314.10   22.85
   5  -9  -2  311.29   31.60
  -5   9   1   -0.18    4.00
   5  -9  -1    0.76    2.22
   5  -9   0  138.93   21.95
  -5  -9   0  121.93   19.74
   5  -9   1   43.79   13.30
  -5  -9  -1   49.44   14.29
  -5   9  -1   32.41    5.37
   5   9   1   34.67    5.67
  -5   9  -2  418.54   29.31
   5  -9   2  414.22   40.87
  -5  -9  -2  415.57   41.32
  -5   9  -3   88.65   15.28
   5  -9   3   81.89   18.18
  -5  -9  -3   95.99   22.63
   5  -9   4  233.21   32.33
   5  -9   5   -3.19    5.25
   5  -9   6  153.80   20.74
   5  -9   6  150.11   27.32
   5  -9   7  146.65   27.35
   5  -9   7  142.94   20.46
  -5  -9  -7  120.48   11.30
   5  -9   8   40.22   10.28
   5  -9   8   40.60   15.51
  -5  -9  -9   23.86    8.29
   5  -9   9   30.67   13.62
   5  -9  10   43.27   15.28
  -5  -9 -10   53.82   14.80
   5  -9  11   20.35   11.86
  -5  -9 -11   22.30    8.89
   5  -9  12   15.54   10.03
  -5  -9 -12   14.03    7.84
  -5  -9 -13   -2.00    2.48
   5  -9  13   -0.81    2.47
   5   9  14   17.54   15.42
   5  -9  14    2.32    2.68
   5   9  15    8.41   12.71
   5  -9  15    0.03    2.85
   5  -9  16   15.82   10.56
   5  -9  17   -3.62    7.06
   5 -10 -21   38.54   22.62
  -5  10  20    2.28    6.22
   5 -10 -20   -2.22    6.49
   5 -10 -19    6.14   12.77
  -5  10  19   15.10   11.07
  -5  10  18  111.12   28.78
   5 -10 -18  123.91   33.72
  -5  10  17    1.30    3.53
   5 -10 -17   -0.65    5.40
   5 -10 -16    3.20    4.99
  -5  10  16    4.89    7.72
  -5  10  15    2.94    8.37
   5 -10 -15   -0.92    7.98
  -5 -10  14    5.38    4.67
  -5  10  14   -1.07    6.43
   5 -10 -14    1.15    8.49
  -5  10  13   41.22   13.72
   5  10 -12   -1.00    2.84
  -5  10  12   -4.67   10.41
  -5  10  11   31.19    9.58
  -5  10  10   35.59   12.06
   5 -10  -9  -14.98   13.25
  -5  10   9   -1.55    7.20
  -5  10   8  189.20   31.01
   5 -10  -8  197.81   27.91
  -5  10   7  -11.32   11.22
   5 -10  -7   -4.60    9.44
  -5  10   6  400.32   42.99
   5 -10  -6  381.19   36.83
  -5  10   5  118.76   23.37
   5 -10  -5  115.71   19.25
  -5  10   4  167.78   27.06
   5 -10  -4  165.95   23.84
  -5  10   3    2.81    2.34
  -5  10   2   74.29   16.42
   5 -10  -2   73.06   10.69
  -5  10   1   10.10    4.66
   5 -10  -1   24.31   10.12
  -5 -10   0   -2.18    9.04
  -5  10   0    7.17    3.85
   5 -10   0    8.48    6.35
   5 -10   1  483.70   43.76
  -5 -10  -1  490.81   45.06
   5  10   1  445.31   21.32
  -5 -10  -2   33.06   13.24
   5 -10   2   17.56    8.98
  -5  10  -2   20.18    5.74
  -5 -10  -3  167.74   28.49
  -5  10  -3  165.27   19.58
   5 -10   3  148.78   25.85
  -5 -10  -4   89.32   22.96
   5 -10   4   43.69   13.94
   5 -10   5    0.08    3.58
   5 -10   6  268.53   36.65
   5 -10   7   -1.22    7.16
   5 -10   7   -2.80    5.32
   5 -10   8  134.12   27.93
   5 -10   9  102.68   24.58
  -5 -10 -10   31.09   11.21
   5 -10  10   25.18   13.11
   5 -10  11   -1.36    2.83
  -5 -10 -11    3.25    5.14
   5 -10  12    5.47    6.93
  -5 -10 -12    2.86    2.75
   5 -10  13   50.93   19.47
  -5 -10 -13   50.72   16.23
   5  10  14   73.34   25.67
   5 -10  14   59.65   20.58
   5 -10  15    2.84    5.74
   5  10  15   10.21   11.36
   5 -10  16   20.62   13.18
   5 -11 -21   68.11   27.72
  -5  11  20    9.00    8.76
   5 -11 -20    8.57   12.99
  -5  11  19   23.97   15.57
   5 -11 -19   13.18   11.97
   5 -11 -18   24.33   13.75
  -5  11  18   19.52   13.15
  -5  11  17   -8.69   10.81
   5 -11 -17   -3.43   11.23
  -5  11  16  161.51   33.76
   5 -11 -16  145.15   33.43
   5 -11 -15   -2.64    8.93
  -5  11  15    6.05    2.45
  -5  11  14   79.05   22.72
  -5  11  13   12.32    6.15
   5  11 -12   10.42    4.56
  -5  11  12    8.73    5.66
  -5  11  11   10.79    5.31
  -5  11  10  125.57   26.27
   5 -11 -10  113.96   22.03
  -5  11   9  819.44   67.59
   5 -11  -9  803.84   59.21
  -5  11   8  122.63   24.92
   5 -11  -8  127.60   22.58
  -5  11   7  570.59   54.53
   5 -11  -7  570.40   47.57
   5 -11  -6   42.71   11.82
  -5  11   6   36.21   10.69
  -5  11   5   69.25   17.62
   5 -11  -5   83.86   17.41
   5 -11  -4   12.92    9.16
  -5  11   4    5.08    5.86
  -5  11   3  124.49   23.67
   5 -11  -3  165.45   24.67
  -5  11   2  252.11   32.42
   5 -11  -2  246.00   17.98
  -5  11   1   -1.56    3.62
  -5  11   0   90.17   18.86
  -5 -11   0   82.58   17.90
   5 -11   0   95.81   19.84
   5 -11   1   37.08   13.41
   5  11   1   24.92    4.28
  -5 -11  -1   28.17    9.80
   5 -11   2   57.00   15.70
  -5  11  -2   61.28    9.89
  -5 -11  -2   73.23   17.93
   5 -11   3    0.61    3.43
  -5  11  -3   11.56    6.90
  -5 -11  -3   20.61   13.32
  -5 -11  -4  136.77   26.26
   5 -11   4   93.74   20.60
   5 -11   5   64.83   18.16
   5 -11   6  269.12   37.05
   5 -11   7   14.03    8.36
   5 -11   7   12.04    5.58
   5 -11   8    5.76    1.91
   5 -11   9  221.93   37.13
   5 -11  10    4.72    4.07
  -5 -11 -11   56.62   16.33
   5 -11  11   57.76   19.93
  -5 -11 -12   71.90   19.01
   5 -11  12   75.50   22.59
  -5 -11 -13   94.54   23.64
   5 -11  13   96.16   27.21
   5 -11  14    4.43    0.26
   5  11  14   19.11   16.30
   5 -11  15   13.29   10.31
   5  11  15   28.63   19.17
   5 -11  16   13.41   10.12
   5  11  16   18.80   14.64
   5 -12 -20   16.76   15.79
  -5  12  20    4.59    7.83
  -5  12  19   12.92    9.15
   5 -12 -19   17.31   13.38
   5 -12 -18   -2.50   11.05
  -5  12  18   -2.26    6.20
   5 -12 -17   -6.48    8.29
  -5  12  17   -3.59    8.71
   5 -12 -16   -1.73    7.07
  -5  12  16   -6.61    9.76
  -5  12  15    9.57    4.74
  -5  12  14    2.96    1.61
  -5  12  13   -2.02    8.47
  -5  12  12   -1.18    5.01
  -5  12  11  297.69   43.06
   5 -12 -11  326.04   40.28
  -5  12  10   -6.18    9.04
   5 -12 -10   -9.41    9.94
  -5  12   9   -3.53    9.47
   5 -12  -9   -3.40    6.76
  -5  12   8    7.68    1.25
   5 -12  -8   -1.19   10.44
  -5  12   7   -1.19    5.78
   5 -12  -7   -5.72    8.35
  -5  12   6   30.11    9.78
   5 -12  -6   38.38    9.94
  -5  12   5   88.11   19.29
   5 -12  -5  107.41   20.50
  -5  12   4  124.06   24.69
   5 -12  -4  159.07   24.01
   5 -12  -3   56.50   17.71
  -5  12   3    1.61    3.47
   5 -12  -2    5.71    3.67
  -5  12   2    6.10    5.25
  -5  12   1    5.72    2.03
  -5  12   0   23.60    9.59
  -5 -12   0   12.55    7.93
   5 -12   0   31.26   12.31
  -5  12  -1  238.59   30.90
   5 -12   1  244.85   32.89
   5  12   1  217.43   13.92
  -5 -12  -1  242.84   32.14
   5 -12   2   46.93   15.39
  -5  12  -2   45.98    7.52
  -5 -12  -2   56.40   16.03
  -5 -12  -3  323.56   38.22
  -5  12  -3  301.38   23.44
   5 -12   3  288.42   37.77
  -5 -12  -4  129.00   27.18
   5 -12   4  102.13   22.18
   5 -12   5  139.98   27.37
   5 -12   6   -1.00    2.47
   5 -12   7   -4.17    7.05
   5 -12   8   -2.14    5.21
   5 -12   9  100.67   24.98
   5 -12  10   42.14   17.32
  -5 -12 -11   61.33   18.16
   5 -12  11   53.36   19.39
   5 -12  12    5.11    6.82
  -5 -12 -12   -1.22    4.04
   5 -12  13   17.76   11.52
   5  12  14   21.65   17.34
   5 -12  14    6.79    7.54
   5 -12  15   22.30   11.94
   5  12  15   36.53   22.19
   5 -12  16   12.54   10.33
   5  12  16   23.92   17.53
  -5  13  20    5.69    9.44
   5 -13 -20   20.91   17.18
  -5  13  19   36.88   16.12
   5 -13 -19   36.24   20.70
   5 -13 -18    7.39    9.64
  -5  13  18   13.48    6.55
   5 -13 -17   -4.30    9.47
  -5  13  17   -4.14    8.04
   5 -13 -16   31.11   15.44
  -5  13  16   31.47   11.80
  -5  13  15    9.81    8.73
  -5  13  14   16.35    9.13
  -5  13  13    8.10    7.50
   5 -13 -13  -10.27   14.80
  -5  13  12   37.86   13.49
   5 -13 -12   31.68    6.62
  -5  13  11  248.73   39.83
   5 -13 -11  234.27   34.68
  -5  13  10   -5.81    8.62
   5 -13 -10   -7.15    8.47
  -5  13   9   91.20   22.46
   5 -13  -9   77.09   15.35
  -5  13   8   70.74   18.81
   5 -13  -8   56.59   10.78
  -5  13   7  188.35   32.71
   5 -13  -7  185.18   26.54
  -5  13   6    3.84    4.49
   5 -13  -6   17.80    8.88
  -5  13   5   49.51   14.13
   5 -13  -5   68.97   17.40
  -5  13   4   -4.18    6.96
   5 -13  -4   42.04   16.05
   5 -13  -3   53.05    7.35
  -5  13   3   64.54   18.26
  -5  13   2   12.06    6.77
  -5  13   1   75.25   18.69
  -5  13   0  149.88   25.84
  -5 -13   0  127.71   22.22
  -5  13  -1  109.91   21.15
  -5 -13  -1  117.86   20.92
   5 -13   1  111.78   23.15
  -5 -13  -2    7.37    4.69
   5 -13   2    3.55    4.94
   5 -13   3   47.55   16.35
  -5 -13  -3   75.37   19.50
  -5  13  -3   48.58    9.02
  -5  13  -4   41.16   10.60
  -5 -13  -4   38.41   16.87
   5 -13   4   29.02   13.10
  -5 -13  -5  132.30   29.80
   5 -13   5   96.34   22.62
   5 -13   6   24.04   11.96
   5 -13   7   50.86   17.53
   5 -13   8    4.85    1.20
   5 -13   9    0.49    3.52
   5 -13  10    9.10    7.78
   5 -13  11   20.47   12.42
  -5 -13 -12   79.52   20.98
   5 -13  12   74.46   23.45
   5  13  13   68.56   27.11
   5 -13  13   46.10   18.24
   5  13  14    5.68   12.27
   5 -13  14    6.89    8.45
   5 -13  15   23.60   14.23
   5  13  15   40.52   20.93
   5 -13  16   12.61   12.12
   5  13  16    2.71    6.96
  -5  14  20   -6.82    9.21
   5 -14 -20    4.09    9.71
  -5  14  19   20.34   10.61
   5 -14 -19   39.45   21.97
   5 -14 -18   -5.85    8.42
  -5  14  18    0.47    4.09
  -5  14  17   21.64   11.77
   5 -14 -17   17.94    9.91
  -5  14  16    7.13    7.07
  -5  14  15    6.07    2.00
  -5  14  14   -4.60    8.10
   5 -14 -14  -17.50   14.77
   5 -14 -13   21.43    8.33
  -5  14  13   30.70   12.65
  -5  14  12   24.32   10.23
   5 -14 -12    8.90    2.40
  -5  14  11  155.85   31.76
   5 -14 -11  159.02   26.65
  -5  14  10   11.86    6.54
   5 -14 -10    0.68    9.23
  -5  14   9   38.08   15.14
   5 -14  -9   23.43    6.42
  -5  14   8   16.02    7.29
   5 -14  -8   11.23    1.93
  -5  14   7  120.37   26.62
   5 -14  -7  130.33   22.21
  -5  14   6  182.05   32.13
   5 -14  -6  211.05   28.58
  -5  14   5   31.14   10.55
   5 -14  -5   89.12   19.64
   5 -14  -4   82.00   20.28
  -5  14   4   -6.74   10.20
  -5  14   3    9.79    2.69
   5 -14  -3   11.63    2.71
  -5  14   2   66.61   19.10
  -5  14   1   35.02   11.98
  -5  14   0    6.66    4.03
  -5 -14   0  -11.09   14.70
  -5  14  -1   44.41   13.98
  -5 -14  -1   43.30   10.76
  -5  14  -2    3.52    3.32
   5 -14   2   10.99    8.61
  -5 -14  -2    6.02    3.69
   5 -14   3  241.28   35.11
  -5  14  -3  220.80   17.90
  -5 -14  -3  227.01   33.57
  -5  14  -4   83.55   13.05
   5 -14   4   74.62   20.10
  -5 -14  -4  103.47   23.67
  -5 -14  -5   37.16   19.00
   5 -14   5    2.00    6.61
   5 -14   6   34.32   13.69
   5 -14   7   24.54   12.00
   5 -14   8   21.92   10.70
   5 -14   9  115.75   27.88
   5 -14  10    7.15    4.74
   5 -14  11   54.11   20.06
  -5 -14 -12   21.69   11.59
   5 -14  12   27.24   14.29
   5 -14  13    0.06    2.84
   5  14  13   20.83   17.55
   5 -14  14   -0.06    1.86
   5  14  14   20.28   18.62
   5 -14  15    4.40    4.72
   5  14  15    7.86   12.36
   5  14  16   14.44   14.31
   5 -14  16    5.30    5.06
  -5  15  21   24.82   16.25
  -5  15  20   -0.08    6.99
  -5  15  19    2.72    2.85
   5 -15 -19    4.91    6.20
   5 -15 -18   10.27   10.57
  -5  15  18   15.18   11.15
   5 -15 -17    2.72    5.04
  -5  15  17    4.50    5.43
   5 -15 -17   -2.65   10.70
  -5  15  16  115.41   31.40
   5 -15 -16  102.48   24.94
  -5  15  15   51.38   19.30
   5 -15 -15   44.11   14.67
  -5  15  14   71.02   23.50
   5 -15 -14   67.30   19.20
  -5  15  13  115.94   28.85
   5 -15 -13  121.49   26.10
  -5  15  12    2.61    6.37
   5 -15 -12  -11.75   11.69
  -5  15  11  385.20   52.58
   5 -15 -11  399.14   43.72
  -5  15  10    8.23    4.37
   5 -15 -10   -2.30    8.20
  -5  15   9   87.29   23.14
   5 -15  -9  101.13   20.12
  -5  15   8  142.95   29.97
   5 -15  -8  168.94   26.16
   5 -15  -7   44.25   13.84
  -5  15   7   23.58    7.14
   5 -15  -6   35.85   14.91
  -5  15   6   -3.14    8.04
   5 -15  -5   93.94   21.87
  -5  15   5   25.67    9.44
  -5  15   4    1.76    5.73
   5 -15  -3   24.57    4.68
  -5  15   3   13.20    1.50
  -5  15   2   13.41    9.32
  -5  15   1   63.63   17.85
  -5  15   0    3.66    2.24
  -5  15  -1  196.73   29.96
  -5 -15  -1  178.53   28.02
  -5  15  -2   24.17    9.02
  -5 -15  -2   12.65    6.41
   5 -15   2   30.09   14.39
  -5 -15  -3   19.40   11.14
   5 -15   3   17.83   11.52
   5 -15   4  250.56   38.01
  -5  15  -4  250.66   20.47
  -5 -15  -4  294.89   38.68
  -5  15  -5   96.83   14.86
  -5 -15  -5  128.09   27.79
   5 -15   5   91.43   23.00
   5 -15   6   16.62    9.67
  -5 -15  -6   64.16   23.05
   5 -15   7   -2.00    4.68
   5 -15   8   27.37   12.82
   5 -15   9   -0.38    2.65
   5 -15  10   25.39   12.48
   5 -15  11    2.19    5.32
   5  15  12   24.49   19.80
   5 -15  12    5.08    6.03
   5  15  13   25.51   19.00
   5 -15  13   -3.89    8.19
   5 -15  14    2.54    5.94
   5  15  14   24.43   18.81
   5 -15  15    3.44    7.25
   5  15  15   11.71   13.67
   5 -15  16   15.83    9.60
   5  15  16   27.83   18.05
  -5  16  21    9.54   12.71
  -5  16  20    5.80    8.33
  -5  16  19    6.58    6.60
   5 -16 -19    0.96   11.88
  -5  16  18   51.11   21.07
   5 -16 -18   60.99   24.47
  -5  16  17   -2.07    7.83
   5 -16 -17  -10.80   12.16
  -5  16  16   10.39    1.18
   5 -16 -16   12.36    6.97
   5 -16 -15   -6.07    8.44
  -5  16  15   -4.06    5.90
  -5  16  14   10.03    9.75
   5 -16 -14   15.72    4.84
  -5  16  13   11.16    7.18
   5 -16 -13   -2.83   11.16
  -5  16  12   -2.49    9.33
   5 -16 -12   -8.09   13.64
  -5  16  11   82.19   23.64
   5 -16 -11   67.35   16.87
  -5  16  10   29.85   14.02
   5 -16 -10    8.37    6.95
  -5  16   9    5.04    5.42
   5 -16  -9   25.15   12.51
  -5  16   8   55.05   18.02
   5 -16  -8   76.97   18.56
   5 -16  -7  106.32   21.88
  -5  16   7   56.07   19.22
  -5  16   6  -12.94   11.77
   5 -16  -6   65.50   19.46
  -5  16   5    6.88    3.31
  -5  16   4   90.44   21.89
  -5  16   3   54.31   15.38
  -5  16   2   19.59    6.45
  -5  16   1    3.25    4.44
  -5  16   0   91.83   21.87
  -5 -16  -1    7.49    7.95
  -5  16  -1   21.41    9.57
  -5  16  -2    7.52    1.85
  -5 -16  -2    2.53    6.64
  -5  16  -3    5.78    4.65
   5 -16   3   13.16    9.59
  -5 -16  -3   11.28    8.03
  -5 -16  -4   27.34   14.32
   5 -16   4   14.78   10.94
  -5  16  -4    8.13    1.93
  -5 -16  -5   25.93   15.27
   5 -16   5    4.13    6.96
  -5  16  -5    9.66    5.96
  -5 -16  -6   69.79   24.15
   5 -16   6   54.66   18.08
   5 -16   7   99.98   26.12
   5 -16   8   24.41   12.76
   5 -16   9   41.28   16.57
   5 -16  10  132.83   32.32
   5 -16  11    3.00    3.42
   5  16  12   24.63   19.29
   5 -16  12    1.61    7.43
   5  16  13   27.22   17.99
   5 -16  13   10.86    9.87
   5 -16  14   17.58   11.31
   5  16  14   27.91   18.77
   5 -16  15   10.10   10.13
   5  16  15   29.96   19.32
   5 -16  16   37.22   18.13
   5  16  16   40.48   20.94
  -5  17  21   -1.63    9.11
  -5  17  20   -6.41   12.14
   5 -17 -19   -1.66    2.20
  -5  17  19   -5.02   11.51
  -5  17  18   34.08   17.73
   5 -17 -18   36.31   19.37
  -5  17  17    3.05    2.09
  -5  17  16    0.01    5.15
   5 -17 -16    0.18    9.00
  -5  17  15   -0.37    7.60
   5 -17 -15  -14.87   12.59
  -5  17  14   20.07   11.09
   5 -17 -14    7.47   10.08
  -5  17  13    2.22    5.38
   5 -17 -13   -2.90   12.89
  -5  17  12    3.76    3.48
   5 -17 -12   -7.84    9.33
   5 -17 -11    1.77    2.28
  -5  17  11    5.42    7.55
  -5  17  10   59.66   20.40
   5 -17 -10   48.92   13.89
  -5  17   9    2.77    3.38
   5 -17  -9   15.63    9.77
  -5  17   8  179.14   34.87
   5 -17  -8  227.94   31.33
  -5  17   7  156.39   32.02
   5 -17  -7  214.07   30.47
   5 -17  -6   91.05   21.95
  -5  17   6   -0.83    4.71
  -5  17   5    9.16    2.04
  -5  17   4   -4.48    8.69
  -5  17   3   33.10   12.28
  -5  17   2   75.36   20.28
  -5  17   1  138.05   28.32
  -5  17   0    2.04    5.21
  -5  17  -1   41.70   14.54
  -5 -17  -1   23.40    4.09
  -5  17  -2   50.90   15.65
  -5 -17  -2   39.31    7.87
  -5  17  -3   84.20   19.76
   5 -17   3   97.49   25.28
  -5 -17  -3   80.14   20.86
  -5 -17  -4   18.19   12.71
   5 -17   4   11.09   10.01
   5 -17   5    5.34    6.65
  -5 -17  -5   31.77   16.59
   5 -17   6   62.30   20.95
  -5 -17  -6   84.88   24.04
   5 -17   7    3.98    4.07
  -5 -17  -7   27.49   16.75
   5 -17   8   -6.50    9.26
   5 -17   9   39.29   17.55
   5 -17  10   27.71   15.15
   5  17  11   83.18   28.70
   5 -17  11   61.22   22.19
   5  17  12   11.69   16.36
   5 -17  12   -0.11    4.03
   5 -17  13   47.47   20.90
   5  17  13   63.62   26.83
   5 -17  14   14.13   10.85
   5  17  14   27.88   19.10
   5 -17  15    1.88    7.88
   5  17  15    7.54   13.85
   5 -17  16    6.94    8.06
   5  17  16    0.68    3.13
  -5  18  20    2.95    3.65
  -5  18  19   34.20   18.57
  -5  18  18   -3.66    7.57
  -5  18  17   10.90    8.50
  -5  18  16    0.41    6.17
  -5  18  15   -1.48    9.35
   5 -18 -15  -18.36   14.55
  -5  18  14    4.79    6.67
   5 -18 -14  -13.62   10.80
   5 -18 -13    5.22    1.13
  -5  18  13    4.62    3.18
  -5  18  12    2.71    1.92
   5 -18 -12   -2.07    4.41
  -5  18  11    4.67    5.78
   5 -18 -11    6.74    6.18
  -5  18  10    4.79    5.48
   5 -18 -10    8.52    7.57
  -5  18   9   88.13   25.26
   5 -18  -9  146.33   25.16
  -5  18   8    8.49    5.09
   5 -18  -8   46.30   16.78
   5 -18  -7  123.17   25.54
  -5  18   7   32.68   13.30
  -5  18   6    4.49    6.29
  -5  18   5    3.14    5.31
  -5  18   4   77.95   21.61
  -5  18   3  -11.63   10.98
  -5  18   2   24.31   10.13
  -5  18   1  136.94   28.65
  -5  18   0    4.07    5.89
  -5 -18  -1  102.59   18.73
  -5  18  -1  136.62   27.28
  -5  18  -2   43.65   14.72
  -5 -18  -2   13.30    0.72
  -5  18  -3  155.25   27.66
  -5 -18  -3  148.09   28.07
   5 -18   3  170.89   34.00
   5 -18   4    7.64   10.78
  -5 -18  -4   11.85   11.84
   5 -18   5   45.93   18.35
  -5 -18  -5   61.69   19.55
  -5 -18  -6   83.02   24.10
   5 -18   6   74.05   22.71
  -5 -18  -7   34.88   17.85
   5 -18   7    0.33    4.08
  -5 -18  -8   47.55   20.95
   5 -18   8   20.25   12.28
   5 -18   9   40.73   17.37
   5 -18  10    5.75    7.06
   5  18  11   14.37   15.59
   5 -18  11    7.45    1.61
   5  18  12   16.77   17.74
   5 -18  12   -1.04    4.62
   5 -18  13   -3.00    6.87
   5  18  13   15.96   17.58
   5 -18  14    1.36    5.53
   5  18  14    4.82    8.30
   5 -18  15    9.55   10.77
   5  18  15   14.43   15.98
   5 -18  16   40.01   20.90
  -5  19  19  -12.60   16.88
  -5  19  18   -3.75   10.80
  -5  19  17   -0.78    7.06
  -5  19  16   19.28   11.05
  -5  19  15   20.77   12.33
  -5  19  14   -2.09    7.61
   5 -19 -14   -8.61    7.01
  -5  19  13   29.94   14.72
   5 -19 -13   25.14   12.19
  -5  19  12   18.35    8.83
   5 -19 -12   34.86   14.16
   5 -19 -11   46.57   15.28
  -5  19  11   28.98   15.58
   5 -19 -10   35.23   14.35
  -5  19  10   14.67   11.91
  -5  19   9   90.49   26.39
   5 -19  -9  135.55   25.25
   5 -19  -8   45.44   16.95
  -5  19   8    0.19    2.13
  -5  19   7  169.79   35.70
  -5  19   6    0.98    2.31
  -5  19   5   -5.99   10.14
  -5  19   4   -4.73    8.16
  -5  19   3  124.48   27.50
  -5  19   2   33.32   13.32
  -5  19   1  352.85   47.10
  -5  19   0    5.24    7.93
  -5  19  -1    1.29    1.36
  -5  19  -2   -1.87    3.31
  -5 -19  -2  -11.30   13.04
  -5  19  -3   10.90    6.77
  -5 -19  -3    8.77    2.73
  -5  19  -4   37.33   13.60
   5 -19   4   44.08   18.88
  -5 -19  -4   38.14   14.78
  -5 -19  -5  121.66   27.70
   5 -19   5  126.10   30.51
   5 -19   6   83.10   24.69
  -5 -19  -6   95.11   25.03
   5 -19   7    8.83    8.05
  -5 -19  -7   37.37   20.92
  -5 -19  -8  128.90   32.25
   5 -19   8  102.47   27.37
  -5 -19  -9   28.48   20.17
   5 -19   9   -3.38    6.16
   5  19  10   11.37   17.23
   5 -19  10    7.09    8.48
   5 -19  11  129.40   33.06
   5  19  11  150.36   39.47
   5 -19  12   23.52   14.17
   5  19  12   41.78   22.72
   5 -19  13   33.80   17.15
   5  19  13   28.53   18.36
   5 -19  14    0.90    4.92
   5  19  14    5.08    9.13
   5 -19  15    2.27    3.89
  -5  20  18  -12.39   14.15
  -5  20  17   12.56   10.36
  -5  20  16   -0.01    5.23
  -5  20  15    1.04    7.02
  -5  20  14   -8.27    8.16
  -5  20  13    7.10    5.43
   5 -20 -13   20.42   11.68
   5 -20 -12   35.33   14.73
  -5  20  12   17.49   12.22
  -5  20  11  110.35   30.47
   5 -20 -11  157.41   27.40
  -5  20  10   -2.84   11.15
   5 -20 -10   48.27   17.88
   5 -20  -9   65.69   18.86
  -5  20   9   30.91   15.26
  -5  20   8    2.62    3.13
  -5  20   7  104.86   27.65
  -5  20   6  166.81   34.08
  -5  20   5    3.73    6.51
  -5  20   4   -9.48   10.93
  -5  20   3   12.85    7.30
  -5  20   2  137.71   30.01
  -5  20   1  148.12   30.99
  -5  20   0   41.02   15.83
  -5  20  -1   56.71   18.49
  -5  20  -2    6.53    5.45
  -5 -20  -2   -3.48    9.78
  -5  20  -3  319.74   41.90
  -5 -20  -3  314.72   42.42
  -5 -20  -4    0.46    1.83
  -5  20  -4    0.04    2.75
   5 -20   4    4.11    9.05
  -5 -20  -5  105.05   24.97
   5 -20   5   90.49   26.67
   5 -20   6    7.79    8.22
  -5 -20  -6   21.11   14.95
  -5 -20  -7   76.57   24.27
   5 -20   7   54.01   21.22
   5 -20   8   13.87   11.94
  -5 -20  -8   52.49   21.55
   5  20   9   33.27   22.16
  -5 -20  -9   61.63   24.53
   5 -20   9    2.93    5.84
   5  20  10   77.91   29.59
   5 -20  10   75.61   26.15
  -5 -20 -10  107.21   31.94
   5  20  11   38.20   24.00
   5 -20  11   14.40   10.32
   5 -20  12   -2.82    8.08
   5  20  12   14.22   16.65
   5 -20  13    0.06    6.22
   5  20  13   12.88   15.53
   5  20  14   16.01   18.32
   5 -20  14    8.91   10.46
   5 -20  15   13.09    9.53
  -5  21  17    4.68    2.98
  -5  21  16   64.47   25.92
  -5  21  15   22.67   13.27
  -5  21  14  187.04   42.81
  -5  21  13    6.57    5.10
   5 -21 -12   29.48   14.49
  -5  21  12    0.25    1.61
  -5  21  11   10.98    9.68
   5 -21 -11   52.88   18.14
   5 -21 -10  114.94   24.25
  -5  21  10   70.23   23.93
  -5  21   9   -1.47    8.50
  -5  21   8   71.52   23.97
  -5  21   7   -3.44    4.85
  -5  21   6   58.64   21.87
  -5  21   5   29.58   13.61
  -5  21   4   19.48    8.53
  -5  21   3   -9.18   10.67
  -5  21   2   28.69   13.65
  -5  21   1   66.93   21.78
  -5  21   0   38.62   15.73
  -5  21  -1   -1.01    5.02
  -5  21  -2   18.57   10.29
  -5 -21  -2   -3.19   11.94
  -5  21  -3   -0.78    3.70
  -5 -21  -3  -19.37   15.56
  -5  21  -4   83.24   21.28
  -5 -21  -4   64.86   18.30
   5 -21   4  104.23   27.69
   5 -21   5   29.68   15.61
  -5 -21  -5   22.44   11.82
   5 -21   6   99.26   28.78
  -5 -21  -6  104.91   26.82
  -5 -21  -7   69.77   23.54
   5 -21   7   71.65   24.68
   5 -21   8    5.87    7.63
   5  21   8   28.64   21.08
  -5 -21  -8   30.49   18.11
   5 -21   9    4.73    7.13
   5  21   9   30.61   22.76
  -5 -21  -9   23.01   16.10
   5  21  10   21.51   18.75
  -5 -21 -10   35.17   20.38
   5 -21  10    1.77    7.18
   5 -21  11   18.73   10.67
  -5 -21 -11   62.48   26.27
   5  21  11   35.64   22.01
   5 -21  12    3.86    3.83
   5  21  12   20.49   16.21
   5 -21  13   26.02   14.20
   5  21  13   27.99   17.62
   5 -21  14    7.37   10.99
  -5  22  16    8.03    8.64
  -5  22  15   -4.59    8.78
  -5  22  14    3.78    4.79
  -5  22  13   -7.46   11.46
  -5  22  12    7.21    4.45
   5 -22 -12   65.30   19.73
  -5  22  11   -4.99   11.25
  -5  22  10   22.04   13.87
  -5  22   9   -2.65    7.20
  -5  22   8   42.07   17.04
  -5  22   7   27.67   13.96
  -5  22   6  252.54   44.79
  -5  22   5    2.49    2.82
  -5  22   4  145.40   32.86
  -5  22   3  -12.73   13.46
  -5  22   2   23.28   11.21
  -5  22   1   -1.93    4.43
  -5  22   0   37.77   16.68
  -5  22  -1    5.11    6.55
  -5  22  -2  103.80   25.80
  -5 -22  -3    4.11   11.79
  -5  22  -3   27.10   13.37
   5 -22   4    1.07    5.68
  -5  22  -4   -1.30    2.35
  -5 -22  -4   -5.29    9.12
   5 -22   5   25.60   16.74
  -5 -22  -5   10.40    7.66
  -5 -22  -6   36.27   16.67
   5 -22   6   44.18   20.16
   5  22   7   39.87   23.71
  -5 -22  -7   41.81   18.70
   5 -22   7   29.07   16.72
   5  22   8   58.61   26.66
  -5 -22  -8   50.47   19.96
   5 -22   8   39.05   19.52
   5  22   9   12.20   12.43
  -5 -22  -9   45.75   21.57
   5 -22   9   12.73   10.53
  -5 -22 -10   42.49   20.75
   5 -22  10   20.08   15.41
   5  22  10   20.90   19.87
  -5 -22 -11   38.59   21.82
   5 -22  11   -1.54    3.56
   5  22  11   26.80   20.08
   5 -22  12    4.19    5.53
   5  22  12   20.19   16.27
  -5 -22 -12   33.60   22.62
   5 -22  13   -0.44    4.23
  -5  23  15    2.05    4.09
  -5  23  14   10.27    9.84
  -5  23  13   20.88   12.89
  -5  23  12   -8.75   11.68
  -5  23  11    5.43   10.47
  -5  23  10    5.82    6.88
  -5  23   9   -0.62    5.06
  -5  23   8   17.67    9.40
  -5  23   7   48.47   20.08
  -5  23   6   -0.58    5.73
  -5  23   5   47.33   19.85
  -5  23   4   40.87   18.28
  -5  23   3   -5.45    7.36
  -5  23   2   83.76   24.63
  -5  23   1   -6.21   10.51
  -5  23   0    5.13    2.13
  -5  23  -1   77.26   23.40
  -5  23  -2    5.48    6.89
  -5  23  -3    3.93    4.66
  -5 -23  -3  -17.69   13.60
  -5  23  -4   39.66   15.69
  -5 -23  -4   31.68   10.32
   5 -23   5    3.12    7.07
  -5 -23  -5   -7.59    7.61
   5  23   6   81.14   30.22
  -5 -23  -6   59.81   19.97
   5 -23   6   56.17   22.93
   5  23   7   50.10   24.83
  -5 -23  -7   40.72   17.24
   5 -23   7   26.61   15.73
   5 -23   8   12.43   10.59
  -5 -23  -8   31.62   17.04
   5  23   8   23.33   19.53
   5 -23   9    6.75    7.07
  -5 -23  -9   19.90   14.63
   5  23   9   17.48   15.59
  -5 -23 -10   38.85   20.27
   5 -23  10   14.89   11.24
   5  23  10   24.73   18.86
  -5 -23 -11  102.51   31.62
   5 -23  11   50.00   23.34
   5  23  11   57.93   27.04
   5 -23  12    2.69    6.89
  -5 -23 -12   37.49   20.59
  -5  24  14   27.86   17.94
  -5  24  13   61.55   24.64
  -5  24  12   22.02   14.26
  -5  24  11   51.02   23.43
  -5  24  10   -1.98    8.78
  -5  24   9   16.43   11.56
   5  24  -8   39.22   18.18
  -5  24   8   23.29   12.46
   5  24  -7   43.21   18.41
  -5  24   7   11.57    9.14
  -5  24   6   26.21   13.80
  -5  24   5   -5.62    8.37
  -5  24   4   68.39   23.38
  -5  24   3   19.37    9.06
  -5  24   2   85.51   25.89
  -5  24   1    0.54    8.52
  -5  24   0    7.99    9.36
  -5  24  -1  146.85   32.21
  -5  24  -2   75.02   22.80
  -5  24  -3    9.45    6.93
   5  24   4   20.81   18.95
  -5 -24  -4  -14.15   12.56
   5  24   5   47.55   24.19
  -5 -24  -5   10.60    5.97
   5 -24   5   45.40   21.77
   5  24   6   31.90   21.36
  -5 -24  -6   10.94    8.62
   5 -24   6   20.80   14.95
   5  24   7   10.58   15.60
   5 -24   7   11.83   12.22
  -5 -24  -7    6.31    6.58
  -5 -24  -8   51.42   21.25
   5 -24   8   64.75   25.16
   5  24   8   43.48   24.08
   5 -24   9   21.63   16.36
  -5 -24  -9   29.39   17.46
   5  24   9   17.20   14.51
  -5 -24 -10   16.12   14.16
   5 -24  10    3.49    5.25
   5  24  10    5.35    8.64
   5 -24  11   -4.10    5.38
  -5 -24 -11   24.90   20.30
  -5 -24 -12   29.54   20.13
  -5  25  13    1.00    9.90
  -5  25  12   35.08   19.24
  -5  25  11   -2.92    6.49
  -5  25  10    3.48    7.09
  -5  25   9   18.81   13.32
  -5  25   8  -10.54   10.43
   5  25  -7   48.55   19.46
  -5  25   7   19.39   11.98
   5  25  -6   45.23   19.54
  -5  25   6   10.84    8.99
   5  25  -5   23.56   16.68
  -5  25   5    2.29    3.15
  -5  25   4   -2.86   10.52
  -5  25   3   35.15   15.00
  -5  25   2    1.17    4.19
  -5  25   1    4.85    0.93
  -5  25   0   10.79    8.90
  -5  25  -1    6.28    5.66
   5  25   2   32.64   19.50
  -5  25  -2    4.24    3.73
  -5  25  -3    0.20    2.69
   5  25   3   24.18   18.05
   5  25   4   40.53   22.81
  -5 -25  -4   -3.73   10.63
   5  25   5   33.05   22.96
   5 -25   5   14.57   13.91
  -5 -25  -5   -3.38    8.28
   5  25   6   21.19   19.12
  -5 -25  -6   -2.77    6.49
   5 -25   6   11.70   12.61
   5 -25   7    5.61   10.74
  -5 -25  -7    0.00    4.08
   5  25   7   22.67   18.25
   5 -25   8   -1.98    4.94
  -5 -25  -8   14.77   12.76
   5  25   8   12.79   13.46
   5 -25   9   18.16   14.29
  -5 -25  -9   26.49   16.81
   5  25   9   29.66   21.15
  -5 -25 -10   26.87   16.95
   5 -25  10   12.24    9.23
  -5 -25 -11   63.67   25.71
  -5 -25 -12   46.19   23.11
  -5  26  12    1.71    2.10
  -5  26  11   24.78   16.37
  -5  26  10   -7.56   10.49
  -5  26   9   -8.30    8.55
  -5  26   8   -2.71    5.07
  -5  26   7   -7.52   10.36
   5  26  -7   10.06   10.62
   5  26  -6   53.20   20.39
  -5  26   6   27.78   15.60
   5  26  -5   68.23   24.24
  -5  26   5   26.41   12.18
   5  26  -4   37.79   18.88
  -5  26   4   13.83    9.69
   5  26  -3   28.04   17.61
  -5  26   3   -0.91    8.64
   5  26  -2   22.10   16.31
  -5  26   2    5.32    4.91
  -5  26   1   46.06   19.05
   5  26  -1   85.29   29.02
   5  26   0   41.83   22.86
  -5  26   0    3.66    4.07
   5  26   1   57.53   24.52
  -5  26  -1   25.52   15.67
   5  26   2   31.82   21.31
  -5  26  -2   19.41   12.16
   5  26   3  110.21   33.47
   5  26   4   18.84   17.69
   5  26   5   23.50   17.91
   5 -26   5    6.90   10.01
   5 -26   6    7.20   11.55
   5  26   6   22.11   18.09
   5 -26   7    1.89    5.00
   5  26   7   11.87   15.06
   5 -26   8   19.55   13.05
  -5  27  11   35.36   18.42
  -5  27  10   15.79   11.19
  -5  27   9   -3.59    8.56
  -5  27   8   -1.13    7.71
  -5  27   7   -8.84   14.24
  -5  27   6   -5.03    9.24
   5  27  -6   22.37   14.53
  -5  27   5   -1.48    5.95
   5  27  -5   20.52   14.11
  -5  27   4   21.22   13.19
   5  27  -4   26.74   18.07
   5  27  -3   21.17   15.73
  -5  27   3    6.87    6.86
   5  27  -2   11.39   13.40
  -5  27   2  -16.15   15.04
   5  27  -1   44.26   22.24
  -5  27   1   23.20   12.73
   5  27   0   25.38   20.16
  -5  27   0    9.17   10.18
   5  27   1   37.32   22.66
  -5  27  -1   11.95   10.88
  -5  27  -2   77.09   24.70
   5  27   2  105.41   32.68
   5  27   3   20.40   19.33
   5  27   4   22.93   16.98
   5 -27   5    0.45    7.62
   5  27   5    7.84   14.78
   5 -27   6   12.02   13.76
   5  27   6   30.64   20.61
   5 -27   7    9.61   11.64
  -5  28   9   -7.24   11.93
  -5  28   8   17.14   12.77
  -5  28   7   19.73   13.34
  -5  28   6   20.24   14.98
   5  28  -6   41.49   18.14
  -5  28   5    9.21    8.90
   5  28  -5   37.65   18.14
  -5  28   4   12.94   10.98
   5  28  -4   41.64   19.29
  -5  28   3    9.17    6.17
   5  28  -3   31.94   18.85
  -5  28   2   12.61    9.81
   5  28  -2   39.43   20.94
  -5  28   1    2.23    5.61
   5  28  -1   33.35   19.46
   5  28   0   21.64   18.24
  -5  28   0    2.82    6.83
  -5  28  -1   -2.32    7.19
   5  28   1   24.56   19.24
   5  28   2   17.44   18.13
   5  28   3   26.36   18.70
   5  28   4   12.41   14.38
   5 -28   5   23.04   15.92
   5  28   5   56.85   26.68
  -5  29   8    4.49    3.05
  -5  29   7    2.41    5.82
  -5  29   6    6.06    5.84
  -5  29   5   -3.44    9.54
   5  29  -5    9.19    9.90
  -5  29   4   19.92   12.94
   5  29  -4   29.56   16.49
  -5  29   3    0.48    9.92
   5  29  -3   14.96   14.56
  -5  29   2   -1.60   11.24
   5  29  -2    9.36   11.56
  -5  29   1   -4.56   11.14
   5  29  -1   10.06   13.70
  -5  29   0   10.01   11.96
   5  29   0   11.32   12.55
  -5  29  -1    2.23    2.13
   5  29   1   13.17   15.87
   5  29   2   37.29   22.03
   5  29   3   16.64   17.73
   5  29   4    8.53    9.40
  -5  30   7  -10.71   13.20
  -5  30   6   19.44   13.07
  -5  30   5    2.36    7.60
   5  30  -5   12.37   11.61
  -5  30   4   -3.62    8.63
   5  30  -4   11.26   12.35
  -5  30   3   -2.75   10.48
   5  30  -3   12.99   11.86
   5  30  -2   13.98   13.46
  -5  30   2    0.55    6.99
  -5  30   1   32.51   19.26
   5  30  -1   15.29   14.57
  -5  30   0    7.25   10.93
   5  30   0   20.36   16.68
   5  30   1   19.88   17.11
   5  30   2   13.49   13.90
  -5  31   5  -16.16   16.36
  -5  31   4   -7.80   12.86
   5  31  -4    2.89    2.63
  -5  31   3   -9.49   11.89
   5  31  -3   -3.81    6.53
  -5  31   2  -12.12   14.68
   5  31  -2   17.47   17.30
  -5  31   1   12.70   13.65
   5  31  -1   23.68   18.24
  -5  31   0   12.50   10.10
   5  31   0   19.49   13.65
  -5  32   3   -6.21   12.62
   5  32  -3   -6.27   10.38
  -5  32   2    6.79    9.50
   5  32  -2   10.96   11.30
  -5  32   1    8.52   14.88
   5  32  -1   16.30   15.04
   5  33  -3   -1.61    2.60
   6   0 -22    5.52   10.44
   6   0 -21   -1.04    4.46
   6   0 -20   24.81   16.80
   6   0 -19   -2.45    6.08
   6   0 -18  150.38   33.18
   6   0 -17   -8.14    9.18
   6   0 -16   53.82   18.53
   6   0 -15    0.67    9.17
   6   0 -14   -8.55   12.90
   6   0 -13  -11.76   12.50
   6   0 -12   27.70    9.35
   6   0 -11  -21.97   14.42
   6   0 -10  137.17   21.89
   6   0  -9  -11.79   10.69
  -6   0   8    6.54    2.62
   6   0  -8   -2.74    7.71
   6   0  -7    0.65    1.72
  -6   0   7    0.37    1.55
   6   0  -6    6.03    2.07
  -6   0   6    6.02    0.91
   6   0  -6    6.63    3.22
   6   0  -5   -1.50    2.52
   6   0  -5   -4.24    4.87
  -6   0   5   -1.76    1.97
  -6   0   4 1012.85   46.33
   6   0  -4  987.86   45.82
   6   0  -4 1008.68   43.67
   6   0  -3   -4.09    3.91
   6   0  -3   -0.51    0.49
  -6   0   3   -2.26    2.34
   6   0  -3   -5.11    7.54
   6   0  -2  684.17   42.02
   6   0  -2  697.68   27.64
   6   0  -2  700.99   45.66
   6   0  -1    1.86    3.78
   6   0  -1    1.13    1.35
   6   0  -1    0.33    0.71
   6   0   0  502.96   39.23
  -6   0   0  516.94   42.95
   6   0   0  532.74   37.14
  -6   0  -1   -1.67    2.45
   6   0   1   -2.50    2.83
  -6   0  -2   10.15    9.22
   6   0   2    2.51    3.10
   6   0   3   -7.98    8.01
  -6   0  -3   26.56   13.74
   6   0   4  648.69   51.20
   6   0   5    0.22    1.86
   6   0   6   48.53   14.44
   6   0   7   -2.21    4.02
   6   0   8    1.31    2.17
   6   0   9   -3.89    7.94
   6   0  10   37.53   15.04
   6   0  11   -1.94    4.38
   6   0  12   35.92   17.00
   6   0  13    2.52    5.40
   6   0  14   29.49   14.54
   6   0  15    7.32    9.66
   6   1 -22   19.94   18.08
   6  -1 -22   13.08   13.62
   6  -1 -21   20.30   14.15
   6   1 -21   28.73   18.89
   6  -1 -20   28.70   16.82
   6   1 -20   33.41   18.61
   6  -1 -19    1.25    4.86
   6   1 -19    6.63   10.53
   6  -1 -18    3.57    2.80
   6   1 -18   17.98   11.54
   6  -1 -17    1.94    5.36
   6   1 -17   18.35   12.49
   6  -1 -16  -11.06   12.65
   6   1 -16   -2.23    3.18
   6  -1 -15    1.89   10.66
   6   1 -15    1.28    3.15
   6  -1 -14  100.94   22.80
   6   1 -14   94.56   22.09
   6  -1 -13   -9.32   11.68
   6   1 -13   -1.57    8.36
   6  -1 -12   -4.57   11.85
   6   1 -12    1.63    6.29
   6  -1 -11  157.96   26.14
   6   1 -11  168.12   26.20
   6  -1 -10  107.43   21.81
   6   1 -10   86.44   17.43
  -6  -1   9    3.20    1.58
   6  -1  -9    3.99    2.81
   6   1  -9   -2.26    6.23
  -6  -1   8  446.43   22.36
   6  -1  -8  455.82   22.23
   6  -1  -8  474.21   40.07
   6   1  -8  472.64   39.25
  -6  -1   7   40.81    7.42
   6  -1  -7   44.36    7.79
   6  -1  -7   43.65   11.06
   6   1  -7   42.51   10.30
  -6   1   7   42.22    7.70
   6   1  -6  451.21   27.22
   6  -1  -6  449.76   27.25
   6  -1  -6  462.32   34.90
   6   1  -6  464.97   34.64
  -6   1   6  441.41   27.01
  -6  -1   6  452.78   27.38
   6   1  -5   13.53    5.22
  -6  -1   5   15.92    5.27
   6  -1  -5   12.97    5.19
  -6   1   5   11.88    4.66
   6   1  -5   11.99    4.41
   6  -1  -5   14.56    5.29
   6   1  -4 1153.24   49.53
  -6   1   4 1171.45   49.95
   6   1  -4 1161.47   46.10
   6  -1  -4 1149.32   47.17
  -6  -1   4 1190.70   49.87
   6  -1  -4 1154.64   49.54
   6   1  -3   87.95   14.46
  -6   1   3   93.69   14.63
   6  -1  -3   92.51   11.81
   6   1  -3   87.76   11.51
   6  -1  -3   90.56   14.52
  -6  -1   3   91.94   14.62
   6   1  -2   -2.49    3.17
   6  -1  -2   -0.04    0.51
   6   1  -2    2.66    2.21
   6  -1  -2   -1.59    3.35
   6   1  -2   -2.84    5.80
   6  -1  -2   -5.78    7.47
   6   1  -1   -0.86    3.80
   6  -1  -1    1.32    1.44
   6  -1  -1   -0.51    1.92
   6   1  -1   -2.42    3.45
   6  -1  -1    0.41    3.24
   6   1   0  209.82   25.77
   6  -1   0  222.23   25.88
  -6   1   0  187.68   24.17
  -6  -1   0  206.65   26.62
   6   1   0  233.48   24.71
   6  -1   0  225.71   25.35
   6   1   1  351.82   29.39
   6   1   1  325.86   33.06
  -6  -1  -1  315.77   34.17
   6  -1   1  317.27   32.81
  -6  -1  -1  343.20   30.21
  -6   1  -1  331.06   34.53
   6   1   2   64.86   15.52
  -6  -1  -2   78.05   18.79
   6  -1   2   65.53   15.12
  -6   1  -2   77.16   17.19
  -6  -1  -3   60.72   16.95
   6  -1   3   45.97   13.50
  -6   1  -3   61.61   16.46
   6   1   3   35.05   11.49
   6  -1   4   46.66   13.52
   6   1   4   45.01   13.18
   6   1   5    5.98    3.99
   6  -1   5    5.82    4.63
   6   1   6   22.13    9.48
   6  -1   6   22.07   10.18
   6   1   7   -3.27    4.74
   6  -1   7   -7.59    8.24
   6   1   8  106.36   23.76
   6  -1   8  106.17   23.39
   6   1   9    6.40    6.92
   6  -1   9    6.75    6.20
   6  -1  10    5.75    7.87
   6   1  10    7.74    7.66
   6   1  11   15.11    9.17
   6  -1  11   22.61   12.09
   6   1  12  137.57   29.82
   6  -1  12  130.95   28.95
   6   1  13   25.35   13.13
   6  -1  13   22.70   12.66
   6   1  14   45.89   17.95
   6  -1  14   40.90   18.09
   6  -1  15   35.18   15.96
   6  -1  16   14.78   12.58
   6  -2 -22   -2.51    6.00
   6   2 -22   35.87   21.07
   6  -2 -21   -3.37    4.44
   6   2 -21   24.47   18.61
   6  -2 -20   -6.16    9.20
   6   2 -20   17.28   14.05
   6  -2 -19   10.40    6.93
   6   2 -19    9.93   11.35
   6  -2 -18   49.93   17.07
   6   2 -18   69.70   23.60
   6  -2 -17  -11.37   12.14
   6   2 -17    1.38    7.55
   6  -2 -16  123.40   28.57
   6   2 -16  124.61   28.94
   6  -2 -15   -9.30   12.91
   6   2 -15    2.36    4.96
   6  -2 -14  -17.45   15.13
   6   2 -14   -0.35    4.70
   6  -2 -13  182.39   30.80
   6   2 -13  214.70   32.89
   6  -2 -12  103.74   23.28
   6   2 -12  107.95   22.62
   6  -2 -11  185.23   29.57
   6   2 -11  181.11   26.60
   6  -2 -10    3.50    2.90
   6   2 -10   -3.84    5.90
   6  -2  -9  121.72   10.15
  -6  -2   9  121.25   10.32
   6  -2  -9  130.52   22.43
   6   2  -9  131.70   21.60
   6  -2  -8   32.29    6.07
   6  -2  -8   29.47   10.02
   6   2  -8   24.73    7.91
  -6  -2   8   31.43    6.07
   6  -2  -7  294.94   30.24
   6   2  -7  286.00   29.10
   6  -2  -7  292.68   20.61
  -6  -2   7  293.12   20.89
  -6   2   6    2.26    2.05
  -6  -2   6    0.36    1.39
   6  -2  -6   -4.58    4.75
   6   2  -6    0.60    1.70
   6  -2  -6    0.65    1.51
  -6  -2   5    5.78    3.23
  -6  -2   5    5.87    2.42
   6  -2  -5    9.29    4.52
  -6   2   5    8.30    4.30
   6   2  -5    9.73    4.68
   6  -2  -5    6.93    3.90
   6   2  -4  125.39   16.45
   6  -2  -4  128.65   15.72
  -6  -2   4  125.12   15.27
  -6  -2   4  127.01   16.30
   6  -2  -4  129.62   16.84
   6   2  -4  127.88   15.20
  -6   2   4  130.18   16.30
   6   2  -3   71.93   13.32
   6  -2  -3   73.57   13.28
   6   2  -3   71.47   10.58
   6  -2  -3   71.10   10.78
  -6  -2   3   70.95   10.21
  -6  -2   3   77.23   13.31
  -6   2   3   76.39   13.63
   6   2  -2   98.35   16.24
   6   2  -2  100.76   15.63
   6  -2  -2  103.90   16.46
   6  -2  -1   18.23    7.07
   6   2  -1   22.05    7.42
   6   2  -1   16.53    3.72
   6  -2  -1   32.49   10.56
   6  -2   0   -0.36    2.51
  -6   2   0  -10.85    8.31
  -6  -2   0  -11.02   10.03
   6   2   0   -1.75    3.40
   6   2   0   -1.15    2.34
   6   2   1   45.27   12.26
  -6  -2  -1   53.11   13.93
   6  -2   1   46.95   12.65
  -6   2  -1   53.75   13.22
   6   2   1   87.36   15.68
  -6   2  -2   43.16   13.21
   6   2   2   45.30   12.57
  -6  -2  -2   58.05   16.53
  -6  -2  -2   35.64    9.11
   6  -2   2   41.44   12.16
   6   2   3   97.93   19.45
  -6   2  -3  121.89   21.85
  -6  -2  -3  102.71   22.41
   6  -2   3  103.90    8.76
  -6  -2  -3   93.23   14.75
   6  -2   3  105.91   20.25
   6   2   4   80.39   18.07
   6  -2   4   85.97   18.81
   6  -2   4   86.64    9.40
   6   2   5    4.30    5.40
   6  -2   5    6.41    4.39
   6   2   6    0.08    2.93
   6  -2   6   -0.10    1.21
   6   2   7    4.90    5.87
   6  -2   7    9.89    5.79
   6   2   8   10.17    9.37
   6  -2   8    8.74    6.30
  -6  -2  -8   13.16    7.27
   6   2   9  128.83   26.78
   6  -2   9  121.29   25.37
  -6  -2  -9  151.84   20.23
   6   2  10    2.02    5.56
   6  -2  10   -0.70    3.65
   6   2  11  197.93   34.51
   6  -2  11  208.29   36.60
   6  -2  12    1.24    3.60
   6   2  12    6.24    8.66
   6   2  13   28.75   14.95
   6  -2  13   33.00   14.51
   6  -2  14   -1.41    4.47
   6  -2  15    7.54    6.59
   6  -2  16   23.66   13.70
   6  -2  17   -0.50    5.58
   6  -3 -22    1.38    6.79
   6   3 -22   32.21   20.11
   6  -3 -21   46.82   20.22
   6   3 -21   52.17   21.54
   6  -3 -20   -1.31    8.95
   6   3 -20   25.98   17.22
   6  -3 -19   30.10   11.76
   6   3 -19   45.34   21.51
   6  -3 -18   -4.27    9.96
   6   3 -18    9.25   12.70
   6  -3 -17   18.32   10.22
   6   3 -17   40.14   17.59
   6  -3 -16   -4.26   12.03
   6   3 -16    7.87    9.42
  -6   3  15   38.12   12.42
   6  -3 -15   36.65   12.10
   6   3 -15   54.63   19.50
  -6   3  14   18.68    8.82
   6  -3 -14   29.15   14.08
   6   3 -14   38.17   16.14
  -6   3  13  105.48   21.69
   6  -3 -13  108.14   24.85
   6   3 -13  112.39   24.79
  -6   3  12   -6.64    6.90
   6  -3 -12    0.50    3.13
   6   3 -12    7.60    7.82
   6  -3 -11  205.21   30.65
   6   3 -11  219.83   31.48
   6  -3 -10   30.56    4.35
   6  -3 -10   34.50   12.16
   6   3 -10   41.58   13.52
  -6  -3  10   32.93    4.80
   6  -3  -9   70.95    8.46
   6  -3  -9   75.90   16.84
  -6  -3   9   75.55    8.93
   6   3  -9   76.97   17.27
   6  -3  -8   54.91   13.33
  -6  -3   8   58.24    8.73
   6  -3  -8   60.69    8.90
   6   3  -8   58.84   14.48
   6  -3  -7   30.77    6.77
   6   3  -7   34.59   10.67
  -6  -3   7   31.86    7.03
   6  -3  -7   30.83    9.58
   6  -3  -6   20.08    5.87
   6  -3  -6   18.58    5.69
   6   3  -6   21.45    7.99
  -6  -3   6   20.54    5.92
  -6  -3   5   70.41   11.84
  -6  -3   5   67.09   12.88
   6   3  -5   62.61   12.06
   6  -3  -5   71.43   12.01
  -6   3   5   73.53   12.51
  -6   3   4  234.99   23.06
  -6  -3   4  247.84   23.46
  -6  -3   4  247.46   22.12
   6  -3  -4  247.59   23.51
   6  -3  -3   21.43    7.42
  -6  -3   3   23.48    6.04
  -6   3   3   24.11    7.16
  -6  -3   3   22.44    7.18
   6   3  -2  510.31   36.74
  -6  -3   2  504.38   25.12
   6  -3  -2  523.31   37.70
   6   3  -2  517.89   36.75
   6   3  -1  215.43   25.43
  -6  -3   1  213.88   13.58
   6  -3  -1  211.01   25.65
   6   3  -1  210.53   22.66
  -6   3   0   -2.82    7.18
   6  -3   0    7.58    4.48
   6   3   0   10.21    5.59
   6   3   0    4.77    3.52
  -6  -3   0   -2.25    6.49
   6   3   1  322.98   33.08
  -6   3  -1  364.45   33.71
  -6  -3  -1  328.33   35.66
   6  -3   1  325.11   33.31
   6   3   1  331.14   27.02
   6  -3   2   -0.78    3.32
  -6  -3  -2   14.35   10.55
  -6  -3  -2   -2.48    4.69
   6   3   2    2.99    4.10
  -6   3  -2    3.21    5.78
   6   3   3   81.09   17.62
  -6  -3  -3  105.16   23.17
  -6   3  -3   93.14   19.33
   6  -3   3   84.27    9.23
   6  -3   3   78.71   17.67
  -6  -3  -3   76.42   12.83
   6   3   4    5.04    4.07
   6  -3   4    5.87    2.15
  -6  -3  -4    7.77    2.59
  -6  -3  -4    5.21    3.22
   6  -3   4    4.57    4.63
   6   3   5   16.25    9.20
   6  -3   5    9.15    3.45
  -6  -3  -5   13.41    4.28
   6  -3   5   11.07    6.67
   6   3   6   22.59   11.66
   6  -3   6   21.83    6.11
  -6  -3  -6   23.50    5.91
   6  -3   6   16.96    8.13
   6   3   7  102.12   22.05
   6  -3   7  102.82   15.00
  -6  -3  -7  112.64   14.49
   6  -3   7  105.16   22.74
   6   3   8   -0.79    1.16
  -6  -3  -8    5.10    5.51
   6  -3   8    0.08    1.31
   6   3   9   26.05   12.92
   6  -3   9   18.89    9.60
  -6  -3  -9   26.76    9.26
   6   3  10    6.87    7.26
   6  -3  10    4.22    4.42
  -6  -3 -10    7.59    6.61
   6   3  11    8.57    9.35
   6  -3  11   -2.36    5.93
  -6  -3 -11    6.68    6.25
   6  -3  12   -3.82    7.64
   6  -3  13   54.50   18.54
   6  -3  14    3.49    2.95
   6  -3  15    0.67    5.10
   6  -3  16   -2.05    6.56
   6  -3  17   -3.62    7.27
   6  -4 -22    4.28    9.43
   6  -4 -21   10.05   12.33
   6   4 -21   37.09   21.89
   6  -4 -20   -6.99   10.41
   6   4 -20   26.95   19.33
   6  -4 -19   -1.36    8.57
   6   4 -19   25.87   17.95
  -6   4  18   25.19   11.96
   6  -4 -18    9.36    3.33
  -6   4  17   -4.01    8.90
   6  -4 -17  -13.27   13.57
   6   4 -17   13.61   12.69
  -6   4  16   31.81   12.49
   6  -4 -16   33.66   14.36
   6   4 -16   54.36   20.27
  -6   4  15   32.74   12.26
   6  -4 -15   30.81   13.80
   6   4 -15   55.78   20.06
  -6   4  14    6.35    5.92
   6  -4 -14    5.20    5.80
   6   4 -14   19.84   14.14
  -6   4  13  310.07   39.63
   6  -4 -13  325.35   43.16
   6   4 -13  340.88   43.06
  -6   4  12    0.79    4.93
   6  -4 -12    2.11    5.50
   6   4 -12   11.52   10.20
  -6   4  11  492.63   47.80
   6  -4 -11  475.48   48.69
   6   4 -11  507.79   47.76
  -6  -4  11  444.36   15.96
  -6   4  10   13.59    8.24
  -6  -4  10   17.51    4.07
   6  -4 -10   16.70    7.52
   6  -4 -10   19.27    4.28
   6   4 -10   28.20   13.51
  -6   4   9  113.27   22.40
  -6  -4   9  123.21   12.47
   6  -4  -9  116.42   21.84
   6   4  -9  129.55   22.40
   6  -4  -9  124.45   12.31
  -6  -4   8  100.94   12.43
   6   4  -8  109.31   19.65
   6  -4  -8   86.53   17.74
   6  -4  -8   99.71   12.23
  -6  -4   7  110.16   13.91
   6   4  -7  110.74   18.66
   6  -4  -7  107.89   13.64
  -6  -4   6  221.15   20.94
   6   4  -6  207.32   23.31
   6  -4  -6  211.39   20.46
  -6  -4   5    1.90    2.32
  -6  -4   5    0.31    2.10
   6  -4  -5   -1.37    0.54
  -6  -4   4  704.37   41.40
  -6  -4   4  679.13   38.13
   6  -4  -4  675.74   40.39
   6  -4  -3  175.20   22.00
  -6  -4   3  193.05   18.39
   6  -4  -3  181.25   21.87
  -6  -4   2   33.48    6.60
   6  -4  -2   32.59    9.98
   6  -4  -2   38.64   10.44
  -6  -4   1  298.36   33.55
  -6  -4   1  305.25   17.99
   6   4  -1  283.04   26.06
   6  -4  -1  298.37   30.15
   6  -4  -1  321.68   29.83
   6   4   0   43.66   11.78
  -6   4   0   22.37    4.75
  -6  -4   0   23.49    5.63
  -6  -4   0   37.80    5.37
   6  -4   0   35.18   10.92
   6   4   0   37.95    8.62
   6   4   1   15.79    7.27
  -6   4  -1   -0.81    3.89
   6   4   1    8.90    7.22
   6  -4   1    1.03    1.93
  -6  -4  -1    4.22    1.86
  -6  -4  -1    2.17    5.06
   6   4   2   22.97   10.10
   6  -4   2   18.43    8.75
  -6   4  -2   27.98   11.25
  -6  -4  -2   25.54   13.44
   6   4   3   86.95   18.82
  -6   4  -3   89.32   19.17
  -6  -4  -3  101.58   22.90
  -6  -4  -3   73.38    7.14
   6  -4   3   91.01   10.96
   6  -4   3   87.35   18.32
  -6  -4  -3   74.50   12.28
   6  -4   4   -2.87    3.05
   6   4   4    3.35    5.34
  -6  -4  -4   -0.93    1.59
   6  -4   4    0.59    1.70
  -6  -4  -4   -6.20    5.90
   6  -4   5   35.08   13.07
   6   4   5   42.86   14.85
  -6  -4  -5   35.41    6.33
   6  -4   5   35.30    7.18
  -6  -4  -5   34.06    7.29
   6   4   6   30.06   12.76
   6  -4   6   22.85    6.90
  -6  -4  -6   23.86    5.39
   6  -4   6   25.19   10.84
   6   4   7   32.80   13.42
   6  -4   7   33.47    8.59
  -6  -4  -7   27.50    6.79
   6  -4   7   29.85   11.87
   6   4   8   50.49   16.72
  -6  -4  -8   44.35   10.18
   6  -4   8   42.51   15.10
  -6  -4  -9   52.01   11.98
   6  -4   9   53.39   16.65
  -6  -4 -10    2.90    1.00
   6  -4  10    2.39    2.10
   6  -4  11  103.67   24.89
  -6  -4 -11  125.31   21.05
   6  -4  12   -0.64    2.74
   6  -4  13    4.93    2.83
   6  -4  14   39.25   17.91
   6  -4  15   -3.20    8.66
   6  -4  16   15.27   11.30
   6  -4  17   52.11   19.91
   6  -5 -22    0.01    4.23
   6  -5 -21   33.79   15.70
   6  -5 -20    2.21    7.80
  -6   5  19   29.86   13.39
   6  -5 -19   21.42    9.57
  -6   5  18    2.48    2.31
   6  -5 -18   -0.68    8.52
  -6   5  17   31.90   13.01
   6  -5 -17   40.69   17.37
   6   5 -17   55.88   21.70
   6  -5 -16   56.80   19.85
  -6   5  16   50.50   16.80
   6   5 -16   69.69   24.16
  -6   5  15   23.70    9.69
   6  -5 -15   35.35   14.78
   6   5 -15   55.28   21.97
  -6   5  14    8.88    5.01
   6  -5 -14    7.54    7.17
   6   5 -14   27.43   15.43
  -6   5  13   82.28   21.06
   6  -5 -13   86.30   21.78
   6   5 -13   96.94   24.27
  -6   5  12   12.48    6.43
  -6  -5  12   11.07    2.50
   6  -5 -12    7.94    1.38
  -6  -5  12   10.64    2.57
  -6   5  11   26.87   10.73
  -6  -5  11   37.20    6.14
   6  -5 -11   28.69   10.21
   6   5 -11   48.90   17.72
   6  -5 -11   37.64    5.96
  -6   5  10  143.66   25.69
   6  -5 -10  146.94   13.28
  -6  -5  10  153.23   14.24
   6  -5 -10  143.24   25.31
   6   5 -10  154.34   26.31
  -6   5   9   73.03   17.51
  -6  -5   9   81.45   11.29
   6  -5  -9   78.78   10.56
   6  -5  -9   77.09   16.88
   6   5  -9   88.95   19.63
  -6   5   8   82.55   18.78
  -6  -5   8   93.46   12.74
   6  -5  -8   91.58   12.36
  -6   5   7  896.70   61.62
  -6  -5   7  948.59   43.89
   6  -5  -7  907.74   41.61
  -6  -5   6  101.58   14.83
   6  -5  -6   94.78   14.30
  -6  -5   5   40.31    9.68
   6  -5  -5   35.78    9.02
  -6  -5   5   28.41    7.99
  -6  -5   4  205.00   22.79
   6  -5  -4  189.32   21.95
  -6  -5   4  207.15   21.46
   6  -5  -3  168.84   21.54
   6  -5  -3  173.05   21.52
  -6  -5   3  178.60   18.36
   6  -5  -2   27.83    8.88
  -6  -5   2   21.83    5.89
   6  -5  -2   19.01    7.22
   6  -5  -1  375.92   34.57
  -6  -5   1  321.40   35.18
   6  -5  -1  384.12   31.87
  -6  -5   1  353.38   21.59
   6   5  -1  349.26   28.39
  -6   5   0   82.72   14.06
   6   5   0   83.06   13.01
   6  -5   0   90.65   17.84
  -6  -5   0   73.94   13.71
  -6   5  -1  633.33   43.71
  -6  -5  -1  624.74   51.02
   6   5   1  596.13   33.55
   6  -5   1  616.64   47.39
  -6   5  -2   22.59    9.26
  -6  -5  -2   38.61   14.32
   6  -5   2   25.57    9.95
   6  -5   3   55.05   15.23
  -6  -5  -3   67.86   20.41
  -6   5  -3   72.88   16.55
   6  -5   4    7.58    5.72
  -6  -5  -4    4.66    1.91
   6  -5   4    7.78    4.65
  -6  -5  -4   -0.46    2.97
   6  -5   5   42.44   13.77
  -6  -5  -5   39.94    7.62
   6  -5   5   39.82    8.62
  -6  -5  -5   38.20    7.11
   6  -5   6   86.41   13.78
   6  -5   6   83.19   20.42
  -6  -5  -6   94.89   12.95
  -6  -5  -6   90.89   13.98
   6  -5   7   19.24    9.01
  -6  -5  -7   10.37    0.88
   6  -5   7   20.35    7.52
  -6  -5  -8   14.33    3.42
   6  -5   8   24.12   10.93
   6  -5   9   93.15   22.61
  -6  -5  -9  101.60   16.15
  -6  -5 -10   -2.98    4.02
   6  -5  10    0.94    5.42
  -6  -5 -11   58.36   14.55
   6  -5  11   57.65   18.27
   6  -5  12   -0.28    5.41
   6  -5  13    0.58    1.04
   6  -5  14   10.06    7.60
   6  -5  15    2.97    6.43
   6  -5  16   29.00   15.40
   6  -5  17    2.01    7.17
   6  -6 -22  -10.08   13.63
   6  -6 -21  -18.26   17.20
   6  -6 -20   -2.62   10.22
  -6   6  19    3.41    5.63
   6  -6 -19   -7.90   14.90
  -6   6  18   64.53   19.27
   6  -6 -18   78.59   25.18
  -6   6  17   -0.27    4.29
   6  -6 -17   -1.08    5.70
  -6   6  16  275.19   40.76
   6  -6 -16  254.94   43.12
  -6   6  15    2.51    1.44
   6  -6 -15    0.86    3.11
  -6   6  14  206.50   34.64
   6  -6 -14  218.33   37.58
   6   6 -14  254.33   39.53
  -6   6  13  148.63   28.73
  -6  -6  13  129.16    9.56
   6  -6 -13  145.80   29.52
   6   6 -13  169.42   31.39
   6  -6 -12    0.12    1.09
  -6   6  12   -2.23    3.45
  -6  -6  12    2.96    1.78
   6  -6 -12   -3.35    9.78
  -6   6  11   71.54   18.69
  -6  -6  11   80.53   10.64
   6  -6 -11   71.69   17.29
   6  -6 -11   81.83   10.08
  -6   6  10   -2.35    5.49
  -6  -6  10    2.50    3.04
   6  -6 -10    2.04    2.24
  -6  -6   9   28.96    7.46
   6  -6  -9   25.18    6.62
  -6   6   9   19.32    7.50
  -6  -6   8   41.42    9.33
  -6   6   8   32.88   11.54
   6  -6  -8   40.76    8.79
  -6   6   7   16.73    8.06
  -6  -6   7   18.63    7.03
   6  -6  -7   19.45    5.95
  -6  -6   6   63.44   12.74
  -6   6   6   57.61   14.82
   6  -6  -6   55.41   11.38
  -6  -6   5   23.59    7.94
   6  -6  -5   20.10    6.59
  -6  -6   4  461.24   33.44
   6  -6  -4  455.64   35.49
  -6  -6   3   68.53   12.05
   6  -6  -3   47.42    9.94
   6  -6  -3   64.42   13.37
   6  -6  -2   72.80   14.80
  -6  -6   2   83.77   12.33
   6  -6  -2   76.63   13.81
   6  -6  -1   78.15   16.13
   6  -6  -1  106.05   17.50
   6   6  -1   79.61   12.52
   6  -6   0  164.43   24.07
   6   6   0  161.36   18.03
  -6  -6   0  153.92   25.44
  -6   6  -1   -6.67    6.23
  -6  -6  -1   -1.15    3.46
   6  -6   1    0.08    2.46
  -6  -6  -2  206.62   30.94
  -6   6  -2  207.65   25.33
   6  -6   2  207.88   29.28
  -6  -6  -3   45.52   16.39
   6  -6   3   39.27   13.12
  -6   6  -3   52.96   14.22
  -6  -6  -4  195.26   32.54
  -6  -6  -4  163.79   17.40
   6  -6   4  168.98   27.27
   6  -6   5    8.36    6.39
  -6  -6  -5    3.31    1.92
   6  -6   5    4.57    3.08
  -6  -6  -5    1.97    3.20
   6  -6   6   10.93    7.85
   6  -6   6    5.95    4.42
  -6  -6  -6    7.33    2.77
  -6  -6  -6    0.42    4.00
   6  -6   7   22.85   11.32
  -6  -6  -7   18.44    6.34
  -6  -6  -7   25.03    7.79
   6  -6   8    6.06    5.51
  -6  -6  -8    5.11    2.45
  -6  -6  -9   34.92    8.95
   6  -6   9   40.50   15.00
  -6  -6 -10   18.32    6.16
   6  -6  10   21.97   11.91
  -6  -6 -11   -6.96    7.19
   6  -6  11   -4.15    5.66
   6  -6  12    3.15    4.82
   6  -6  13    5.09    5.32
   6  -6  14   63.61   21.24
   6  -6  15   31.87   16.04
   6  -6  16   29.67   14.83
   6  -6  17   29.60   16.33
   6  -7 -21   44.02   20.84
   6  -7 -20   17.55   11.70
  -6   7  19   -2.91    3.40
   6  -7 -19   -4.04   11.35
  -6   7  18    3.34    3.26
   6  -7 -18    6.87   10.81
  -6   7  17   -1.04    5.61
   6  -7 -17   -0.11    5.34
  -6   7  16   20.17   10.23
   6  -7 -16   21.89   12.78
  -6   7  15  156.14   30.93
   6  -7 -15  163.83   33.68
  -6   7  14   46.13   16.55
   6  -7 -14   34.61   14.38
   6  -7 -13    7.20    2.74
  -6   7  13    5.78    5.13
   6  -7 -13    7.35    4.61
  -6   7  12   16.92    9.96
   6  -7 -12   20.64    8.56
   6  -7 -12   20.26    5.39
  -6   7  11   12.00    6.01
   6  -7 -11   16.50    5.45
   6  -7 -10   27.74    7.23
  -6   7  10   26.53   11.45
   6  -7  -9  184.95   19.14
  -6   7   9  185.95   30.82
  -6   7   8  427.98   45.51
   6  -7  -8  437.97   30.68
  -6   7   7   19.81    8.89
   6  -7  -7    9.42    5.54
   6  -7  -7   25.83    8.12
  -6  -7   6 1098.52   53.57
  -6   7   6 1030.45   68.52
   6  -7  -6 1032.38   51.50
  -6   7   5   -3.87    5.81
   6  -7  -5    2.72    2.27
  -6  -7   4   78.02   14.58
   6  -7  -4   80.62   15.52
   6  -7  -3  341.51   29.71
   6  -7  -3  331.51   32.01
  -6  -7   3  334.60   27.91
   6  -7  -2   72.07   13.29
   6  -7  -2   63.85   14.30
   6  -7  -1  381.93   36.80
  -6  -7   0   35.28    8.20
   6   7   0   34.53    6.12
   6  -7   0   45.52   12.88
  -6  -7  -1  158.13   26.16
   6  -7   1  153.29   24.62
  -6   7  -1  157.69   20.40
   6   7   1  159.69   16.09
  -6  -7  -2   33.63   12.42
  -6   7  -2   34.62   10.53
   6  -7   2   27.05   10.11
  -6  -7  -3   69.98   19.96
   6  -7   3   45.12   13.62
  -6   7  -3   59.57   14.07
  -6  -7  -4   98.58   25.75
   6  -7   4   80.21   19.62
   6  -7   5    3.46    5.26
   6  -7   5    8.34    6.49
  -6  -7  -5   -3.28    4.67
  -6  -7  -6  224.25   20.11
   6  -7   6  247.67   35.77
  -6  -7  -6  248.64   23.21
   6  -7   7   20.45   11.80
  -6  -7  -7   13.42    5.52
  -6  -7  -8  117.29   17.99
   6  -7   8  124.21   27.07
  -6  -7  -9   88.81   16.70
   6  -7   9  104.33   24.96
  -6  -7 -10   -6.59    8.01
   6  -7  10   -0.90    7.11
   6  -7  11   28.54   13.59
   6  -7  12   16.36   10.13
   6  -7  13   18.93   10.78
   6  -7  14    0.47    3.59
   6  -7  15   40.08   17.76
   6  -7  16    3.92    4.61
   6  -7  17    2.36    7.80
   6  -8 -21   52.59   21.89
   6  -8 -20    2.95    7.45
  -6   8  19   27.04   14.20
   6  -8 -19   22.11   16.16
  -6   8  18   49.44   18.47
   6  -8 -18   56.19   22.47
  -6   8  17  112.58   28.52
   6  -8 -17  108.42   30.17
  -6   8  16    3.26    7.32
   6  -8 -16    1.36    5.32
  -6   8  15   87.55   24.19
   6  -8 -15   80.84   23.43
  -6   8  14  103.46   25.64
   6  -8 -14  100.62   25.20
  -6   8  13   66.06   20.45
   6  -8 -13   69.45   10.18
   6  -8 -13   53.44   15.78
  -6   8  12   11.28    7.88
   6  -8 -12   17.25    6.06
  -6   8  11  142.95   27.65
  -6   8  10   77.15   20.59
   6  -8 -10   79.47   12.86
  -6   8   9  142.18   27.61
   6  -8  -9  145.98   18.19
   6  -8  -8    6.25    4.42
  -6   8   8    8.82    7.63
   6  -8  -8   -4.54   11.00
  -6   8   7   36.07   13.19
   6  -8  -7   38.61   10.05
   6  -8  -7   27.37    6.82
  -6   8   6   51.86   14.96
   6  -8  -6   59.80   12.98
   6  -8  -6   43.56   11.78
   6  -8  -5  149.48   20.97
  -6   8   5  157.41   25.97
  -6   8   4   13.74    6.57
   6  -8  -4   16.56    6.63
   6  -8  -3  166.85   19.78
   6  -8  -3  166.14   23.56
   6  -8  -2  262.65   30.40
   6  -8  -2  283.55   25.33
   6  -8  -1   -2.23    3.50
   6  -8   0    3.42    3.78
   6   8   0    2.02    2.44
  -6  -8   0   -5.37   10.31
  -6   8  -1  217.52   23.72
  -6  -8  -1  237.53   31.97
   6   8   1  238.34   18.66
   6  -8   1  238.24   31.39
   6  -8   2   32.55   11.07
  -6   8  -2   31.95    9.43
  -6  -8  -2   37.71   13.25
  -6  -8  -3   18.54   13.27
   6  -8   3    5.57    4.84
  -6   8  -3   14.31    8.56
   6  -8   4  166.21   28.67
  -6  -8  -4  191.68   32.03
   6  -8   5  121.24   24.68
   6  -8   6   16.85    9.81
  -6  -8  -6   14.22    2.78
  -6  -8  -7  168.01   21.03
   6  -8   7  167.97   30.89
   6  -8   8    4.97    5.41
  -6  -8  -8    1.13    3.71
  -6  -8  -9  252.57   28.81
   6  -8   9  244.04   38.81
   6  -8  10    5.36    7.81
  -6  -8 -10    5.86    5.63
   6  -8  11  168.44   33.58
   6  -8  12    1.88    0.35
   6  -8  13   15.59   10.20
   6  -8  14   29.65   15.64
   6  -8  15    6.55    8.12
   6  -8  16    4.30    1.36
   6  -8  17    2.98    5.50
   6  -9 -21    3.23    2.55
  -6   9  20   -4.79    8.43
   6  -9 -20   -0.36    6.29
  -6   9  19   34.06   16.42
   6  -9 -19   41.65   19.42
  -6   9  18   10.16    9.36
   6  -9 -18   15.33   10.64
  -6   9  17   30.45   14.54
   6  -9 -17   16.48    8.36
  -6   9  16    0.21    3.55
   6  -9 -16   -5.52    7.88
  -6   9  15   76.23   23.38
   6  -9 -15   80.79   24.12
  -6   9  14    3.49    4.92
   6  -9 -14   -9.43   12.02
  -6   9  13  154.05   31.43
   6  -9 -13  132.14   28.77
  -6   9  12   98.08   24.56
  -6   9  11   29.59   13.12
  -6   9  10    0.64    4.00
  -6   9   9  248.03   37.29
   6  -9  -9  217.78   31.56
  -6   9   8  104.10   23.31
   6  -9  -8   86.54   18.89
  -6   9   7   10.49    6.59
   6  -9  -7    4.53    3.39
  -6   9   6   84.87   19.82
   6  -9  -6   83.55   15.76
   6  -9  -6   65.18   13.77
  -6   9   5   55.46   15.67
   6  -9  -5   43.36   12.04
   6  -9  -5   52.68   13.13
  -6   9   4   -6.33    6.51
   6  -9  -4    2.45    4.19
  -6   9   3   29.96   10.72
   6  -9  -3   29.33    6.14
   6  -9  -3   34.05   11.09
   6  -9  -2   11.91    6.30
   6  -9  -2   22.29    8.07
   6  -9  -1 1030.35   63.44
   6   9   0    4.59    2.34
   6  -9   0   10.99    6.90
   6   9   1  302.30   20.92
  -6  -9  -1  337.70   39.56
   6  -9   1  320.69   37.19
  -6   9  -1  322.79   28.48
  -6   9  -2    1.03    1.53
  -6  -9  -2    9.59    9.17
   6  -9   2    4.24    4.15
   6  -9   3   69.63   17.87
  -6  -9  -3   91.10   23.09
  -6   9  -3   84.79   16.52
   6  -9   4   -3.59    8.60
  -6  -9  -4   24.74   15.14
  -6   9  -4   19.16   10.79
   6  -9   5   26.67   11.79
   6  -9   6   59.26   19.02
   6  -9   7   30.78   13.14
   6  -9   8    1.55    3.23
  -6  -9  -8   -1.69    5.27
   6  -9   9    0.67    2.74
  -6  -9  -9    6.58    5.05
   6  -9  10    2.65    4.75
  -6  -9 -10    6.74    6.01
   6  -9  11   12.68   10.58
   6  -9  12    7.79    7.48
   6  -9  13  166.25   35.37
   6  -9  14    0.87    2.30
   6   9  15   41.53   22.80
   6  -9  15   20.06   13.03
   6  -9  16   -0.26    3.75
   6  -9  17   -0.36    3.96
   6 -10 -21   27.82   19.78
  -6  10  20   -2.17    8.37
   6 -10 -20    6.94    9.02
  -6  10  19   -0.51    3.06
   6 -10 -19   -7.49    9.96
  -6  10  18   -2.10    4.19
   6 -10 -18   -3.02    9.09
  -6  10  17    0.33    5.38
   6 -10 -17   -2.69    6.21
  -6  10  16    7.70    7.08
   6 -10 -16   -4.48    8.98
  -6  10  15   22.48   12.56
   6 -10 -15   19.26   10.09
  -6  10  14   18.00   12.95
   6 -10 -14    2.88    7.56
  -6  10  13    0.50    2.83
  -6  10  12   18.74   12.57
  -6  10  11    9.20    7.31
  -6  10  10   42.19   16.77
   6 -10 -10    5.45    7.98
  -6  10   9   40.76   16.69
   6 -10  -9   20.94    8.09
  -6  10   8   34.66   13.84
   6 -10  -8   23.76    9.22
  -6  10   7  175.50   30.48
   6 -10  -7  137.65   22.39
  -6  10   6   47.05   15.18
   6 -10  -6   47.01   12.09
  -6  10   5   93.64   21.02
   6 -10  -5   81.89   17.41
   6 -10  -5   97.63   18.46
  -6  10   4  320.06   38.92
   6 -10  -4  329.07   33.85
   6 -10  -4  333.39   35.68
  -6  10   3   33.29   11.99
   6 -10  -3   42.45   12.85
   6 -10  -3   37.90    8.64
  -6  10   2   82.05   18.30
   6 -10  -2   88.98   18.35
   6 -10  -2   98.60   14.18
   6 -10  -1   43.47   13.25
   6 -10   0    8.11    5.89
  -6 -10   0   -5.85   11.88
   6  10   0    2.29    3.95
  -6 -10  -1   28.89    6.87
   6  10   1   40.75    6.76
   6 -10   1   45.58   14.20
  -6 -10  -2   34.66   13.92
   6 -10   2   27.70   11.06
  -6  10  -2   23.14    5.55
  -6 -10  -3   13.19   11.53
  -6  10  -3   12.03    7.10
   6 -10   3    7.31    4.69
   6 -10   4   58.61   16.25
  -6  10  -4   80.79   16.76
  -6 -10  -4  111.66   25.28
   6 -10   5    5.23    3.52
  -6 -10  -5   71.48   23.11
   6 -10   6   -6.30    8.17
   6 -10   7   73.06   21.27
   6 -10   8   14.80    9.39
   6 -10   9   10.33    8.40
  -6 -10  -9    4.98    4.54
   6 -10  10    1.48    6.44
  -6 -10 -10   -0.98    2.57
   6 -10  11  176.96   34.82
   6 -10  12   77.96   24.50
   6 -10  13   27.69   15.12
   6 -10  14   63.64   22.79
   6  10  15   12.22   12.94
   6 -10  15    1.69    6.43
   6 -10  16   17.94   12.31
   6 -10  17    9.03    8.96
   6 -11 -21   11.17   12.08
  -6  11  20    1.77    2.57
   6 -11 -20    7.00    6.43
  -6  11  19   16.80   11.96
   6 -11 -19   12.42    9.40
  -6  11  18    2.00    6.28
   6 -11 -18    0.36    6.47
  -6  11  17   -2.95    4.84
   6 -11 -17   -4.35   11.47
  -6  11  16   27.01   15.39
   6 -11 -16   18.06    8.25
   6 -11 -15   -0.94    7.39
  -6  11  15    2.12    3.16
  -6  11  14   20.49   14.23
  -6  11  13   77.69   23.91
  -6  11  12   -1.59    1.13
  -6  11  11   21.48   11.98
   6 -11 -11   -0.10   11.00
   6 -11 -10   -0.57    9.24
  -6  11  10   16.42   12.48
  -6  11   9   63.96   20.83
   6 -11  -9   48.14   13.61
  -6  11   8  292.98   40.97
   6 -11  -8  245.29   32.37
  -6  11   7   17.45   10.15
   6 -11  -7   -6.98   11.16
  -6  11   6  131.58   26.45
   6 -11  -6  141.60   22.89
  -6  11   5   -0.70    1.95
   6 -11  -5    7.58    8.12
  -6  11   4   10.42    7.53
   6 -11  -4    9.27    6.86
  -6  11   3   10.18    6.71
   6 -11  -3   12.17    7.32
   6 -11  -3   12.97    4.23
  -6  11   2   30.48   11.48
   6 -11  -2   44.34   10.10
   6 -11  -2   33.50   11.89
  -6  11   1   28.52   10.55
   6 -11  -1   28.87   11.48
  -6 -11   0   -4.53   11.29
   6 -11   0   10.67    7.17
  -6 -11  -1  197.71   30.82
   6 -11   1  218.48   31.79
   6  11   1  203.31   15.18
  -6  11  -2   -0.69    5.06
  -6 -11  -2    3.55    4.91
   6 -11   2    4.97    1.92
  -6 -11  -3   22.38   13.64
   6 -11   3   13.24    8.09
  -6  11  -3   12.64    4.64
  -6  11  -4   46.55   12.91
   6 -11   4   25.49   10.02
  -6 -11  -4   60.69   19.32
   6 -11   5    4.97    8.10
  -6 -11  -5   55.90   22.43
   6 -11   6  271.95   40.32
   6 -11   7    8.48    7.04
   6 -11   8   12.32    9.60
   6 -11   9    3.93    4.22
   6 -11  10   13.84    9.67
  -6 -11 -10    6.87    3.60
   6 -11  11    6.28    6.86
   6 -11  12    5.98    8.83
   6 -11  13   29.92   15.41
   6 -11  14   -1.32    2.09
   6  11  15   15.92   15.73
   6 -11  15    2.63    7.40
   6 -11  16    3.84    9.31
  -6  12  20   35.37   17.51
   6 -12 -20   44.28   22.33
  -6  12  19    6.42   10.63
   6 -12 -19    4.68    6.13
  -6  12  18   70.12   23.86
   6 -12 -18   65.58   25.83
  -6  12  17   17.28   11.25
   6 -12 -17   16.07    9.57
  -6  12  16   46.99   20.19
   6 -12 -16   57.09   20.73
  -6  12  15   -0.56    1.29
  -6  12  14  125.54   31.14
  -6  12  13   17.87    7.30
  -6  12  12   11.91    4.89
   6 -12 -12   -9.50   12.84
  -6  12  11   16.15    8.03
   6 -12 -11    3.71    7.53
  -6  12  10   20.02   12.99
   6 -12 -10    2.80    6.47
  -6  12   9    7.50    8.21
   6 -12  -9  -27.19   16.94
  -6  12   8   34.35   15.55
   6 -12  -8    0.58    8.38
  -6  12   7   14.69   11.34
   6 -12  -7    0.13    6.46
  -6  12   6   88.73   22.59
   6 -12  -6   91.10   19.31
  -6  12   5   53.11   16.99
   6 -12  -5   74.55   17.44
  -6  12   4   69.30   19.45
   6 -12  -4  108.77   22.61
   6 -12  -3  221.00   31.03
  -6  12   3  166.88   28.58
   6 -12  -3  160.49   25.80
   6 -12  -3  163.27   17.29
  -6  12   2  111.26   23.49
   6 -12  -2  122.16   23.37
  -6  12   1   26.31    9.71
   6 -12  -1   37.83   13.52
   6 -12   0   -1.98    0.92
  -6 -12   0  -18.93   15.37
  -6 -12  -1   -3.82    9.97
   6 -12   1    1.36    0.79
   6  12   1   -2.59    3.12
  -6 -12  -2  294.80   37.54
   6 -12   2  277.42   37.73
   6 -12   3    6.71    2.83
  -6  12  -3    8.88    3.52
  -6  12  -4  185.10   23.00
  -6 -12  -4  222.10   34.42
   6 -12   4  182.69   31.40
  -6  12  -5   31.49   13.07
   6 -12   5   10.41    7.59
   6 -12   6   25.38   10.84
  -6 -12  -6   68.97   26.68
   6 -12   7   -4.41    5.50
   6 -12   8    3.22    4.38
   6 -12   9    1.13    7.37
  -6 -12 -10   67.59   17.51
   6 -12  10   67.51   21.67
   6 -12  11   21.99   12.18
   6 -12  12   13.97   10.50
   6 -12  13    4.30    7.52
   6 -12  14   18.50   12.59
   6  12  15   16.32   16.21
   6 -12  15    2.12    7.94
   6 -12  16   35.46   17.37
  -6  13  21   19.25   10.73
  -6  13  20   34.25   18.84
   6 -13 -20   29.70   18.44
  -6  13  19    2.91    8.10
   6 -13 -19   -3.22    7.43
  -6  13  18    8.77    8.15
   6 -13 -18    2.88    2.89
  -6  13  17    4.89    7.80
   6 -13 -17   -1.59    4.92
  -6  13  16   74.22   24.99
   6 -13 -16   77.04   24.93
  -6  13  15    3.00    7.31
  -6  13  14   27.00   14.09
   6 -13 -14   15.22    6.23
  -6  13  13   -2.58    9.65
   6 -13 -13   -5.32   12.54
  -6  13  12   56.76   17.60
   6 -13 -12   34.93    9.68
  -6  13  11   -6.67   10.86
   6 -13 -11   -6.18   10.50
  -6  13  10  258.60   42.01
   6 -13 -10  283.48   36.03
  -6  13   9   90.25   23.45
   6 -13  -9   76.22   17.50
  -6  13   8  107.26   26.09
   6 -13  -8   95.27   19.32
  -6  13   7   17.82   10.73
   6 -13  -7   22.23    8.01
  -6  13   6  233.84   36.42
   6 -13  -6  254.63   33.31
  -6  13   5   63.88   19.42
   6 -13  -5  133.10   24.63
  -6  13   4    8.94    7.19
   6 -13  -4   79.92   21.11
   6 -13  -3    4.28    3.39
  -6  13   3    1.64    2.07
  -6  13   2   -2.39    6.14
   6 -13  -2    6.52    7.13
  -6  13   1    4.97    3.64
   6 -13  -1   16.36    9.27
  -6  13   0   14.55    6.82
   6 -13   0   15.73    9.26
  -6 -13   0   -7.88   13.24
  -6 -13  -1   -8.82   12.44
   6 -13   1    3.16    3.66
   6  13   1    2.94    0.69
  -6 -13  -2   35.59   11.59
   6 -13   2   52.55   17.87
   6 -13   3   10.56    7.21
  -6 -13  -3   18.13   11.82
  -6  13  -3    5.07    3.13
  -6 -13  -4   51.70   18.36
  -6  13  -4   31.46    8.77
   6 -13   4   26.88   12.44
  -6  13  -5   27.21   11.39
   6 -13   5    9.32    4.60
  -6 -13  -6  298.64   44.83
   6 -13   6  240.83   38.43
   6 -13   7   49.34   16.99
   6 -13   8  212.05   38.65
   6 -13   9    3.06    5.66
   6 -13  10    9.00    9.15
   6 -13  11   32.84   16.28
   6 -13  12   22.34   13.34
   6 -13  13   -0.03    1.61
   6  13  14   36.80   21.09
   6 -13  14   22.49   14.93
   6  13  15   30.14   19.38
   6 -13  15    9.35   10.09
   6 -13  16    1.98    5.74
  -6  14  21   23.78   16.95
  -6  14  20    4.83    5.12
   6 -14 -20    9.30    8.78
  -6  14  19    8.85   11.69
   6 -14 -19   -0.31    7.46
  -6  14  18   36.99   21.28
   6 -14 -18   34.30   17.84
  -6  14  17    7.48    2.47
   6 -14 -17   -1.53    6.04
  -6  14  16   36.08   17.20
   6 -14 -16   25.97    9.15
  -6  14  15   -7.97   11.21
   6 -14 -15   -7.88   11.80
  -6  14  14   24.45   11.35
   6 -14 -14   26.83   10.12
  -6  14  13   56.85   20.46
   6 -14 -13   54.01   15.83
  -6  14  12    2.38    6.08
   6 -14 -12   -1.35    8.37
  -6  14  11  186.95   36.29
   6 -14 -11  195.52   31.48
  -6  14  10   -4.17   10.41
   6 -14 -10   -9.19   12.46
  -6  14   9   -4.65   12.73
   6 -14  -9  -11.20   11.01
  -6  14   8   -4.77    7.99
   6 -14  -8    2.95    0.44
  -6  14   7   12.84   10.03
   6 -14  -7   16.62   10.49
   6 -14  -6   36.87   15.11
  -6  14   6   -1.20    3.81
  -6  14   5   -2.68    3.65
   6 -14  -5   58.61   19.44
  -6  14   4  133.46   27.57
   6 -14  -4  118.65   14.03
  -6  14   3   81.95   21.30
   6 -14  -3   89.52   11.56
  -6  14   2   -1.31    1.79
  -6  14   1   49.83   15.93
   6 -14  -1   59.04   17.63
  -6  14   0   11.29    5.84
  -6 -14   0   -5.10   12.84
   6 -14   0   28.23   13.27
   6  14   1   19.95    3.49
  -6 -14  -1   12.56    8.40
  -6 -14  -2   -4.22    8.13
   6 -14   2    1.96    7.58
   6 -14   3    1.21    3.63
  -6 -14  -3    6.91    8.77
  -6  14  -3  -10.41    8.41
  -6  14  -4  265.11   24.69
   6 -14   4  263.36   40.08
  -6 -14  -4  299.47   41.21
  -6 -14  -5   26.06   17.64
  -6  14  -5   16.87    9.27
   6 -14   5    1.48    5.28
   6 -14   6   48.03   17.63
  -6 -14  -6  109.80   27.26
   6 -14   7    0.43    2.83
  -6 -14  -7   36.93   21.35
   6 -14   8    2.88    3.69
   6 -14   9    8.00    9.62
   6 -14  10   16.58   12.25
   6 -14  11   20.57   13.74
   6 -14  12    8.30    8.15
   6 -14  13   76.04   26.60
   6  14  14   23.64   18.23
   6 -14  14    9.38   10.96
   6 -14  15    0.60    4.41
   6  14  15    5.27   13.48
   6 -14  16   11.34   12.57
   6  14  16   19.42   15.63
  -6  15  21   10.02   13.12
  -6  15  20    4.19    8.46
  -6  15  19   37.29   21.13
   6 -15 -19   45.21   18.81
   6 -15 -19    9.28    4.34
  -6  15  18    1.46    4.76
   6 -15 -18    2.66    1.86
   6 -15 -18  -12.14   14.67
  -6  15  17   -1.28    4.15
   6 -15 -17   -4.18    7.03
   6 -15 -17   -5.31   10.17
  -6  15  16   -3.16    8.24
   6 -15 -16   -2.05   10.14
  -6  15  15   25.97   12.57
   6 -15 -15   15.16    7.94
  -6  15  14    0.59    8.92
   6 -15 -14    0.26    7.36
  -6  15  13   -4.88   11.03
   6 -15 -13   -5.29   11.96
  -6  15  12   -1.75   10.19
   6 -15 -12  -11.84   12.94
  -6  15  11   52.19   17.67
   6 -15 -11   28.34    9.84
  -6  15  10  -14.61   14.65
   6 -15 -10  -12.37   11.64
  -6  15   9  115.13   27.98
   6 -15  -9  125.66   24.23
  -6  15   8   -5.17   11.42
   6 -15  -8   29.90   13.28
   6 -15  -7   33.79   13.76
  -6  15   7   -4.53    7.49
  -6  15   6   32.63   13.71
   6 -15  -6   78.61   21.27
   6 -15  -5   64.02   21.27
  -6  15   5    2.53    7.01
  -6  15   4   36.85   14.24
   6 -15  -4   31.16    5.50
  -6  15   3  101.90   23.74
  -6  15   2   -0.47    6.87
  -6  15   1   95.76   22.29
  -6  15   0    2.06    4.88
   6 -15   0   11.28    9.21
  -6  15  -1   54.22   16.06
   6 -15   1   54.56   17.78
   6  15   1   46.22    5.54
  -6 -15  -1   41.11    9.82
  -6 -15  -2   12.18    4.29
   6 -15   2   30.33   13.99
  -6 -15  -3  152.83   29.25
   6 -15   3  136.74   28.34
   6 -15   4    7.77    8.27
  -6 -15  -4   12.03   12.79
  -6  15  -4   -0.73    3.65
  -6  15  -5   41.27   10.63
  -6 -15  -5   48.30   18.91
   6 -15   5   23.85   12.80
  -6 -15  -6  119.81   28.66
  -6  15  -6  100.88   17.81
   6 -15   6   86.98   23.71
  -6 -15  -7   34.89   19.21
   6 -15   7   -0.84    2.90
   6 -15   8  125.95   31.16
   6 -15   9   19.29   11.72
   6 -15  10   38.64   17.91
   6 -15  11    3.80    9.68
   6 -15  12   18.22   14.27
   6  15  13    9.80   15.22
   6 -15  13   21.59   15.42
   6  15  14   28.32   19.67
   6 -15  14    0.27    1.06
   6 -15  15   15.08   12.92
   6  15  15   10.21   12.79
   6  15  16   12.37   13.32
   6 -15  16    6.25    8.58
  -6  16  21    7.75   10.89
  -6  16  20    2.99    8.83
  -6  16  19    8.16   10.82
   6 -16 -19    5.75    5.59
  -6  16  18    4.35    6.74
   6 -16 -18   17.87   13.99
   6 -16 -18   -1.93    9.99
  -6  16  17   -9.53   14.41
   6 -16 -17   -7.03   13.78
  -6  16  16   -5.74   11.06
   6 -16 -16   -4.72   10.94
  -6  16  15   -7.67   12.44
   6 -16 -15   -2.43    6.80
  -6  16  14   -8.68   10.43
   6 -16 -14  -15.19   14.23
  -6  16  13   -2.34    8.83
   6 -16 -13   -9.37   10.27
   6 -16 -12   81.07   19.49
  -6  16  12   89.74   25.01
   6 -16 -11    2.06    4.17
  -6  16  11   -5.38   10.14
  -6  16  10   -4.72   10.02
   6 -16 -10  -10.69   11.05
  -6  16   9   72.43   21.27
   6 -16  -9   82.09   20.45
   6 -16  -8   47.59   16.63
  -6  16   8   14.86    3.73
  -6  16   7   88.36   22.22
   6 -16  -7  135.97   26.24
  -6  16   6   14.36    9.20
   6 -16  -6   78.41   21.84
  -6  16   5   33.03   15.10
  -6  16   4   89.98   24.05
   6 -16  -4   85.70   10.30
  -6  16   3    7.22    5.19
  -6  16   2    3.27    5.48
  -6  16   1   27.75   12.33
  -6  16   0   12.52    7.78
   6 -16   0   19.01   11.20
  -6  16  -1    3.86    5.10
   6 -16   1   15.66   10.44
   6 -16   2   54.79   18.48
  -6 -16  -2   30.97    7.46
   6 -16   3   67.37   21.18
  -6 -16  -3   56.24   17.76
   6 -16   4   -0.75    2.79
  -6 -16  -4    9.41    9.04
   6 -16   5    7.64    7.35
  -6 -16  -5   34.31   16.61
  -6 -16  -6   40.49   20.07
   6 -16   6   14.33    6.63
   6 -16   7   -0.27    5.67
  -6 -16  -7   25.12   17.04
   6 -16   8   23.65   11.96
  -6 -16  -8   61.49   25.22
   6 -16   9   90.54   25.59
   6 -16  10    5.03    3.84
   6 -16  11   92.87   28.08
   6 -16  12    2.26    3.78
   6  16  13   19.78   17.17
   6 -16  13   14.72   12.31
   6  16  14   15.71   17.98
   6 -16  14   -4.20    6.94
   6 -16  15    5.98    9.73
   6  16  15    9.02   14.86
   6 -16  16    4.48    8.84
   6  16  16    7.48    9.50
  -6  17  21    3.55    4.36
  -6  17  20    4.63    9.96
  -6  17  19    9.14    8.63
  -6  17  18   -2.74    8.12
   6 -17 -18    0.58    6.82
  -6  17  17  -11.33   11.30
   6 -17 -17   -4.63   10.33
  -6  17  16   15.18    8.62
   6 -17 -16   12.09    5.34
  -6  17  15   -0.33    9.69
   6 -17 -15  -12.18   13.23
  -6  17  14    4.00    7.13
   6 -17 -14   -2.48   11.85
  -6  17  13   27.85   14.27
   6 -17 -13   33.04   10.83
  -6  17  12   -4.02   11.35
   6 -17 -12   -6.79    8.68
  -6  17  11   -9.59    9.66
   6 -17 -11   -0.33    4.75
  -6  17  10   11.78    6.41
   6 -17 -10   21.19   11.72
  -6  17   9   29.71   13.37
   6 -17  -9   52.57   16.66
  -6  17   8   50.51   16.55
   6 -17  -8  102.23   22.86
  -6  17   7   -8.05   12.76
   6 -17  -7   72.66   21.59
   6 -17  -6  129.56   26.81
  -6  17   6   11.99    8.21
  -6  17   5  185.16   35.87
  -6  17   4    5.13    5.63
  -6  17   3  157.42   31.89
  -6  17   2   -1.73    5.88
  -6  17   1  136.75   29.10
  -6  17   0    7.00    7.67
  -6  17  -1   55.35   17.12
  -6 -17  -1   46.74   11.44
   6 -17   1   65.14   20.75
  -6 -17  -2   85.73   19.50
   6 -17   2  100.84   25.29
  -6 -17  -3  116.85   24.36
   6 -17   3  130.74   29.76
  -6 -17  -4    1.79    5.80
   6 -17   4    9.98    9.97
  -6 -17  -5    9.00   11.28
   6 -17   5    6.78    8.65
  -6 -17  -6   60.90   21.63
   6 -17   6   57.26   20.90
  -6 -17  -7   35.72   19.16
   6 -17   7   31.56   15.41
  -6 -17  -8   48.57   22.25
   6 -17   8   15.92    9.19
   6 -17   9    8.49    9.09
  -6 -17  -9   48.45   23.41
   6 -17  10    7.87    7.64
   6 -17  11   11.06    8.76
   6 -17  12    2.19    6.38
   6  17  13   10.26   15.10
   6 -17  13    5.36    8.00
   6 -17  14    5.12    6.41
   6  17  14   14.10   16.04
   6 -17  15   28.13   17.58
   6  17  15   43.70   24.59
  -6  18  20    5.83   10.20
  -6  18  19   32.04   18.92
  -6  18  18    4.74   11.41
  -6  18  17    6.22    2.42
  -6  18  16   44.83   20.95
   6 -18 -16   47.63   15.02
   6 -18 -15    1.58    8.24
  -6  18  15   14.27    6.83
  -6  18  14   -2.12   10.11
   6 -18 -14   -2.34    9.43
  -6  18  13   -3.75    6.14
   6 -18 -13   -4.78    8.69
  -6  18  12   15.67    9.45
   6 -18 -12   21.48   10.56
  -6  18  11   -3.79    8.79
   6 -18 -11   10.79    9.96
  -6  18  10   14.03    8.93
   6 -18 -10   48.85   17.56
   6 -18  -9   60.20   18.65
  -6  18   9   12.62    5.00
   6 -18  -8   37.75   16.78
  -6  18   8    0.04    7.35
   6 -18  -7  130.62   26.52
  -6  18   7   50.83   17.45
  -6  18   6  -14.69   13.45
  -6  18   5   55.05   18.75
  -6  18   4   37.97   16.54
  -6  18   3   97.79   25.92
  -6  18   2    1.28    6.41
  -6  18   1   32.17   14.14
  -6  18   0   21.69    9.13
  -6  18  -1   40.33   15.00
  -6 -18  -1   12.40    9.27
   6 -18   1   46.98   17.37
   6 -18   2   12.18    8.47
  -6  18  -2    3.85    2.20
  -6 -18  -2   -1.83    9.90
   6 -18   3  175.65   34.72
  -6 -18  -3  156.85   30.24
  -6 -18  -4   75.93   21.21
   6 -18   4   69.99   22.52
  -6 -18  -5   47.39   17.80
   6 -18   5   46.20   18.67
   6 -18   6    6.97    7.51
  -6 -18  -6   12.52   11.32
  -6 -18  -7   22.07   15.61
   6 -18   7    3.07    3.99
   6 -18   8   11.09    8.18
  -6 -18  -8   42.88   20.36
   6 -18   9   -2.14    6.83
  -6 -18  -9   35.76   20.68
   6 -18  10  -10.42   11.37
  -6 -18 -10   48.06   24.03
   6 -18  11   60.20   23.24
   6  18  12   15.09   15.98
   6 -18  12    4.30    7.81
   6  18  13   19.56   19.33
   6 -18  13    6.78    6.64
   6 -18  14    8.74    9.39
   6  18  14   24.02   20.03
  -6  19  19   -4.14    8.39
  -6  19  18   -7.95   14.45
  -6  19  17   -6.49   12.87
  -6  19  16    3.54    7.91
  -6  19  15   -6.63   11.24
   6 -19 -15   -9.18    8.78
  -6  19  14    8.80    4.15
   6 -19 -14   18.91    8.72
  -6  19  13   -6.63   11.99
   6 -19 -13    1.63    6.19
  -6  19  12    8.93    6.56
   6 -19 -12   17.33   11.59
   6 -19 -11   18.55   11.71
  -6  19  11   -2.28    8.48
   6 -19 -10   47.72   17.59
  -6  19  10   19.56    9.74
  -6  19   9   -6.92   12.05
   6 -19  -9   48.91   17.66
   6 -19  -8  214.26   32.82
  -6  19   8  154.61   34.96
  -6  19   7   -2.52    9.65
  -6  19   6  100.01   25.87
  -6  19   5   23.36   14.51
  -6  19   4   98.71   26.45
  -6  19   3   -0.52    3.50
  -6  19   2   61.31   20.27
  -6  19   1   -2.08    2.70
  -6  19   0    3.65    6.12
  -6  19  -1    6.94    6.47
   6 -19   1   13.94   11.38
  -6 -19  -2  -10.37   14.78
  -6  19  -2   -0.77    2.65
   6 -19   2   15.07   11.66
  -6 -19  -3   -5.92    8.98
   6 -19   3   10.37   10.36
  -6 -19  -4   67.10   20.37
   6 -19   4   79.96   24.02
  -6 -19  -5   36.28   17.14
   6 -19   5   22.73   14.86
   6 -19   6   10.82    9.78
  -6 -19  -6   28.61   16.64
  -6 -19  -7   68.63   23.86
   6 -19   7   22.40   13.56
  -6 -19  -8   46.76   20.60
   6 -19   8   22.33   14.71
  -6 -19  -9   28.21   18.64
   6 -19   9    2.63    1.93
   6 -19  10    0.56    5.16
  -6 -19 -10   51.33   24.06
   6  19  11   27.17   23.44
  -6 -19 -11   52.23   25.53
   6 -19  11   -2.52    8.07
   6  19  12   23.20   17.25
   6 -19  12    0.95    1.94
   6 -19  13    7.72    7.98
   6  19  13    3.70   12.85
   6 -19  14   15.21   12.89
  -6  20  18   -3.67    9.20
  -6  20  17  -10.25   15.63
  -6  20  16   37.35   17.79
  -6  20  15   -2.82   10.19
   6 -20 -15    3.90    3.79
  -6  20  14   17.57   12.45
   6 -20 -14   16.77   10.35
  -6  20  13    8.95    3.82
   6 -20 -13   27.36   13.76
   6 -20 -12   28.05   13.96
  -6  20  12    0.07   10.43
   6 -20 -11   29.27   14.20
  -6  20  11    1.80    5.41
  -6  20  10  217.10   44.01
   6 -20 -10  253.26   36.55
   6 -20  -9  113.32   25.85
  -6  20   9   46.82   19.00
  -6  20   8   -4.82   12.87
  -6  20   7   30.48   13.81
  -6  20   6    2.55    5.75
  -6  20   5    0.18    8.90
  -6  20   4   11.34   10.14
  -6  20   3   13.54    9.78
  -6  20   2   21.75   13.21
  -6  20   1    8.60    7.23
  -6  20   0   32.38   12.58
  -6  20  -1    3.49    2.34
  -6  20  -2   -1.56    3.61
   6 -20   2   -1.67    5.45
   6 -20   3    2.66    6.98
  -6 -20  -3  -10.47   12.95
   6 -20   4   67.99   22.98
  -6 -20  -4   51.03   16.98
  -6 -20  -5   21.51   10.41
   6 -20   5   29.37   14.89
   6 -20   6    2.10    4.05
  -6 -20  -6   11.53   12.25
   6 -20   7   -5.20    8.96
  -6 -20  -7   12.15   11.98
  -6 -20  -8   30.11   18.03
   6 -20   8   10.44    9.50
  -6 -20  -9   31.43   18.05
   6 -20   9    5.90    3.66
   6 -20  10    0.53    5.46
  -6 -20 -10   42.30   21.62
   6  20  11   28.19   22.19
  -6 -20 -11   43.98   24.05
   6 -20  11   10.16    8.70
   6  20  12   19.12   17.54
  -6 -20 -12   42.67   25.75
   6 -20  12   -5.27   10.95
   6 -20  13   15.89   13.38
  -6  21  17   -0.85    9.95
  -6  21  16   10.47    6.45
  -6  21  15    4.41    7.26
  -6  21  14   -4.61    7.97
   6 -21 -14   12.92   10.53
   6 -21 -13   29.46   14.49
  -6  21  13   11.82    5.85
   6 -21 -12   32.97   15.56
  -6  21  12   -1.13    7.93
  -6  21  11   23.07   12.56
   6 -21 -11   60.03   19.73
   6 -21 -10   60.53   20.15
  -6  21  10    3.01    5.75
  -6  21   9   -8.17   11.90
  -6  21   8    4.11    1.76
  -6  21   7   35.61   15.84
  -6  21   6   59.91   21.24
  -6  21   5   -6.71    9.62
  -6  21   4    7.14    7.83
  -6  21   3    2.83    8.44
  -6  21   2   37.25   16.82
  -6  21   1  244.84   41.13
  -6  21   0   16.18   11.20
  -6  21  -1   88.83   23.71
  -6  21  -2   30.09   12.90
   6 -21   2   40.24   18.26
  -6 -21  -2    9.70   10.06
   6 -21   3    3.13    9.17
  -6 -21  -3  -15.69   15.26
   6 -21   4   48.96   21.13
  -6 -21  -4   32.35   12.59
  -6 -21  -5   -0.71    7.50
   6 -21   5    6.36   10.54
  -6 -21  -6   -1.33    3.60
   6 -21   6   18.97   15.01
   6 -21   7   10.70    9.90
  -6 -21  -7   14.54   11.43
   6 -21   8    9.73    8.70
  -6 -21  -8   24.31   15.33
  -6 -21  -9   16.56   15.02
   6 -21   9   11.19    9.69
   6  21  10   29.52   21.12
   6 -21  10    7.99    6.75
  -6 -21 -10   27.03   19.09
   6  21  11   40.67   23.85
   6 -21  11   11.69    9.81
  -6 -21 -11   43.65   22.56
  -6 -21 -12   38.36   23.78
   6 -21  12    2.53    6.11
  -6  22  16  -12.41   16.70
  -6  22  15   -2.87    8.09
  -6  22  14   -6.30   12.19
   6 -22 -13   39.97   17.79
  -6  22  13   -4.09    8.62
  -6  22  12   26.30   13.72
   6 -22 -12   65.50   21.33
   6 -22 -11  251.61   37.45
  -6  22  11  186.31   43.12
  -6  22  10   15.92    7.53
  -6  22   9  125.18   33.74
  -6  22   8    1.34    3.88
  -6  22   7    1.62    6.01
  -6  22   6   -0.88    8.79
  -6  22   5  -20.46   17.03
  -6  22   4   -0.03    8.08
  -6  22   3   13.05   11.88
  -6  22   2    6.10    6.43
  -6  22   1   -8.03    8.74
  -6  22   0   32.73   15.11
  -6  22  -1    0.91    2.94
  -6  22  -2    1.19    3.22
   6 -22   2    3.49    8.16
  -6  22  -3   42.00   15.98
   6 -22   3   44.46   19.63
  -6 -22  -3   21.42    3.61
  -6 -22  -4   -2.77    8.37
   6 -22   4   15.83   12.04
  -6 -22  -5   -0.59    6.82
   6 -22   5    8.95    9.85
   6 -22   6    6.06    9.86
  -6 -22  -6   11.22    6.38
   6 -22   7   15.15   11.88
  -6 -22  -7   24.28   13.05
  -6 -22  -8    6.27   11.47
   6 -22   8    7.29    7.96
   6  22   9   73.41   29.08
   6 -22   9   43.40   19.88
  -6 -22  -9   79.79   27.10
   6  22  10   20.18   18.19
   6 -22  10   -4.76    7.49
  -6 -22 -10   39.44   22.09
   6 -22  11   32.86   18.61
  -6 -22 -11   46.05   21.96
  -6 -22 -12   31.40   21.54
  -6  23  15   -5.13    7.84
  -6  23  14   -0.69    6.73
  -6  23  13   16.83    9.38
  -6  23  12   -8.30   12.62
  -6  23  11    8.00    8.50
  -6  23  10   20.96   12.66
  -6  23   9   -7.37   10.15
  -6  23   8   22.60   11.36
  -6  23   7   -4.35   10.83
  -6  23   6   -4.65   12.60
  -6  23   5   21.29   11.45
  -6  23   4   48.18   20.01
  -6  23   3   59.68   22.42
  -6  23   2   70.90   23.76
  -6  23   1    5.14    8.31
  -6  23   0    9.10    8.24
  -6  23  -1   37.04   15.99
  -6  23  -2    4.72    5.35
   6 -23   2   13.98   13.91
  -6  23  -3   -6.49    7.94
   6 -23   3    5.08    8.15
  -6 -23  -3  -20.02   17.68
  -6 -23  -4  -11.91   14.37
   6 -23   4   10.88   10.47
   6 -23   5    2.86    5.81
  -6 -23  -5   -2.67    7.23
  -6 -23  -6    7.85    6.47
   6 -23   6   15.87   11.36
   6 -23   7   17.47   13.32
  -6 -23  -7    2.66    3.31
   6  23   8   29.47   22.40
  -6 -23  -8   10.90   12.13
   6 -23   8    5.37    8.93
   6  23   9   12.48   16.93
  -6 -23  -9   14.72   12.84
   6 -23   9   -6.05    7.83
  -6 -23 -10   17.84   16.56
   6 -23  10    3.03    3.26
  -6 -23 -11   73.27   28.44
  -6  24  14   -5.75    9.78
  -6  24  13   -3.86   12.81
  -6  24  12   -5.48   12.77
  -6  24  11   -1.29    5.13
  -6  24  10   -6.33   14.43
  -6  24   9   -6.44   14.27
  -6  24   8    3.26    3.66
  -6  24   7   -3.41    9.81
  -6  24   6  122.87   32.74
  -6  24   5   -6.24   11.32
  -6  24   4  114.71   31.70
  -6  24   3   -1.62    2.10
  -6  24   2   20.94   12.70
  -6  24   1    0.16    2.61
  -6  24   0    5.22    6.51
  -6  24  -1   11.04    8.66
  -6  24  -2   85.30   25.14
  -6  24  -3   20.45   10.25
   6 -24   3   28.93   16.89
  -6 -24  -4    0.27   10.67
   6 -24   4   24.73   15.76
   6 -24   5    5.69    7.18
  -6 -24  -5   -0.08    8.46
   6 -24   6   11.75   10.86
  -6 -24  -6   10.76    4.24
   6 -24   7    3.51    6.43
   6  24   7   23.81   18.95
  -6 -24  -7    7.99    3.77
   6  24   8   23.49   22.02
   6 -24   8   -0.16    6.17
  -6 -24  -8    8.71    7.02
  -6 -24  -9   16.27   13.05
   6 -24   9    3.97    6.74
  -6 -24 -10   40.09   21.19
  -6 -24 -11   30.41   18.93
  -6  25  13    3.31    7.13
  -6  25  12   37.22   19.42
  -6  25  11   18.54   10.82
  -6  25  10    3.17    7.59
  -6  25   9    9.56    6.47
  -6  25   8    1.23    6.58
  -6  25   7   -4.22    7.92
  -6  25   6   54.78   22.57
  -6  25   5   41.09   18.26
  -6  25   4   10.19    9.94
  -6  25   3    7.78   11.45
  -6  25   2   23.39   14.28
  -6  25   1   -4.61    8.63
  -6  25   0   13.26   10.87
  -6  25  -1    9.23    8.88
  -6  25  -2   22.87   13.26
   6 -25   3    8.37   10.93
  -6 -25  -4   -1.64   11.08
   6 -25   4   22.77   15.80
  -6 -25  -5  -10.00   12.55
   6 -25   5   23.26   15.66
   6  25   6   72.54   31.37
  -6 -25  -6   48.10   17.67
   6 -25   6   89.44   30.61
   6  25   7   18.68   16.49
  -6 -25  -7   10.47   10.09
   6 -25   7    7.10    6.10
   6 -25   8   39.06   19.05
  -6 -25  -8   27.52   14.01
  -6 -25  -9    0.21    6.24
  -6 -25 -10   22.55   15.67
  -6  26  12   38.57   18.81
  -6  26  11   -0.17    4.93
  -6  26  10    8.55    2.61
  -6  26   9   -0.21    8.64
  -6  26   8   -8.57   15.39
  -6  26   7   -0.78    8.63
  -6  26   6  -10.89   13.11
  -6  26   5  -16.85   15.58
  -6  26   4   25.12   14.84
  -6  26   3    7.47   10.44
  -6  26   2   22.71   15.79
  -6  26   1   -1.23    2.75
  -6  26   0   -0.08    3.97
  -6  26  -1    2.08    2.00
  -6  26  -2   67.17   22.98
   6 -26   3   13.23   13.43
   6  26   4   67.66   29.15
   6 -26   4   25.52   19.36
   6  26   5   28.89   22.14
  -6 -26  -5   -9.57   14.05
   6 -26   5    6.82   10.01
   6  26   6   10.75   14.70
   6 -26   6   -1.40    9.16
  -6 -26  -6  -22.35   17.16
  -6 -26  -7   -9.96   12.19
   6 -26   7    3.98    5.55
  -6 -26  -8    0.25    4.60
  -6 -26  -9    0.75    5.26
  -6 -26 -10   84.17   28.28
  -6  27  10    2.81    6.80
  -6  27   9   -7.79   12.15
  -6  27   8   -9.90   16.47
  -6  27   7   -7.55   10.17
   6  27  -6   55.32   23.96
  -6  27   6    8.65    3.81
   6  27  -5   41.63   20.66
  -6  27   5    8.93    8.49
  -6  27   4    0.42    7.03
  -6  27   3    6.10    9.29
  -6  27   2   23.07   14.62
  -6  27   1  102.98   29.87
  -6  27   0   21.94   14.41
   6  27   1   68.87   28.69
  -6  27  -1   47.28   20.33
   6  27   2   73.25   29.01
   6  27   3   17.49   17.71
   6 -27   3    7.52   10.08
   6  27   4   17.04   20.04
   6 -27   4   12.14   13.55
   6  27   5   25.57   22.12
   6 -27   5   11.16   10.84
  -6  28   9   37.15   20.09
  -6  28   8   -7.91   13.93
  -6  28   7   -6.63   11.09
   6  28  -6   14.53   14.96
  -6  28   6    0.91    2.37
   6  28  -5   63.28   24.06
  -6  28   5   22.56   13.05
   6  28  -4   16.68   16.53
  -6  28   4   14.15   10.31
   6  28  -3   85.36   28.63
  -6  28   3   59.61   24.39
   6  28  -2   30.95   19.67
  -6  28   2    2.26    8.64
   6  28  -1   24.61   18.54
  -6  28   1    1.66    6.22
   6  28   0   39.28   21.79
  -6  28   0   19.61   12.81
   6  28   1   19.04   17.52
  -6  28  -1    1.11    4.71
   6  28   2   26.50   22.95
   6  28   3   13.62   16.98
   6 -28   3    4.18    9.19
  -6  29   7    3.66    2.20
  -6  29   6    1.93    8.99
  -6  29   5    1.15    3.73
   6  29  -5    6.09    8.25
   6  29  -4   29.31   18.66
  -6  29   4   15.17   16.47
   6  29  -3   30.45   20.29
  -6  29   3   -6.57    8.88
   6  29  -2   19.49   16.95
  -6  29   2   -1.88    0.86
   6  29  -1   14.61   15.60
  -6  29   1    1.11    3.96
   6  29   0   14.04   15.86
  -6  29   0   -6.23    5.26
   6  29   1   81.38   30.72
   6  29   2   15.31   16.95
  -6  30   6   20.99   11.89
  -6  30   5   -2.98    2.88
   6  30  -5    6.42    8.91
  -6  30   4   11.52   12.83
   6  30  -4   31.49   18.27
  -6  30   3    4.27    7.21
   6  30  -3   12.48   14.40
  -6  30   2    0.32    4.25
   6  30  -2    9.02   13.08
  -6  30   1   11.47    8.34
   6  30  -1   23.63   18.18
  -6  30   0    0.59    6.18
   6  30   0    6.54   12.84
  -6  31   4   21.58   16.69
   6  31  -4   21.37   15.95
  -6  31   3   15.12   11.58
   6  31  -3    7.99   11.47
  -6  31   2    8.46    6.39
   6  31  -2   17.89   16.78
  -6  31   1    0.24    4.25
   6  31  -1   28.56   19.32
   6  32  -4   22.71   16.20
   6  32  -3   21.01   15.97
  -6  32   2    8.50   12.61
   7   0 -22    5.24    6.52
   7   0 -21   20.53   15.45
   7   0 -20    1.40    1.53
   7   0 -19   -0.61    2.80
   7   0 -18   -0.57    3.96
   7   0 -17   22.10   11.66
   7   0 -16  -10.56   11.89
   7   0 -15   54.53   15.75
   7   0 -14  -14.27   10.51
   7   0 -13   81.16   19.54
   7   0 -12  -11.52    9.68
   7   0 -11   20.08    6.47
   7   0 -10   -9.97    9.41
  -7   0   9   73.18    9.72
   7   0  -9   61.84   14.26
   7   0  -8    2.29    3.14
  -7   0   8    0.20    1.72
   7   0  -8   -7.93    8.70
   7   0  -7   61.04   10.69
  -7   0   7   60.40   10.74
   7   0  -7   57.83   12.11
  -7   0   6   -2.28    3.58
   7   0  -6   -2.22    2.43
   7   0  -6   -8.74    5.91
   7   0  -5    4.28    3.18
   7   0  -5    4.66    2.80
  -7   0   5    2.60    0.54
   7   0  -4   -2.56    2.22
   7   0  -4   -3.69    4.09
   7   0  -4  -16.59   13.07
   7   0  -3 2747.17   89.26
   7   0  -3 2821.91   65.27
   7   0  -3 2816.35   98.85
   7   0  -2   -2.30    2.92
   7   0  -2    0.52    0.77
   7   0  -2  -10.27   10.56
   7   0  -1  858.76   53.96
   7   0  -1  901.24   53.22
   7   0   0   13.13    9.99
  -7   0   0  -11.44   11.96
   7   0   0   -1.16    3.13
   7   0   1  298.38   34.13
  -7   0  -1  296.44   35.38
  -7   0  -2    3.76    6.78
   7   0   2   -7.00    6.79
  -7   0  -3   25.51   14.28
   7   0   3    4.35    0.95
  -7   0  -4   27.13   16.95
   7   0   4   -2.08    6.06
   7   0   5  124.77   24.78
   7   0   6    2.58    2.83
   7   0   7    9.85    7.16
   7   0   8    1.22    2.11
   7   0   9  163.63   31.93
   7   0  10   -0.17    3.23
   7   0  11  188.18   36.33
   7   0  12    3.59    4.62
   7   0  13  235.76   42.22
   7   0  14    1.31    5.42
   7   0  15    8.00    8.76
   7  -1 -22   -0.82    0.40
   7   1 -22    9.85   14.02
   7  -1 -21    2.24    7.14
   7   1 -21    6.65    7.48
   7  -1 -20   13.43   11.02
   7   1 -20   26.10   16.09
   7  -1 -19   10.82    9.31
   7   1 -19   21.44   14.43
   7  -1 -18  -13.07   12.48
   7   1 -18    8.22    8.10
   7  -1 -17   -9.59   12.00
   7   1 -17   -3.43    4.68
   7  -1 -16   -6.96   11.26
   7   1 -16    1.94    2.92
   7  -1 -15  -12.07   12.57
   7   1 -15   -0.65    1.85
   7  -1 -14  -11.99   10.82
   7   1 -14   -3.07    1.37
   7  -1 -13    7.19    9.30
   7   1 -13   21.19    8.21
   7  -1 -12   -6.47    9.75
   7   1 -12   -4.98    5.43
   7  -1 -11  184.91   29.14
   7   1 -11  190.25   28.82
   7  -1 -10   -3.17    7.71
   7   1 -10   -1.50    4.45
   7  -1  -9   15.90    4.79
   7  -1  -9    8.46    3.96
   7   1  -9    7.88    3.36
  -7  -1   9   11.80    4.15
   7  -1  -8   24.41    6.52
  -7  -1   8   21.40    5.54
   7  -1  -8   23.73    9.88
  -7   1   8   26.29    6.84
   7   1  -8   20.58    7.37
  -7  -1   7  105.47   14.21
   7  -1  -7  106.11   14.12
   7  -1  -7  109.23   18.29
   7   1  -7  111.99   18.39
  -7   1   7  105.38   14.11
   7   1  -6  297.06   25.78
   7  -1  -6  310.15   26.03
   7  -1  -6  330.52   30.03
   7   1  -6  329.14   29.43
  -7   1   6  309.96   26.28
  -7  -1   6  324.69   26.55
   7   1  -5   -1.20    1.60
  -7  -1   5    1.67    2.49
  -7   1   5    1.45    0.72
   7  -1  -5    3.21    2.65
   7  -1  -5   -0.46    2.60
   7   1  -5    4.19    3.47
   7   1  -4  272.60   27.21
   7  -1  -4  262.20   26.90
   7  -1  -4  269.14   23.27
   7   1  -4  262.40   22.55
   7  -1  -4  247.73   29.90
   7   1  -3  413.53   34.41
   7  -1  -3  391.57   33.93
   7  -1  -3  411.01   25.53
   7   1  -3  389.83   24.02
   7   1  -3  393.35   36.73
   7  -1  -3  394.22   37.74
   7   1  -2    1.57    1.86
   7  -1  -2    3.71    0.66
   7  -1  -2    5.41    4.80
   7  -1  -2    3.94    2.43
   7   1  -1   89.25   16.89
   7  -1  -1   99.91   18.19
   7  -1  -1   91.75    8.33
   7   1  -1   96.74   16.46
   7  -1  -1  124.76   19.72
   7   1   0   23.76    9.88
  -7   1   0   -6.48   10.57
  -7  -1   0   -0.36    9.19
   7   1   0   16.05    7.33
   7  -1   0   21.06    9.03
   7   1   1  653.79   50.92
  -7   1  -1  661.56   52.61
  -7  -1  -1  695.28   54.60
   7  -1   1  650.98   50.36
  -7   1  -2   19.98   10.11
  -7  -1  -2   13.30    8.22
   7   1   2   19.17    8.48
   7  -1   2   18.44    8.56
   7   1   3  143.78   24.98
   7  -1   3  134.90   24.15
  -7   1  -3  145.04   26.03
  -7  -1  -3  141.31   26.48
  -7  -1  -4   31.92   18.13
  -7   1  -4   27.19   15.64
   7   1   4   10.60    6.55
   7   1   5   52.75   15.98
   7  -1   5   54.81   16.06
   7   1   6   64.29   18.63
   7  -1   6   63.65   17.96
   7   1   7   74.15   20.71
   7  -1   7   74.32   20.34
   7   1   8    7.37    5.44
   7  -1   8    5.81    2.06
   7   1   9  172.84   32.94
   7  -1   9  178.09   33.10
   7   1  10   13.41    9.86
   7  -1  10   17.43    9.69
   7   1  11  127.48   29.49
   7  -1  11  117.96   28.77
   7   1  12    6.54    9.83
   7  -1  12   14.98   10.55
   7   1  13   24.76   14.88
   7  -1  13   20.01   14.27
   7   1  14   60.66   22.49
   7  -1  14   61.27   22.36
   7  -1  15    5.31    8.44
   7  -1  16   13.38   11.66
   7  -2 -22    4.84    6.73
   7   2 -22   15.00   18.72
   7  -2 -21   30.63   18.46
   7   2 -21   29.15   18.51
   7  -2 -20   -3.42    8.32
   7   2 -20    0.64    5.63
   7  -2 -19   -1.96    1.94
   7   2 -19    3.07    5.82
   7  -2 -18    3.69    8.58
   7   2 -18   16.20   12.76
   7  -2 -17   17.71    5.83
   7   2 -17   18.06   13.23
   7  -2 -16   -5.02   12.27
   7   2 -16   11.38    8.83
   7  -2 -15  121.63   27.42
   7   2 -15  128.90   28.29
   7  -2 -14  -13.21   14.39
   7   2 -14    1.06    4.61
   7  -2 -13    2.15   12.24
   7   2 -13   10.02    6.76
   7  -2 -12    8.41    5.11
   7   2 -12    9.77    6.88
   7  -2 -11   -3.54    3.79
   7   2 -11   -3.74    6.22
   7  -2 -10  244.02   15.77
   7  -2 -10  262.36   33.73
  -7  -2  10  246.09   15.97
   7   2 -10  286.81   34.57
  -7  -2   9  108.02   12.39
   7  -2  -9  114.36   12.55
   7  -2  -9  107.75   20.28
   7   2  -9  127.07   21.46
   7  -2  -8   50.66    9.31
   7   2  -8   53.35   13.28
   7  -2  -8   45.03   12.52
  -7  -2   8   52.05    9.53
   7  -2  -7  171.31   18.28
   7   2  -7  182.68   23.35
   7  -2  -7  180.15   23.60
  -7   2   7  165.51   18.13
  -7  -2   7  175.30   18.72
  -7  -2   6    0.40    0.37
   7  -2  -6   -1.87    3.35
   7   2  -6    1.30    2.68
   7  -2  -6    2.07    1.30
  -7   2   6    0.94    1.70
   7   2  -5   54.01   11.54
   7  -2  -5   46.04   10.17
   7   2  -5   50.33   11.24
  -7  -2   5   45.00   10.38
  -7   2   5   46.85   10.76
   7  -2  -5   50.13   11.01
   7   2  -4   11.47    5.31
   7  -2  -4   10.43    3.71
   7   2  -4   15.54    6.08
   7  -2  -4   12.56    5.90
   7   2  -3  443.80   35.98
   7  -2  -3  442.65   36.36
   7  -2  -3  456.95   27.99
   7   2  -3  462.37   39.03
   7  -2  -3  454.60   39.71
   7  -2  -2   29.43    6.09
   7   2  -2   19.77    3.15
   7  -2  -2   32.05    9.62
   7  -2  -2   24.84    7.30
   7   2  -2   30.81   10.27
   7   2  -1  214.97   27.18
   7  -2  -1  216.31   14.71
   7  -2  -1  224.08   27.47
   7   2  -1  231.49   25.85
   7  -2  -1  260.27   29.10
  -7   2   0   15.80    7.24
  -7  -2   0   17.86    1.93
   7  -2   0   19.84    3.62
   7   2   0   38.39   11.29
   7  -2   0   27.75   10.72
   7   2   0   28.80   10.52
   7   2   1  705.40   43.97
   7   2   1  686.74   52.10
  -7  -2  -1  700.25   55.84
   7  -2   1  693.36   52.09
  -7   2  -1  724.07   53.30
   7   2   2   96.84   20.36
  -7   2  -2  107.64   20.82
  -7  -2  -2   99.61   21.14
   7  -2   2   90.92   19.88
  -7   2  -3   24.97   12.81
   7   2   3   15.48    8.06
  -7  -2  -3   25.41   13.36
   7  -2   3   17.45    8.27
   7   2   4   86.60   19.97
   7  -2   4   89.16   20.21
  -7  -2  -4  122.51   27.79
  -7   2  -4  108.72   25.13
   7   2   5  162.16   28.67
   7  -2   5  154.58   27.60
   7   2   6   77.27   20.36
   7  -2   6   76.03   20.17
   7   2   7   16.31   10.38
   7  -2   7   23.55   11.19
   7   2   8   65.33   20.14
   7  -2   8   55.68   17.06
   7   2   9   21.77   11.77
   7  -2   9   21.46    9.55
   7   2  10   41.41   17.47
   7  -2  10   39.58   15.33
   7   2  11   19.39   12.60
   7  -2  11   12.54   10.20
   7   2  12   18.35   11.12
   7  -2  12   15.32    9.81
   7  -2  13   55.89   20.13
   7  -2  14    0.83    1.03
   7  -2  15   23.90   16.07
   7  -2  16    1.35    5.64
   7  -2  17   16.87   13.67
   7  -3 -22    1.62    3.68
   7   3 -22   21.60   17.35
   7  -3 -21   20.58    5.32
   7   3 -21   35.86   19.17
   7   3 -20   81.09   28.04
   7  -3 -20   53.15   21.42
   7  -3 -19   -8.08   11.20
   7   3 -19   17.94   16.44
   7  -3 -18   20.40    8.52
   7   3 -18   29.33   15.42
   7  -3 -17   23.79    9.75
   7   3 -17   32.90   16.77
   7  -3 -16  426.40   55.01
   7   3 -16  448.56   54.61
   7  -3 -15   -9.52   12.79
   7   3 -15   12.33   12.89
   7  -3 -14   27.54   13.49
   7   3 -14   39.68   15.70
   7  -3 -13   14.13   10.90
   7   3 -13   12.45   11.05
   7  -3 -12   23.70   10.56
   7   3 -12   30.02   13.74
   7  -3 -11   17.39    9.26
   7   3 -11   14.46    9.59
  -7  -3  11    6.98    2.34
   7  -3 -10   35.20    6.25
   7  -3 -10   35.37   11.61
   7   3 -10   42.76   14.84
  -7  -3  10   37.98    6.66
  -7  -3   9    4.47    2.50
   7  -3  -9    3.31    1.87
   7  -3  -9    5.33    2.96
   7   3  -9    7.98    6.15
   7  -3  -8   98.24   13.24
   7  -3  -8  102.58   19.23
   7   3  -8   98.99   18.22
  -7  -3   8   98.05   13.31
   7  -3  -7  266.08   29.45
   7  -3  -7  259.98   23.15
  -7  -3   7  270.16   23.78
   7   3  -7  254.28   27.96
   7  -3  -6  296.30   29.29
  -7  -3   6  327.22   27.62
   7  -3  -6  320.96   27.20
   7   3  -6  308.31   29.04
   7  -3  -5  478.64   35.20
  -7  -3   5  480.76   34.09
   7  -3  -5  506.16   35.87
   7   3  -5  480.99   33.26
  -7  -3   4  203.17   20.36
   7  -3  -4  210.86   24.19
   7   3  -3  258.40   27.51
  -7  -3   3  272.61   20.96
   7  -3  -3  272.12   28.70
   7   3  -2  337.75   32.87
   7  -3  -2  340.96   33.50
   7   3  -2  333.60   31.82
   7  -3  -2  335.85   33.53
   7   3  -1  423.94   38.05
   7  -3  -1  418.14   38.60
   7   3  -1  442.20   35.65
   7  -3  -1  434.38   37.89
   7  -3   0   -2.21    3.81
   7   3   0    3.49    5.12
  -7  -3   0   -8.48   11.03
  -7   3   0   -5.86    9.30
   7   3   0    2.97    4.92
   7  -3   1    3.81    4.45
   7   3   1    4.86    2.48
  -7   3  -1    4.38    4.38
  -7  -3  -1   11.60    5.93
   7   3   2  216.19   30.22
  -7   3  -2  217.15   28.65
  -7  -3  -2  211.62   31.89
   7  -3   2  202.55   29.51
   7  -3   2  183.79   11.00
   7   3   3   52.99   15.35
  -7   3  -3   70.20   18.49
   7  -3   3   58.52    6.80
   7  -3   3   58.31   15.90
  -7  -3  -3   81.81   21.85
   7   3   4  133.59   25.56
  -7  -3  -4  188.44   31.28
  -7   3  -4  140.49   26.91
   7  -3   4  135.44   11.87
   7  -3   4  129.56   25.05
   7   3   5    8.39    5.89
   7  -3   5   11.93    3.67
   7  -3   5   11.33    7.59
   7   3   6    2.00    3.97
   7  -3   6   -2.26    4.71
   7   3   7    5.47    7.65
   7  -3   7    5.00    3.26
   7   3   8   14.04   10.02
   7  -3   8   13.04    9.04
   7   3   9   24.36   12.49
   7  -3   9   20.44   10.06
   7   3  10   16.34   10.72
   7  -3  10    6.54    4.21
   7   3  11    0.82    5.82
   7  -3  11    5.22    2.55
   7  -3  12    4.74    4.52
   7  -3  13   23.55   13.53
   7  -3  14    7.32    5.77
   7  -3  15    3.12    3.83
   7  -3  16   74.60   25.67
   7  -3  17   -2.10    3.53
   7  -4 -22   11.69   12.41
   7  -4 -21  -13.13   16.44
   7   4 -21   15.86   15.25
   7  -4 -20   -6.80   11.57
   7   4 -20   26.76   18.65
   7  -4 -19   -1.26    9.47
   7   4 -19   29.14   20.10
   7  -4 -18   30.64   13.38
   7   4 -18   57.95   22.11
   7  -4 -17   -9.99   12.52
   7   4 -17   12.07   11.96
   7  -4 -16   10.79    3.66
   7   4 -16   31.39   17.71
   7  -4 -15   -0.69    3.69
   7   4 -15    6.70   11.72
   7  -4 -14   11.39    9.23
   7   4 -14   22.89   14.94
   7  -4 -13    4.66    7.61
   7   4 -13   12.66   13.31
   7  -4 -12   57.87   18.65
   7   4 -12   87.96   23.91
  -7  -4  11    5.86    2.40
   7  -4 -11   11.37    8.51
   7  -4 -11    5.27    2.08
   7   4 -11   15.25   11.50
   7  -4 -10  176.48   28.02
  -7  -4  10  176.10   15.76
   7   4 -10  182.27   28.15
   7  -4 -10  170.17   15.05
   7  -4  -9  118.26   21.11
   7  -4  -9  116.73   13.75
   7   4  -9  133.74   22.70
  -7  -4   9  121.53   14.46
   7  -4  -8  190.32   26.45
   7   4  -8  190.75   26.18
   7  -4  -8  184.79   18.94
  -7  -4   8  190.37   19.39
   7  -4  -7   -0.83    1.47
   7  -4  -7   -4.57    4.86
  -7  -4   7    0.01    1.48
  -7  -4   6    2.41    1.03
   7  -4  -6    6.80    3.97
  -7  -4   5   32.38    8.78
   7  -4  -5   32.13    9.04
   7  -4  -4   12.82    6.14
  -7  -4   4   11.43    5.23
  -7  -4   3   98.72   13.08
   7  -4  -3   97.90   17.20
  -7  -4   2  218.40   17.18
   7  -4  -2  221.58   27.10
   7   4  -2  210.17   24.65
   7   4  -1  122.45   20.89
  -7  -4   1  121.80   10.85
   7  -4  -1  127.45   21.59
   7   4  -1  121.82   17.87
   7  -4  -1  159.29   24.25
   7   4   0  134.73   22.42
  -7  -4   0  107.52   20.79
   7  -4   0  125.49   22.50
   7   4   0  133.12   18.09
  -7   4   0  119.72   20.06
  -7   4  -1   13.43    2.42
   7  -4   1   16.91    8.13
   7   4   1   19.09    8.73
  -7  -4  -1   15.42    6.32
   7   4   2  102.85   20.77
  -7   4  -2   89.37   18.08
   7  -4   2   99.88   20.35
  -7  -4  -2   93.90   21.61
   7   4   3   83.30   19.74
  -7   4  -3  100.49   20.39
  -7  -4  -3   96.71   22.98
   7  -4   3   84.21   19.61
   7  -4   3   79.99    9.51
   7   4   4  112.06   23.03
  -7  -4  -4  109.39   25.04
  -7   4  -4  139.90   25.25
   7  -4   4   95.00   11.13
   7  -4   4   99.59   21.93
   7   4   5   15.15    8.74
   7  -4   5   19.52    5.30
  -7  -4  -5   21.84    4.68
   7  -4   5   18.98    9.08
   7   4   6   51.18   16.83
   7  -4   6   54.31    9.78
  -7  -4  -6   56.87    8.69
   7  -4   6   44.08   15.27
   7   4   7    5.28    8.85
  -7  -4  -7    8.35    5.01
   7  -4   7    4.45    5.41
   7   4   8   34.60   14.86
  -7  -4  -8   34.70    8.84
   7  -4   8   23.06   11.51
   7  -4   9   11.85    8.59
   7  -4  10   25.74   12.86
   7  -4  11   -8.87   12.10
   7  -4  12   -5.81    8.95
   7  -4  13   -2.52    7.55
   7  -4  14    8.56   10.02
   7  -4  15    5.20    4.62
   7  -4  16   18.93   14.09
   7  -4  17    9.39    9.84
   7  -5 -22    6.76    5.24
   7  -5 -21  -12.67   16.97
   7  -5 -20    1.49   13.61
   7  -5 -19   -4.94   11.79
   7   5 -19   41.88   21.53
   7  -5 -18    2.62   10.27
   7   5 -18   20.03   15.27
   7  -5 -17    1.16    8.90
   7   5 -17   16.66   13.63
   7  -5 -16    4.81    6.17
  -7   5  16   -0.96    4.47
   7   5 -16   11.82   12.77
  -7   5  15   17.97    7.30
   7  -5 -15   19.85   13.81
   7   5 -15   50.63   20.33
  -7   5  14    0.93    6.92
   7  -5 -14    3.17    5.53
  -7   5  13   70.34   18.16
   7  -5 -13   70.84   20.84
   7   5 -13  102.43   25.68
  -7   5  12   39.21   14.46
   7  -5 -12   33.41    5.11
   7  -5 -12   38.08   13.66
  -7  -5  12   36.09    5.53
   7   5 -12   68.02   21.00
   7  -5 -11  304.34   39.19
  -7  -5  11  311.18   20.20
   7  -5 -11  311.36   19.65
   7   5 -11  319.11   39.02
  -7  -5  10   58.07    9.75
   7  -5 -10   49.88   14.99
   7   5 -10   86.02   20.47
   7  -5 -10   61.81    9.81
  -7  -5   9  392.11   27.57
   7  -5  -9  389.18   41.13
   7   5  -9  418.84   40.24
   7  -5  -9  387.72   26.88
   7  -5  -8   11.87    4.93
  -7  -5   8   12.59    5.24
  -7  -5   7    4.07    2.56
   7  -5  -7    3.66    3.05
   7  -5  -6   47.25   10.96
  -7  -5   5   28.14    8.80
   7  -5  -5   28.77    8.80
   7  -5  -4   16.98    6.89
  -7  -5   4   16.08    5.13
  -7  -5   3  131.57   15.52
   7  -5  -3  139.91   21.47
  -7  -5   2  403.27   25.22
   7   5  -2  367.26   33.12
   7  -5  -2  416.56   37.82
  -7  -5   1  165.39   14.30
   7   5  -1  152.51   19.19
   7  -5  -1  170.74   24.97
   7  -5  -1  204.58   27.79
  -7  -5   0   -8.99   12.84
  -7  -5   0    0.77    0.46
   7  -5   0   -2.63    4.91
   7   5   0    5.63    5.65
  -7  -5  -1  327.64   14.27
   7  -5   1  367.69   39.59
  -7  -5  -1  378.01   41.70
   7   5   1  399.64   30.07
  -7   5  -1  382.28   37.84
   7  -5   2   26.46   10.60
  -7  -5  -2   32.97   12.43
  -7   5  -2   37.34   11.25
  -7   5  -3  112.44   21.60
  -7  -5  -3  135.69   28.31
   7  -5   3  100.31   12.34
   7  -5   3   92.77   20.76
   7  -5   4   21.60    9.80
  -7   5  -4   31.53   15.12
  -7  -5  -4   17.80    3.38
   7  -5   4   25.20    6.45
  -7  -5  -4   14.07    2.09
   7  -5   5    6.77    4.96
   7  -5   5    0.05    3.36
  -7  -5  -6   18.93    4.59
   7  -5   6   24.65   11.40
   7  -5   7  245.32   37.75
  -7  -5  -7  243.55   20.33
   7  -5   8   58.63   18.76
  -7  -5  -8   56.94   10.66
   7  -5   9   97.29   25.24
   7  -5  10    5.26    6.13
   7  -5  11   12.76    9.18
   7  -5  12    3.74    1.40
   7  -5  13    0.96    5.62
   7  -5  14    2.03    1.72
   7  -5  15   -4.77    7.41
   7  -5  16    4.95    6.54
   7  -5  17    2.02    6.39
   7  -6 -21   43.15   20.28
   7  -6 -20   -1.38   11.93
  -7   6  19    6.50    1.54
   7  -6 -19   14.71    6.71
  -7   6  18    1.12    5.70
   7  -6 -18    3.69    1.72
  -7   6  17   17.04   10.20
   7  -6 -17   24.49   13.20
  -7   6  16   88.46   23.52
   7  -6 -16   95.77   26.44
  -7   6  15  127.64   27.88
   7  -6 -15  143.86   30.80
  -7   6  14   -3.90    8.63
   7  -6 -14   -0.34    4.99
  -7   6  13   22.28    9.90
   7  -6 -13   19.70    3.72
   7  -6 -13   26.68   12.04
  -7   6  12    7.52    4.65
   7  -6 -12    9.71    3.37
   7  -6 -12    6.68    6.98
  -7  -6  12    9.40    3.33
  -7   6  11   15.91    6.99
   7  -6 -11   13.70    3.97
  -7  -6  11   21.47    5.73
   7  -6 -11   20.54    5.58
  -7   6  10   -1.80    3.74
   7  -6 -10   -3.68    8.33
  -7  -6  10    2.03    0.74
   7  -6 -10   -0.93    2.76
  -7   6   9   28.99   11.24
   7  -6  -9   26.47    7.22
  -7  -6   9   32.34    8.36
   7  -6  -8   49.10   10.51
  -7  -6   8   64.03   12.38
  -7  -6   7   16.41    6.05
   7  -6  -7   10.34    4.97
   7  -6  -6   -0.65    2.65
   7  -6  -5   39.27   10.38
  -7  -6   4   11.98    3.50
   7  -6  -4   11.09    4.51
   7  -6  -3  986.63   57.92
  -7  -6   3  978.51   45.75
  -7  -6   2   11.15    4.15
   7  -6  -2   13.19    6.88
  -7  -6   1  110.81   12.82
   7   6  -1  100.06   15.67
   7  -6  -1  112.58   21.16
  -7  -6   0   41.93    8.16
  -7  -6   0   66.06    9.20
   7   6   0   58.81   11.64
   7  -6   0   60.56   15.61
  -7   6  -1  248.20   29.36
  -7  -6  -1  239.26   33.93
   7  -6   1  262.76   33.71
   7   6   1  279.68   24.32
  -7   6  -2   -4.51    5.16
  -7  -6  -2    4.23    8.45
   7  -6   2    0.44    3.22
  -7   6  -3    7.51    8.50
  -7  -6  -3   12.38   12.19
   7  -6   3    2.69    3.53
  -7  -6  -4   89.34   24.30
  -7   6  -4   98.24   20.76
  -7  -6  -4   68.15    8.59
   7  -6   4   79.31   12.89
   7  -6   4   71.96   18.49
   7  -6   5   -0.67    3.44
  -7  -6  -5    1.56    2.27
   7  -6   5   -0.60    0.62
  -7  -6  -5   -3.68    5.31
   7  -6   6   -0.93    1.59
  -7  -6  -6   -4.85    4.16
   7  -6   7   29.91   13.57
  -7  -6  -7   23.25    5.60
  -7  -6  -8   -0.40    3.12
   7  -6   8   -2.28    4.13
   7  -6   9   43.36   16.90
   7  -6  10   14.63   10.72
   7  -6  11   49.71   18.09
   7  -6  12   -1.62    4.67
   7  -6  13   15.44    9.71
   7  -6  14   21.83   13.31
   7  -6  15   -1.08    4.32
   7  -6  16   16.77   10.77
   7  -6  17   22.91   15.84
   7  -7 -21    2.94    7.23
  -7   7  20   17.39   11.41
   7  -7 -20    7.97    0.95
  -7   7  19   14.69    9.55
   7  -7 -19   13.86    9.37
  -7   7  18   20.66   10.97
   7  -7 -18   18.92   12.17
  -7   7  17   34.38   15.73
   7  -7 -17   40.37   18.17
  -7   7  16   -0.35    4.30
   7  -7 -16    0.69    0.88
  -7   7  15    6.85    0.48
   7  -7 -15    2.60    8.01
  -7   7  14   -0.18    6.78
   7  -7 -14    1.73    1.14
  -7   7  13  106.23   25.31
   7  -7 -13   97.13   24.55
   7  -7 -13  102.25   10.95
  -7   7  12    6.35    5.38
   7  -7 -12   11.27    7.64
   7  -7 -12    8.30    3.00
  -7  -7  11   51.54   10.14
  -7   7  11   43.98   16.00
   7  -7 -11   49.28    9.01
   7  -7 -11   42.69   12.62
  -7  -7  10   37.95    9.38
  -7   7  10   32.10   13.10
   7  -7 -10   34.88    8.23
  -7   7   9    0.22    3.19
  -7  -7   9    0.70    1.96
   7  -7  -9    0.31    1.09
  -7   7   8   44.43   13.80
  -7  -7   8   47.80   11.31
   7  -7  -8   46.14   10.62
   7  -7  -8   26.87    4.56
   7  -7  -7   12.14    5.75
   7  -7  -6   -1.82    3.08
   7  -7  -5   70.40   14.69
   7  -7  -4   35.51   10.80
  -7  -7   4   40.14   10.40
   7  -7  -3    5.82    3.00
  -7  -7   3    2.72    3.22
   7  -7  -2   65.21   14.80
  -7  -7   2   69.96   12.14
   7  -7  -1  294.99   34.11
  -7  -7   1  308.75   23.08
   7   7  -1  283.73   27.18
   7  -7   0   54.11   15.51
  -7  -7   0   44.91   12.88
   7   7   0   51.50   10.50
   7  -7   1   88.62   20.02
  -7  -7  -1   82.36   19.22
  -7   7  -1   70.72   14.28
   7   7   1  107.51   14.70
  -7   7  -2   60.19   13.00
  -7  -7  -2   70.38   18.93
   7  -7   2   61.54   16.95
  -7  -7  -3  318.08   41.22
  -7   7  -3  278.20   32.80
   7  -7   3  243.54   34.99
  -7  -7  -4   85.23   23.47
  -7   7  -4   59.06   16.91
   7  -7   4   31.94   13.14
   7  -7   5   -1.07    2.85
  -7  -7  -5    0.42    1.72
   7  -7   5    4.14    4.73
   7  -7   6   19.29    9.96
  -7  -7  -6   20.41    5.93
   7  -7   7   18.75    9.84
  -7  -7  -7   18.31    6.35
   7  -7   8    0.91    2.90
   7  -7   9  136.05   30.00
   7  -7  10    8.70    7.25
   7  -7  11   61.39   20.71
   7  -7  12   -1.56    5.92
   7  -7  13    3.04    2.22
   7  -7  14   11.76    7.71
   7  -7  15   -2.13    3.70
   7  -7  16    0.49    1.60
   7  -7  17    4.54    4.09
   7  -8 -21   53.82   21.71
  -7   8  20    2.11    1.21
   7  -8 -20    2.25    7.40
  -7   8  19   -0.18    6.20
   7  -8 -19    3.89    6.21
  -7   8  18   62.75   22.28
   7  -8 -18   68.98   24.11
  -7   8  17    6.52    4.84
   7  -8 -17    5.81    0.94
  -7   8  16  447.55   56.37
   7  -8 -16  482.97   61.38
  -7   8  15    2.51    6.70
   7  -8 -15    0.63    2.60
  -7   8  14   25.57   12.03
   7  -8 -14   29.66   13.41
  -7   8  13   29.69   12.65
   7  -8 -13   30.20    6.71
   7  -8 -13   29.56   11.93
  -7   8  12   -2.39    5.22
   7  -8 -12   -5.33   10.81
   7  -8 -12    5.71    3.36
  -7  -8  11   27.54    8.08
  -7   8  11   22.62   11.30
   7  -8 -11   25.68    7.31
  -7   8  10   82.22   21.86
  -7  -8  10   97.16   15.81
   7  -8 -10   91.04   14.49
   7  -8  -9    3.29    2.86
  -7   8   9    0.59    6.54
  -7  -8   9    7.26    5.63
   7  -8  -9  -11.05   14.16
  -7   8   8  102.52   23.32
   7  -8  -8  104.51   17.01
   7  -8  -8   87.30   19.46
  -7   8   7   80.64   20.48
   7  -8  -7   92.31   16.50
   7  -8  -7   68.43   16.91
  -7   8   6  297.18   39.36
   7  -8  -6  326.68   31.93
   7  -8  -5   92.01   17.23
   7  -8  -4   59.96   14.19
   7  -8  -3    0.45    1.92
  -7  -8   3    4.67    5.24
   7  -8  -2    7.03    5.52
  -7  -8   2   12.38    6.46
   7  -8  -1  417.06   41.57
   7   8  -1  383.06   31.34
   7  -8   0  222.54   31.04
  -7  -8   0  201.95   30.78
   7   8   0  205.77   21.24
   7  -8   1  101.67   22.03
  -7   8  -1   92.99   16.91
  -7  -8  -1  106.40   22.52
   7   8   1  134.48   16.08
   7  -8   2   99.43   22.35
  -7   8  -2   94.76   16.81
  -7  -8  -2   95.19   21.87
  -7   8  -3   50.81   13.83
   7  -8   3   37.92   14.12
  -7  -8  -3   38.54   14.91
  -7   8  -4   73.44   18.03
  -7  -8  -4   82.35   24.06
   7  -8   4   44.67   14.45
  -7  -8  -5  153.25   32.47
  -7   8  -5  120.82   23.29
   7  -8   5   90.52   22.06
  -7  -8  -6  109.49   15.01
   7  -8   6  109.64   25.42
   7  -8   7    1.75    0.72
  -7  -8  -7    2.71    3.02
   7  -8   8    2.73    6.10
   7  -8   9   19.00   10.53
   7  -8  10    9.21    6.80
   7  -8  11   20.85   12.45
   7  -8  12   -3.65    5.76
   7  -8  13   15.59   11.97
   7  -8  14   14.53   11.37
   7  -8  15    8.13    6.39
   7  -8  16    2.21    2.28
   7  -8  17    3.92    4.79
   7  -9 -21    5.84    5.31
  -7   9  20   74.84   24.78
   7  -9 -20   67.27   26.94
  -7   9  19    0.78    9.39
   7  -9 -19   -2.03    8.28
  -7   9  18   13.29    9.31
   7  -9 -18   15.70   12.37
  -7   9  17    7.81    5.30
   7  -9 -17    8.96    8.99
  -7   9  16   36.69   16.22
   7  -9 -16   46.15   19.13
  -7   9  15   23.02   13.04
   7  -9 -15   16.72   10.57
  -7   9  14   26.47   13.37
   7  -9 -14   19.12    5.84
   7  -9 -13    8.10    4.17
  -7   9  13    1.70    3.06
   7  -9 -13    2.68    8.29
  -7   9  12   24.64   10.80
   7  -9 -12   26.91    7.74
  -7   9  11   -3.69    5.83
   7  -9 -11    2.22    2.40
  -7   9  10   22.64   10.78
   7  -9 -10   25.08    8.44
  -7   9   9   -4.95    8.79
   7  -9  -9    2.24    3.82
   7  -9  -9  -20.15   15.88
  -7   9   8  294.15   41.51
   7  -9  -8  294.42   37.04
   7  -9  -8  292.06   29.28
  -7   9   7   28.86   12.89
   7  -9  -7   25.93    8.94
   7  -9  -7   12.26    5.98
  -7   9   6   71.80   19.13
   7  -9  -6   76.85   16.55
   7  -9  -6   56.90   13.77
  -7   9   5   34.94   12.39
   7  -9  -5   32.80   11.02
   7  -9  -5   31.17   10.11
   7  -9  -4  105.63   19.87
   7  -9  -3   14.32    6.44
   7  -9  -3   11.71    6.65
   7  -9  -2   70.38   15.30
   7  -9  -2   51.01   14.53
   7  -9  -1    6.64    5.39
   7   9  -1   -2.71    6.53
  -7  -9   0   87.68   18.08
   7  -9   0  110.57   22.27
   7   9   0   94.35   13.38
   7  -9   1  118.24   23.49
   7   9   1  146.35   16.00
  -7  -9  -1   96.57   19.70
   7  -9   2  153.37   27.32
  -7  -9  -2  164.85   28.31
  -7   9  -2  148.85   21.32
  -7   9  -3   15.68    8.19
   7  -9   3    6.56    4.71
  -7   9  -4   22.27   10.82
  -7  -9  -4   25.25   17.06
   7  -9   4    6.22    6.07
  -7  -9  -5   30.59   19.22
  -7   9  -5   25.54   14.83
   7  -9   5    0.08    2.19
  -7  -9  -6   77.05   27.18
   7  -9   6    5.89    7.37
   7  -9   7    2.91    5.71
  -7  -9  -7   -0.33    2.73
   7  -9   8    1.62    1.00
   7  -9   9   17.06   12.10
   7  -9  10  114.45   29.29
   7  -9  11    9.51    7.34
   7  -9  12   16.72   12.42
   7  -9  13    1.16    6.21
   7  -9  14   72.19   25.40
   7  -9  15    2.81    1.00
   7  -9  16   56.60   22.63
   7  -9  17    1.31    3.35
   7 -10 -21   11.86   11.09
  -7  10  20    3.98    4.59
   7 -10 -20    3.92   10.59
  -7  10  19    1.48    5.99
   7 -10 -19    1.18    4.68
  -7  10  18   40.60   17.22
   7 -10 -18   43.26   18.66
  -7  10  17   10.95    8.87
   7 -10 -17   -1.32    4.34
  -7  10  16   98.96   28.07
   7 -10 -16   94.60   27.19
  -7  10  15   17.88   10.31
   7 -10 -15    7.23    2.71
  -7  10  14  105.10   28.27
   7 -10 -14   99.38   25.13
  -7  10  13    0.47    2.34
   7 -10 -13    4.08    4.57
  -7  10  12    3.63    2.63
   7 -10 -12    7.34    5.04
  -7  10  11  110.77   26.75
   7 -10 -11  123.55   18.33
   7 -10 -11   88.00   20.24
  -7  10  10  178.81   33.42
   7 -10 -10  179.24   22.89
   7 -10 -10  161.03   28.16
  -7  10   9  275.84   41.65
   7 -10  -9  317.56   30.87
   7 -10  -9  291.29   39.97
  -7  10   8  274.19   40.48
   7 -10  -8  289.22   30.59
   7 -10  -8  288.09   36.64
   7 -10  -7   49.25   13.49
  -7  10   7   56.37   16.70
   7 -10  -7   25.20    6.09
   7 -10  -6  185.03   25.34
  -7  10   6  168.99   31.09
   7 -10  -6  190.02   28.40
  -7  10   5   44.37   15.69
   7 -10  -5   52.97   14.27
   7 -10  -5   61.68   16.76
   7 -10  -4   56.87   15.18
   7 -10  -4   95.17   21.12
   7 -10  -3  227.95   23.99
   7 -10  -3  222.20   30.10
   7 -10  -3  298.19   35.39
   7 -10  -2  144.83   20.24
   7 -10  -2  118.66   22.87
   7 -10  -1   37.92   12.49
   7 -10   0   10.60    6.54
   7  10   0   10.42    2.61
   7 -10   1   12.40    7.56
  -7 -10  -1   10.96    7.37
   7 -10   2   -1.26    4.69
  -7 -10  -2   -1.09    1.65
  -7  10  -2   -3.67    7.05
  -7  10  -3    3.19    2.06
   7 -10   3   -0.75    1.94
   7 -10   4  221.38   35.87
  -7  10  -4  253.96   29.27
  -7 -10  -4  287.62   40.43
  -7 -10  -5   36.54   19.33
  -7  10  -5   24.63   12.15
   7 -10   5    9.14    7.98
  -7 -10  -6  387.51   50.03
   7 -10   6  326.19   45.79
   7 -10   7   28.24   13.90
   7 -10   8    0.04    3.23
   7 -10   9  116.79   28.30
   7 -10  10    9.02    9.17
   7 -10  11   16.65   11.45
   7 -10  12   56.84   22.10
   7 -10  13   11.18    9.48
   7 -10  14    3.43    4.98
   7 -10  15    4.19    5.56
   7 -10  16    1.43    4.58
  -7  11  20   -0.03    8.77
   7 -11 -20    4.47    6.53
  -7  11  19    2.52    1.98
   7 -11 -19    1.68    9.62
  -7  11  18   27.51   14.46
   7 -11 -18   34.47   16.46
  -7  11  17    4.57    3.68
   7 -11 -17    4.65    5.82
  -7  11  16   -1.80    3.76
   7 -11 -16    2.50    1.96
  -7  11  15   -1.02    3.94
   7 -11 -15   -1.89   10.14
  -7  11  14   27.83   12.84
  -7  11  13  288.43   46.14
   7 -11 -13  278.73   27.02
  -7  11  12   89.65   25.58
   7 -11 -12  101.48   17.07
   7 -11 -12   72.86   18.74
  -7  11  11  149.65   31.06
   7 -11 -11  127.08   25.94
   7 -11 -11  142.52   20.81
  -7  11  10    9.35    5.22
   7 -11 -10    1.61   10.30
   7 -11 -10   14.78    8.32
  -7  11   9   46.24   16.80
   7 -11  -9   52.83   13.65
   7 -11  -9   23.60    3.12
   7 -11  -8    6.53    5.32
  -7  11   8    0.68    4.35
   7 -11  -8   -8.67   11.91
  -7  11   7    3.10    2.11
   7 -11  -7    7.53    7.89
   7 -11  -7   -5.41    9.66
  -7  11   6    0.09    5.28
   7 -11  -6    5.43    5.80
   7 -11  -6   -0.34    1.34
  -7  11   5  131.99   27.41
   7 -11  -5  126.34   22.69
   7 -11  -5  161.76   26.90
  -7  11   4    1.03    5.13
   7 -11  -4   -6.60    6.63
   7 -11  -4    5.94    5.77
   7 -11  -3    7.10    5.13
   7 -11  -3   20.26    8.53
   7 -11  -2    2.85    4.03
   7 -11  -1    8.88    5.74
  -7 -11   0   68.04   14.95
   7 -11   0   79.07   19.93
   7  11   0   71.04   10.91
  -7 -11  -1  206.63   31.35
   7  11   1  228.59   17.91
   7 -11   1  206.91   32.77
  -7 -11  -2  154.12   28.92
   7 -11   2  149.13   28.29
  -7  11  -2  148.99   19.78
   7 -11   3  134.41   27.62
  -7  11  -3  137.01   19.89
  -7 -11  -3  159.55   30.10
  -7  11  -4   26.28    9.72
   7 -11   4   15.66    8.64
   7 -11   5   72.72   21.32
  -7  11  -5  102.07   20.15
  -7 -11  -5  130.53   30.16
  -7 -11  -6  137.97   31.16
  -7  11  -6  120.47   22.59
   7 -11   6   84.55   23.87
  -7 -11  -7  190.18   36.51
   7 -11   7  132.91   30.30
   7 -11   8    5.60    6.17
   7 -11   9   12.19   10.37
   7 -11  10   21.92   12.83
   7 -11  11    2.56    5.99
   7 -11  12   -0.87    4.85
   7 -11  13    6.17    2.03
   7 -11  14   30.16   17.21
   7 -11  15   20.40   13.95
   7 -11  16   11.96   12.31
  -7  12  21   19.50   12.62
  -7  12  20    7.14    6.51
   7 -12 -20    3.52    9.06
  -7  12  19    6.94    7.13
   7 -12 -19   11.19    8.72
  -7  12  18   16.34   12.45
   7 -12 -18   19.82   14.23
  -7  12  17    3.77    4.69
   7 -12 -17   -3.36    8.66
  -7  12  16   10.92    8.64
   7 -12 -16    5.04    3.73
  -7  12  15    0.93    3.61
   7 -12 -15   -3.77    9.63
  -7  12  14    3.71    4.69
  -7  12  13   73.80   23.25
   7 -12 -13   53.67   17.83
  -7  12  12    5.95    2.87
   7 -12 -12   -9.08   12.42
  -7  12  11   52.88   19.25
   7 -12 -11   49.62   15.06
  -7  12  10   12.81    8.55
   7 -12 -10   -4.53   13.44
  -7  12   9  207.44   36.59
   7 -12  -9  179.45   28.09
  -7  12   8   88.11   23.86
   7 -12  -8   95.89   19.60
   7 -12  -8   80.40   18.17
  -7  12   7   17.06   10.11
   7 -12  -7   16.34    8.90
   7 -12  -7   21.58   10.16
  -7  12   6   -3.14    6.47
   7 -12  -6    5.86    7.08
   7 -12  -6   10.39   10.15
  -7  12   5   -6.14    9.03
   7 -12  -5    4.78    6.22
   7 -12  -4   19.58    4.37
  -7  12   4   25.62   11.17
   7 -12  -4   35.16   12.61
  -7  12   3  132.61   26.54
   7 -12  -3  149.19   26.10
   7 -12  -3  169.26   19.70
   7 -12  -2    5.38    5.90
   7 -12  -1  277.94   36.79
   7 -12   0   49.99   15.77
   7  12   0   41.88    7.24
  -7 -12   0   30.39    5.92
   7 -12   1   87.97   21.45
   7  12   1  100.96   11.29
  -7 -12  -1   68.80   17.88
   7 -12   2    8.78    7.42
  -7 -12  -2    2.33    1.17
   7 -12   3   -6.41    8.10
  -7 -12  -3    7.24    5.09
  -7  12  -3  -10.04    9.49
   7 -12   4   15.76    8.07
  -7  12  -4   21.55    8.28
  -7 -12  -5   43.64   19.56
  -7  12  -5   28.32   12.03
   7 -12   5    1.12    5.18
  -7  12  -6   37.87   14.54
  -7 -12  -6   57.63   22.51
   7 -12   6   14.97   11.33
  -7 -12  -7   34.73   20.05
   7 -12   7   -2.05    3.99
   7 -12   8   -0.38    3.66
   7 -12   9   24.27   12.47
   7 -12  10   20.15   12.13
   7 -12  11   86.90   26.96
   7 -12  12   56.50   21.56
   7 -12  13    5.22    7.58
   7 -12  14    6.49   10.14
   7  12  15   11.11   15.40
   7 -12  15    2.89    6.04
   7 -12  16    0.22    1.42
  -7  13  21   -2.39    7.45
  -7  13  20   44.61   21.26
   7 -13 -20   39.58   21.36
  -7  13  19   -2.00    3.09
   7 -13 -19   -3.94    5.50
  -7  13  18   33.96   16.13
   7 -13 -18   40.41   18.44
  -7  13  17   66.34   24.30
   7 -13 -17   61.42   21.64
  -7  13  16   22.45   12.54
   7 -13 -16   26.77   14.68
  -7  13  15   59.23   22.91
   7 -13 -15   46.48   16.36
  -7  13  14    7.55    6.81
   7 -13 -14   -3.27   10.32
  -7  13  13   20.34   12.17
   7 -13 -13   18.20    5.15
  -7  13  12    4.95    7.89
   7 -13 -12   -5.57   11.51
  -7  13  11   10.10    8.11
   7 -13 -11  -19.09   14.48
  -7  13  10  169.35   35.43
   7 -13 -10  150.77   27.04
  -7  13   9  111.81   28.41
   7 -13  -9  112.04   21.98
  -7  13   8   42.31   16.56
   7 -13  -8   46.72   12.36
  -7  13   7   -3.35    5.99
   7 -13  -7   -1.76    3.95
  -7  13   6   50.83   17.19
   7 -13  -6   61.94   16.71
   7 -13  -6   86.57   22.25
  -7  13   5    2.47    5.35
   7 -13  -5   10.00    8.25
  -7  13   4    7.87    1.12
   7 -13  -4    9.52    2.63
  -7  13   3   11.05    5.11
   7 -13  -3   14.31    7.76
   7 -13  -3   28.27    8.91
  -7  13   2    4.49    4.01
   7 -13  -2    9.13    7.65
   7 -13  -1    5.88    4.80
   7 -13   0   14.22    9.98
   7  13   0    3.40    1.02
   7 -13   1   31.78   12.89
  -7 -13  -1   16.32    7.03
   7  13   1   50.88    7.76
  -7 -13  -2    3.60    5.78
   7 -13   2    4.24    3.95
  -7  13  -3   22.61    4.82
  -7 -13  -3   30.84   13.07
   7 -13   3   34.39   14.52
  -7  13  -4    2.66    2.54
   7 -13   4    3.81    3.93
  -7 -13  -4   14.42   13.65
   7 -13   5   -1.82    5.52
  -7  13  -5    7.73    6.96
  -7 -13  -5   19.38   14.06
  -7  13  -6   64.57   16.61
  -7 -13  -6   64.06   22.83
   7 -13   6   38.40   15.72
  -7 -13  -7   60.93   23.81
   7 -13   7   36.00   15.31
  -7 -13  -8   50.80   22.89
   7 -13   8   18.65   13.42
   7 -13   9   74.19   24.71
   7 -13  10    1.83    6.74
   7 -13  11   10.59    8.66
   7 -13  12    1.16    7.35
   7 -13  13    8.84   11.73
   7 -13  14    1.95    7.58
   7  13  15   31.60   22.25
   7 -13  15   11.91   13.02
   7 -13  16    3.97    1.41
  -7  14  21   -2.20    8.60
  -7  14  20    5.49    9.44
  -7  14  19   -0.78    6.80
   7 -14 -19    3.33    4.81
  -7  14  18    4.75    5.32
   7 -14 -18    4.39    7.99
  -7  14  17   24.23   14.68
   7 -14 -17   15.74    9.48
   7 -14 -17   17.19    6.71
  -7  14  16   28.83   16.31
   7 -14 -16   19.34    5.98
  -7  14  15   13.39   12.13
   7 -14 -15    2.00    7.47
  -7  14  14   57.00   22.83
   7 -14 -14   52.01   18.71
  -7  14  13   32.51   17.20
   7 -14 -13   20.92    8.21
  -7  14  12   17.68   12.38
   7 -14 -12   -4.47   12.78
  -7  14  11  169.57   36.49
   7 -14 -11  149.30   27.73
  -7  14  10    7.99    9.48
   7 -14 -10  -14.69   11.88
  -7  14   9   66.13   21.63
   7 -14  -9   60.90   17.03
  -7  14   8   29.14   12.59
   7 -14  -8   40.71   12.61
  -7  14   7  236.35   40.22
   7 -14  -7  279.52   37.41
  -7  14   6   97.22   24.91
   7 -14  -6  112.96   24.39
  -7  14   5    9.87    5.27
   7 -14  -5   13.18    9.71
  -7  14   4   51.76   17.40
   7 -14  -4   66.08   11.16
   7 -14  -4   56.88   17.95
  -7  14   3   19.04    9.30
   7 -14  -3   29.64   13.22
  -7  14   2   20.12    9.67
   7 -14  -2   21.53   10.85
   7 -14  -1   37.76   14.00
   7 -14   0    7.26    7.52
   7  14   0   -1.89    3.68
   7 -14   1    5.90    6.34
   7  14   1   17.56    4.57
   7 -14   2   69.58   20.56
  -7 -14  -2   46.01   14.40
  -7 -14  -3    6.83    3.18
   7 -14   3   10.73    8.80
  -7 -14  -4   34.24   15.31
   7 -14   4   14.30    8.89
  -7  14  -4   18.33    4.86
   7 -14   5   35.41   15.33
  -7  14  -5   41.08   11.91
  -7 -14  -5   49.06   18.69
  -7  14  -6   87.22   18.17
   7 -14   6   60.86   20.36
  -7 -14  -6  108.56   28.31
  -7 -14  -7   36.97   20.09
  -7  14  -7   24.32   13.52
   7 -14   7    2.51    2.44
   7 -14   8   90.15   27.11
  -7 -14  -8  119.41   32.06
   7 -14   9   21.89   14.16
   7 -14  10   -2.10    3.79
   7 -14  11   39.67   18.00
   7 -14  12   10.12   10.32
   7 -14  13    3.95    3.02
   7 -14  14   62.23   24.04
   7  14  15   18.22   18.24
   7 -14  15   -1.56    7.95
  -7  15  21    0.77    6.31
  -7  15  20   87.41   30.42
   7 -15 -20   48.66   18.32
  -7  15  19    4.48    9.71
   7 -15 -19    8.58    9.34
   7 -15 -19   -6.59   14.45
  -7  15  18   64.42   25.81
   7 -15 -18   58.98   24.59
   7 -15 -18   61.39   21.12
  -7  15  17    5.84    6.07
   7 -15 -17   11.49    7.91
   7 -15 -17   -8.84   12.32
  -7  15  16    9.76   11.06
   7 -15 -16    6.05    6.69
  -7  15  15    7.56   10.83
   7 -15 -15  -11.54   12.66
  -7  15  14    7.57    7.53
   7 -15 -14    2.25    5.70
  -7  15  13    6.84    7.81
   7 -15 -13  -13.42   14.87
  -7  15  12    2.60    4.17
   7 -15 -12  -17.24   14.75
  -7  15  11   99.31   28.86
   7 -15 -11   84.89   21.02
  -7  15  10    5.86    2.64
   7 -15 -10  -12.39   10.69
  -7  15   9   47.52   18.06
   7 -15  -9   52.57   17.88
  -7  15   8    1.18    0.73
   7 -15  -8   11.42   11.36
   7 -15  -7   26.31   15.14
  -7  15   7    8.33    7.43
  -7  15   6  131.97   29.52
   7 -15  -6  170.91   30.45
  -7  15   5    5.16    5.45
   7 -15  -5  -10.29    8.89
   7 -15  -4   80.04   21.00
  -7  15   4   81.13   22.57
   7 -15  -4   80.66   12.33
  -7  15   3   45.29   15.88
   7 -15  -3   48.45   16.93
  -7  15   2   -2.70    8.61
   7 -15  -2    9.27    7.83
  -7  15   1   23.27    9.97
   7 -15  -1   39.90   15.99
   7 -15   0   17.87   11.97
   7  15   0    3.00    3.64
  -7 -15  -1  -11.61   14.29
   7 -15   1    5.06    6.60
   7 -15   2   10.00    8.72
  -7 -15  -2  -14.16   13.45
  -7 -15  -3  216.56   36.05
   7 -15   3  205.55   36.41
   7 -15   4    7.01    6.22
  -7 -15  -4   10.20    7.73
   7 -15   5   -6.85   10.16
  -7 -15  -5   16.21   12.78
   7 -15   6   -2.56    7.14
  -7 -15  -6   27.41   17.32
  -7 -15  -7   83.28   25.73
   7 -15   7   43.53   18.52
  -7 -15  -8   46.99   21.74
   7 -15   8   11.08    8.45
  -7 -15  -9   93.58   29.89
   7 -15   9   75.86   26.44
   7 -15  10   34.93   18.37
   7 -15  11   18.36   12.46
   7 -15  12    3.88    1.12
   7 -15  13    6.52   10.11
   7  15  14   33.61   21.50
   7 -15  14   21.51   14.50
   7  15  15   34.42   23.23
   7 -15  15    2.16    8.54
  -7  16  21    5.57    6.74
  -7  16  20    6.49    6.83
  -7  16  19   18.05   14.52
   7 -16 -19   17.17   13.05
   7 -16 -19    4.39    4.76
  -7  16  18   46.84   23.02
   7 -16 -18   49.58   23.79
   7 -16 -18   32.12   14.29
  -7  16  17   24.26   15.75
   7 -16 -17   11.54    7.06
  -7  16  16   18.57   14.46
   7 -16 -16   14.42    8.42
  -7  16  15   -0.33    3.20
   7 -16 -15  -12.38   13.51
  -7  16  14  161.83   38.59
   7 -16 -14  136.26   28.71
  -7  16  13  101.19   29.14
   7 -16 -13  102.90   24.34
  -7  16  12    7.17    8.35
   7 -16 -12   -4.32    9.34
  -7  16  11   74.42   25.16
   7 -16 -11   60.41   18.05
  -7  16  10   22.61   15.01
   7 -16 -10   22.33    9.26
  -7  16   9   26.51   15.14
   7 -16  -9   16.85   11.54
  -7  16   8   87.33   25.51
   7 -16  -8  111.94   24.26
  -7  16   7   60.33   21.67
   7 -16  -7   99.01   24.47
  -7  16   6  117.13   28.44
   7 -16  -6  188.66   32.58
  -7  16   5   11.43    8.39
  -7  16   4   30.75   15.26
  -7  16   3  107.86   26.29
   7 -16  -3  120.48   26.12
  -7  16   2   22.75   11.01
   7 -16  -2   26.42   13.70
  -7  16   1   15.27    4.87
   7 -16  -1   37.25   15.13
   7 -16   0    7.26    8.84
   7 -16   1   80.51   23.06
  -7 -16  -1   45.24    8.63
   7 -16   2    9.68    8.37
  -7 -16  -2   -5.95    9.98
   7 -16   3   49.43   18.68
  -7 -16  -3   45.42   15.21
  -7 -16  -4   84.82   23.19
   7 -16   4   84.26   23.75
  -7 -16  -5    1.33   10.04
   7 -16   5   -6.74    9.22
   7 -16   6    4.03    4.64
  -7 -16  -6   42.39   19.19
   7 -16   7   -5.60   10.12
  -7 -16  -7   34.84   19.93
  -7 -16  -8   37.83   20.27
   7 -16   8    8.15    7.85
  -7 -16  -9   78.78   28.90
   7 -16   9   48.24   21.53
  -7 -16 -10   30.83   21.21
   7 -16  10    6.08    8.72
   7 -16  11    0.47    5.67
   7 -16  12    0.10    4.52
   7 -16  13    8.24    8.42
   7  16  14   30.98   21.56
   7 -16  14   -4.37    5.84
  -7  17  20    8.28   13.51
  -7  17  19   17.82   14.98
  -7  17  18   71.44   28.23
   7 -17 -18   60.07   25.44
   7 -17 -18   68.98   22.11
  -7  17  17   22.33   16.13
   7 -17 -17   -5.17   11.45
  -7  17  16    5.04    9.39
   7 -17 -16  -18.88   17.62
  -7  17  15    7.90    5.94
   7 -17 -15  -14.96   13.72
  -7  17  14    3.94    7.40
   7 -17 -14  -10.14   12.81
  -7  17  13    9.82   11.57
   7 -17 -13   -6.75   11.08
  -7  17  12   12.84   13.46
   7 -17 -12    3.90    7.86
  -7  17  11   -3.17    5.32
   7 -17 -11   -3.43    4.59
  -7  17  10    1.58    4.49
   7 -17 -10    2.09    4.74
   7 -17  -9    9.78    9.60
  -7  17   9    4.61    8.08
   7 -17  -8   40.63   17.15
  -7  17   8    1.44    6.13
  -7  17   7    9.63   10.07
   7 -17  -7   65.63   20.94
   7 -17  -6  194.95   33.34
  -7  17   6   89.78   24.78
  -7  17   5   93.57   25.87
  -7  17   4   61.91   20.77
  -7  17   3   -4.85    6.93
   7 -17  -3    9.69    9.44
  -7  17   2   16.00    8.61
   7 -17  -2   22.79   13.54
  -7  17   1   -3.43    7.99
   7 -17  -1    7.41    6.93
   7 -17   0    5.75    6.72
  -7 -17  -1   -3.95   14.70
   7 -17   1   28.39   14.09
   7 -17   2   39.69   16.41
  -7 -17  -2   25.94    5.24
   7 -17   3    6.76    7.47
  -7 -17  -3   -7.89    9.49
  -7 -17  -4   29.17   13.88
   7 -17   4   28.31   14.21
  -7 -17  -5   26.76   14.33
   7 -17   5   15.94   10.70
  -7 -17  -6   58.84   22.56
   7 -17   6   29.43   13.97
   7 -17   7   -6.40   10.58
  -7 -17  -7   18.85   15.41
   7 -17   8   -2.08    4.09
  -7 -17  -8   18.97   16.60
  -7 -17  -9   37.57   21.60
   7 -17   9    7.79    4.42
  -7 -17 -10   21.87   18.58
   7 -17  10    8.45    7.93
  -7 -17 -11   63.92   29.58
   7 -17  11   31.30   16.51
   7 -17  12    7.81    7.77
   7  17  13   22.54   19.83
   7 -17  13    4.62    7.63
   7  17  14   18.98   17.71
  -7  18  19    7.76    9.41
  -7  18  18    7.11   10.86
  -7  18  17    9.29   12.65
   7 -18 -17  -16.88   15.47
   7 -18 -16  -13.83   12.81
  -7  18  16    5.96    5.85
  -7  18  15   22.25   15.77
   7 -18 -15   14.35    1.27
  -7  18  14   19.95   14.93
   7 -18 -14    8.56    1.10
  -7  18  13    6.14    6.42
   7 -18 -13  -10.03    8.15
  -7  18  12   13.55   11.64
   7 -18 -12    6.21    5.94
  -7  18  11    5.28    6.74
   7 -18 -11    3.34    5.96
   7 -18 -10   10.11   10.36
  -7  18  10    1.98    4.20
   7 -18  -9   33.65   15.19
  -7  18   9   10.26   13.19
  -7  18   8   18.05   12.06
   7 -18  -8   64.06   21.11
   7 -18  -7   58.00   21.43
  -7  18   7   10.59   11.30
  -7  18   6   -3.66    6.21
  -7  18   5   19.04   12.53
  -7  18   4    1.29    4.77
  -7  18   3   25.12   12.60
  -7  18   2   12.25    7.77
   7 -18  -2   24.56   12.79
  -7  18   1   97.90   24.93
   7 -18  -1  107.33   26.89
  -7  18   0   49.46   17.03
   7 -18   0   56.14   20.11
   7 -18   1   97.87   26.01
  -7 -18  -2  -19.79   15.43
   7 -18   2   -0.50    4.49
  -7 -18  -3  142.92   29.61
   7 -18   3  151.05   33.52
   7 -18   4   20.63   13.29
  -7 -18  -4    4.64    0.43
  -7 -18  -5   62.15   21.37
   7 -18   5   48.77   19.59
   7 -18   6   30.53   15.51
  -7 -18  -6   28.44   15.96
  -7 -18  -7   12.80   14.03
   7 -18   7   -6.37    8.79
   7 -18   8   11.34    7.19
  -7 -18  -8   27.76   18.28
  -7 -18  -9   63.40   25.46
   7 -18   9   37.49   17.27
  -7 -18 -10   29.96   19.71
   7 -18  10    8.83   10.37
  -7 -18 -11   78.97   29.98
   7 -18  11   32.75   18.72
  -7 -18 -12   43.22   23.37
   7 -18  12    6.66   10.03
   7  18  13   36.89   24.59
   7 -18  13    8.96    9.75
  -7  19  18    3.94    9.95
  -7  19  17    2.91   12.34
  -7  19  16    8.64    8.61
   7 -19 -16   -5.08    8.28
  -7  19  15   25.14   16.20
   7 -19 -15   26.88   11.10
  -7  19  14    6.62   10.84
   7 -19 -14   -1.55    3.78
  -7  19  13   30.96   16.80
   7 -19 -13   30.66   13.27
  -7  19  12    3.54    5.97
   7 -19 -12   12.07   11.07
   7 -19 -11   21.37   12.64
  -7  19  11    8.00    8.79
   7 -19 -10   31.41   14.78
  -7  19  10    1.84    8.38
   7 -19  -9   29.98   16.98
  -7  19   9    2.94    5.91
   7 -19  -8   82.91   22.60
  -7  19   8   18.54   12.18
  -7  19   7  102.65   29.64
  -7  19   6   37.94   17.54
  -7  19   5   -1.45    4.91
  -7  19   4   52.07   18.27
  -7  19   3    5.02    6.39
  -7  19   2   34.38   16.45
   7 -19  -2   31.51   14.67
  -7  19   1   18.30    8.97
   7 -19  -1   23.58   13.77
  -7  19   0   13.77    3.39
   7 -19   0   32.85   16.49
   7 -19   1   14.08    9.13
   7 -19   2  130.29   30.93
  -7 -19  -2  105.48   25.23
  -7 -19  -3    0.39   10.41
   7 -19   3   26.28   14.37
   7 -19   4    5.29    8.71
  -7 -19  -4   -1.70    7.08
   7 -19   5   73.99   24.18
  -7 -19  -5   80.36   23.63
  -7 -19  -6   19.01   13.80
   7 -19   6   17.25   13.62
  -7 -19  -7   16.59   15.17
   7 -19   7    1.64    4.90
   7 -19   8    1.01    4.99
  -7 -19  -8   16.72   15.47
   7 -19   9   26.67   12.41
  -7 -19  -9   50.82   22.76
  -7 -19 -10   41.59   22.30
   7 -19  10    5.16    4.66
   7 -19  11   13.38   11.65
  -7 -19 -11   44.49   24.00
   7  19  12   50.28   30.84
   7 -19  12    8.92   10.99
  -7  20  17   24.23   16.39
  -7  20  16    2.45    3.31
   7 -20 -16   -0.01    0.73
  -7  20  15    8.79    7.15
   7 -20 -15   29.12   14.66
  -7  20  14   -1.95    9.87
   7 -20 -14   10.71    8.93
  -7  20  13   45.45   20.00
   7 -20 -13   39.73   16.94
   7 -20 -12   12.23   10.51
  -7  20  12   -2.14    5.18
  -7  20  11   73.74   26.12
   7 -20 -11   96.11   24.65
   7 -20 -10   49.25   19.23
  -7  20  10   17.48   12.56
   7 -20  -9   64.46   21.67
  -7  20   9   17.94   13.69
  -7  20   8   62.02   24.58
  -7  20   7   15.49   14.11
  -7  20   6    3.03    7.76
  -7  20   5    6.28    4.43
  -7  20   4   34.22   15.77
  -7  20   3   80.15   24.84
  -7  20   2    6.59    5.87
  -7  20   1   35.26   15.15
   7 -20  -1   35.72   16.21
  -7  20   0   -1.32    6.21
   7 -20   0   -0.55    6.10
   7 -20   1    2.04    2.40
  -7 -20  -2  -14.53   16.17
   7 -20   2   10.03    9.88
  -7 -20  -3  -12.69   14.10
   7 -20   3    2.99    3.74
   7 -20   4   67.54   23.65
  -7 -20  -4   65.46   20.53
   7 -20   5    4.51    5.61
  -7 -20  -5  -10.42   10.48
  -7 -20  -6   19.63   12.30
   7 -20   6   18.06   12.43
  -7 -20  -7   13.16   13.42
   7 -20   7    9.59   10.49
   7 -20   8   60.73   23.00
  -7 -20  -8   71.89   25.51
   7 -20   9    0.16    7.38
  -7 -20  -9   12.06   13.92
  -7 -20 -10   34.22   21.21
   7 -20  10    0.66    5.28
  -7 -20 -11   64.28   27.22
   7 -20  11   15.72   13.18
  -7  21  16    6.81   13.24
  -7  21  15   -3.70   11.41
   7 -21 -15   17.17   11.96
   7 -21 -14   12.96   11.71
  -7  21  14   -7.82   11.35
   7 -21 -13   45.10   18.35
  -7  21  13    9.52    7.19
   7 -21 -12   27.07   14.91
  -7  21  12    1.86    5.40
  -7  21  11    6.80    6.48
   7 -21 -11   61.89   21.30
   7 -21 -10  101.04   25.71
  -7  21  10   53.32   21.80
  -7  21   9    3.73    9.42
  -7  21   8  111.89   32.48
  -7  21   7   10.29    8.39
  -7  21   6  161.95   37.51
  -7  21   5   -1.19    7.52
  -7  21   4   13.76   10.60
  -7  21   3   19.87   12.14
  -7  21   2    2.79    4.49
  -7  21   1   28.66   16.32
   7 -21  -1   38.07   16.59
  -7  21   0   97.31   26.49
   7 -21   0   98.27   27.98
  -7  21  -1   -2.57    7.86
   7 -21   1    9.76    9.13
   7 -21   2   23.85   13.81
   7 -21   3    8.06    9.60
  -7 -21  -3  -18.21   16.39
  -7 -21  -4    1.31    8.88
   7 -21   4   26.35   16.14
   7 -21   5   -9.35   11.29
  -7 -21  -5   -5.28   10.62
  -7 -21  -6    4.17    4.25
   7 -21   6    6.13    4.51
  -7 -21  -7    8.54   10.35
   7 -21   7   -0.52    2.73
  -7 -21  -8    9.63   12.85
   7 -21   8    4.29    4.36
   7 -21   9   11.71   10.07
  -7 -21  -9   32.18   19.85
  -7 -21 -10   17.60   16.20
   7 -21  10    3.69    6.15
  -7 -21 -11   38.71   22.44
  -7  22  15    9.97    6.32
   7 -22 -14   44.99   18.24
  -7  22  14   22.27   16.67
   7 -22 -13   40.65   18.42
  -7  22  13   -3.61    9.95
  -7  22  12    3.18    4.35
   7 -22 -12   56.98   21.29
   7 -22 -11   64.68   22.26
  -7  22  11    0.77    7.57
  -7  22  10   84.79   28.36
  -7  22   9   31.97   19.75
  -7  22   8  170.74   40.52
  -7  22   7    7.21   11.73
  -7  22   6   39.98   19.58
  -7  22   5   24.61   15.90
  -7  22   4    8.31    8.27
  -7  22   3   46.26   19.94
  -7  22   2   94.34   26.90
  -7  22   1   15.60   10.56
   7 -22  -1   19.87   14.11
  -7  22   0   10.72   11.32
   7 -22   0   20.07   14.87
  -7  22  -1    1.74    6.56
   7 -22   1   11.03   11.77
   7 -22   2   40.22   20.04
  -7 -22  -3   17.72    5.72
   7 -22   3   29.60   14.91
  -7 -22  -4   27.70    9.46
   7 -22   4   34.86   18.14
   7 -22   5    7.34   11.32
  -7 -22  -5    4.81    4.47
  -7 -22  -6   80.93   25.47
   7 -22   6   81.23   27.88
  -7 -22  -7    1.00    4.67
   7 -22   7    6.93    7.98
   7 -22   8   43.70   21.00
  -7 -22  -8   42.00   18.52
   7 -22   9    5.27    9.60
  -7 -22  -9   15.23   13.03
  -7 -22 -10   21.30   16.07
  -7  23  14   -0.34    5.66
  -7  23  13   27.80   17.88
   7 -23 -13   80.43   23.97
   7 -23 -12   82.68   23.99
  -7  23  12   28.66   17.25
  -7  23  11  -12.20   14.79
  -7  23  10    1.95    1.66
  -7  23   9   14.03   10.15
  -7  23   8   12.16   10.81
  -7  23   7    8.62   12.20
  -7  23   6  145.64   37.32
  -7  23   5   22.95   15.60
  -7  23   4   97.45   30.05
  -7  23   3   33.01   17.91
  -7  23   2    4.91    6.66
  -7  23   1    6.25    3.67
  -7  23   0    3.41    7.18
   7 -23   0   11.32   13.55
  -7  23  -1   72.35   23.75
   7 -23   1   75.72   26.16
   7 -23   2  124.48   33.08
   7 -23   3    4.32    8.84
  -7 -23  -4   20.40    7.17
   7 -23   4   58.26   24.30
   7 -23   5    9.01    7.11
  -7 -23  -5   -2.14   10.24
   7 -23   6   13.79   11.46
  -7 -23  -6    8.30    5.75
  -7 -23  -7  -10.26    8.81
   7 -23   7    5.69   10.53
  -7 -23  -8   39.61   19.20
   7 -23   8   39.17   20.28
  -7 -23  -9   26.09   18.59
  -7 -23 -10   25.07   17.00
  -7  24  13   14.70   12.12
  -7  24  12   -7.60   11.82
  -7  24  11   -4.50    6.16
  -7  24  10    3.86    5.22
  -7  24   9    2.66    6.18
  -7  24   8    3.93    3.96
  -7  24   7   10.99   11.32
  -7  24   6   55.90   24.26
  -7  24   5   18.81   15.28
  -7  24   4   -0.39    1.30
  -7  24   3   30.05   17.79
  -7  24   2   40.53   18.31
  -7  24   1  190.87   41.14
  -7  24   0  158.69   36.33
   7 -24   0  134.99   34.21
  -7  24  -1   -2.54    3.49
   7 -24   1   13.91   13.15
   7 -24   2    7.97   10.09
   7 -24   3   12.47   11.29
  -7 -24  -4    3.79    9.46
   7 -24   4   30.50   17.81
  -7 -24  -5   -4.70    9.11
   7 -24   5   -0.61    1.17
  -7 -24  -6   84.12   25.61
   7 -24   6  103.14   32.40
  -7 -24  -7    4.71    1.88
   7 -24   7   16.28   13.50
  -7 -24  -8    1.50    5.89
  -7 -24  -9    3.79    9.69
  -7  25  12   -7.10   10.96
  -7  25  11   70.28   28.61
  -7  25  10   48.65   24.23
  -7  25   9   11.33    7.59
  -7  25   8   -9.27    9.19
  -7  25   7    2.68    3.69
  -7  25   6   14.87   14.88
  -7  25   5  111.58   33.87
  -7  25   4    8.07    6.48
  -7  25   3    0.48    1.35
  -7  25   2   14.63   11.70
  -7  25   1   34.97   17.64
  -7  25   0   13.13   11.01
   7 -25   0   19.93   16.40
  -7  25  -1   39.61   18.18
   7 -25   1   58.30   23.67
   7 -25   2   64.26   24.85
   7 -25   3   23.94   16.47
   7 -25   4    7.50   10.49
  -7 -25  -5  -22.80   17.90
   7 -25   5    3.47    7.20
   7 -25   6    7.03   13.04
  -7 -25  -6   -6.63   13.55
  -7 -25  -7   27.78   12.38
  -7 -25  -8   15.17   12.79
  -7 -25  -9    4.65    2.15
  -7  26  11   -4.03    1.65
  -7  26  10   -5.90   10.97
  -7  26   9    1.46    3.60
  -7  26   8   16.96   15.44
  -7  26   7   19.13   13.74
  -7  26   6    7.12   10.16
  -7  26   5   24.66   16.99
  -7  26   4   10.46   10.11
  -7  26   3    0.58    6.34
  -7  26   2  -10.47    9.48
  -7  26   1   69.57   25.26
  -7  26   0   -0.53    0.74
   7 -26   0   12.71   13.69
  -7  26  -1    5.89    6.62
   7 -26   1    6.41    6.05
   7 -26   2   34.84   18.62
   7 -26   3    9.85   10.77
   7 -26   4   41.84   21.30
  -7 -26  -5  -22.84   19.52
   7 -26   5    2.77    6.83
  -7 -26  -6   -2.93   11.48
  -7 -26  -7   -0.35    6.30
  -7 -26  -8    4.60    5.37
  -7  27   9    1.45    7.12
  -7  27   8    5.87    9.85
  -7  27   7    6.23    9.98
  -7  27   6   56.23   24.39
  -7  27   5   67.38   26.27
  -7  27   4    2.31    2.89
  -7  27   3    7.80    6.32
  -7  27   2   -4.59    5.77
  -7  27   1    5.90    8.33
  -7  27   0   15.23   10.66
   7 -27   0   25.81   18.22
  -7  27  -1   17.83   11.53
   7 -27   1    5.89    9.64
   7 -27   2   10.12   12.08
   7 -27   3    9.31   10.04
  -7  28   8   15.10   17.17
  -7  28   7    3.31   10.82
  -7  28   6   32.43   22.39
  -7  28   5   19.73   14.54
  -7  28   4   -8.50   10.15
  -7  28   3   -2.98    3.92
  -7  28   2    2.20    6.05
  -7  28   1   -5.04    9.20
  -7  28   0    4.53    6.36
   7 -28   0    0.19    4.16
   7 -28   1   19.24   15.15
   7  29  -6   22.73   16.12
  -7  29   6    0.29    7.20
   7  29  -5   36.94   22.78
  -7  29   5    7.13   10.89
   7  29  -4   83.55   29.62
  -7  29   4   40.17   22.73
   7  29  -3   41.74   23.25
  -7  29   3    1.72    4.89
   7  29  -2   37.09   22.81
  -7  29   2   15.97   13.08
   7  29  -1   25.33   18.83
  -7  29   1    0.54    3.68
   7  29   0   29.17   22.32
  -7  29   0    5.35    2.38
   7  30  -5   22.58   18.21
  -7  30   5    3.35   11.07
   7  30  -4   37.38   21.60
  -7  30   4   11.24   12.49
   7  30  -3   20.97   17.72
  -7  30   3   -3.38    4.85
   7  30  -2   26.00   20.91
  -7  30   2   19.39   18.36
  -7  30   1   53.56   22.50
   7  31  -4   23.42   17.21
  -7  31   3   -4.85    9.14
   7  31  -3   12.23   15.01
  -7  31   2   -7.55    9.66
   8   0 -22   55.90   23.79
   8   0 -21    5.04   10.22
   8   0 -20   17.47   10.71
   8   0 -19    0.68    6.67
   8   0 -18   14.43   13.26
   8   0 -17   -4.00    8.23
   8   0 -16   17.67    6.57
   8   0 -15   -3.59    6.87
   8   0 -14   -1.79   10.34
   8   0 -13   -8.25    9.89
   8   0 -12   20.26    7.82
   8   0 -11  -11.63   12.37
   8   0 -10   -3.96    8.28
   8   0  -9   -6.63    8.21
  -8   0   9    0.50    2.23
   8   0  -8  139.01   17.60
   8   0  -8  143.09   21.48
  -8   0   8  135.49   17.18
   8   0  -7    0.17    2.08
  -8   0   7   -1.25    2.33
   8   0  -7   -2.96    5.01
   8   0  -6  296.85   28.51
   8   0  -6  299.13   28.79
   8   0  -5   -1.06    0.19
   8   0  -5    1.25    3.52
   8   0  -5   -9.30   12.75
   8   0  -4  211.55   25.99
   8   0  -4  227.77   21.01
   8   0  -4  217.13   29.18
   8   0  -3    0.14    2.70
   8   0  -3    0.26    2.73
   8   0  -2   33.89   10.83
   8   0  -2   37.82    6.63
   8   0  -2   31.27   10.18
   8   0  -1   -1.22    4.41
   8   0  -1    5.65    6.82
   8   0   0  312.75   36.11
  -8   0   0  292.11   36.95
   8   0   0  351.14   34.89
  -8   0  -1   -4.11    9.36
   8   0   1   -4.26    6.50
   8   0   2  108.60   22.34
  -8   0  -2  120.86   24.60
  -8   0  -3    2.49    8.80
   8   0   3   -6.04    7.48
  -8   0  -4   78.08   23.48
   8   0   4   41.57   14.14
  -8   0  -5   34.63   19.21
   8   0   5   -2.89    7.20
  -8   0  -6   70.27   23.99
   8   0   6   19.42    9.60
   8   0   7   -4.20    5.89
   8   0   8   14.46    9.28
   8   0   9   -0.41    4.59
   8   0  10   11.31   10.03
   8   0  11    0.05    5.79
   8   0  12  123.19   31.02
   8   0  13    0.05    6.72
   8   0  14   30.53   17.33
   8   0  15    6.14   11.09
   8  -1 -22    8.86   12.09
   8   1 -22    7.78   12.69
   8  -1 -21   23.38   18.04
   8   1 -21    8.42   11.62
   8  -1 -20   10.51   11.05
   8   1 -20   13.74   11.86
   8  -1 -19   13.30   12.34
   8   1 -19    6.02   10.21
   8  -1 -18  141.76   32.76
   8   1 -18  134.77   33.25
   8  -1 -17   -6.03   10.48
   8   1 -17   -0.98    6.50
   8  -1 -16  130.33   27.62
   8   1 -16  125.21   28.93
   8  -1 -15    9.12    3.40
   8   1 -15   10.89    7.89
   8  -1 -14   14.78    2.67
   8   1 -14   30.48   12.30
   8  -1 -13   28.87   10.73
   8   1 -13   33.74   12.14
   8  -1 -12   -7.44    9.88
   8   1 -12   -1.57    3.49
   8  -1 -11   45.41   10.14
   8   1 -11   48.02   13.34
   8  -1 -10    4.52    7.23
  -8  -1  10   17.90    5.29
   8   1 -10   16.98    5.74
   8  -1  -9    5.70    4.00
   8   1  -9    4.12    4.80
  -8  -1   9    2.51    0.69
   8  -1  -8  105.14   15.29
  -8   1   8  100.71   14.99
  -8  -1   8   94.94   14.40
   8  -1  -8   98.76   17.78
   8   1  -8  102.88   18.44
   8   1  -7    0.28    2.63
  -8   1   7    2.42    3.98
   8  -1  -7   -1.59    3.00
   8  -1  -7   -3.92    5.13
   8   1  -7    3.96    2.94
  -8  -1   7   -1.11    3.26
   8   1  -6   66.82   13.69
   8  -1  -6   67.94   13.97
   8  -1  -6   64.42   13.02
   8   1  -6   72.96   13.66
   8   1  -5   31.14    9.51
   8  -1  -5   25.77    6.20
   8  -1  -5   29.44    9.03
   8   1  -5   32.67    8.95
   8  -1  -5   19.61    6.77
   8   1  -4  167.12   23.25
   8  -1  -4  164.34   22.81
   8  -1  -4  159.22   17.54
   8   1  -4  163.93   17.93
   8   1  -4  160.77   25.41
   8  -1  -4  158.48   24.51
   8   1  -3    4.69    2.68
   8  -1  -3    2.56    1.34
   8  -1  -3    3.60    2.76
   8   1  -3   12.21    5.77
   8   1  -3  -11.13   10.03
   8  -1  -3  -19.30   13.60
   8   1  -2   91.42   18.35
   8  -1  -2   92.69   18.65
   8  -1  -2   89.44   10.17
   8   1  -2  103.15   18.25
   8  -1  -2  110.52   20.01
   8  -1  -1   37.24   12.28
   8   1  -1   43.81   12.99
   8  -1  -1   33.78    4.64
   8  -1  -1   57.10   15.73
   8   1  -1   49.46   12.42
  -8  -1   0    6.62    4.40
   8   1   0    8.66    4.83
   8  -1   0    8.90    5.49
  -8   1   0   -0.29   11.94
  -8   1  -1  -10.93   11.08
  -8  -1  -1  -18.24   13.39
   8   1   1   -2.66    5.15
   8  -1   1   -6.32    7.34
   8   1   2  100.61   22.30
   8  -1   2  112.06   23.15
  -8   1  -2  111.89   23.09
  -8  -1  -2  123.84   24.46
  -8  -1  -3   26.67   14.14
   8   1   3   14.86    9.36
   8  -1   3    7.79    7.36
  -8   1  -3   23.77   12.46
   8   1   4  176.18   30.55
   8  -1   4  177.56   30.53
  -8   1  -4  206.39   33.02
  -8  -1  -4  191.81   32.51
  -8  -1  -5   62.24   24.15
  -8   1  -5   54.04   20.75
   8  -1   5   17.10    8.12
   8   1   5   14.99    9.03
  -8  -1  -6   97.20   27.51
   8  -1   6   24.50   11.36
  -8   1  -6   71.91   24.70
   8   1   6   30.80   13.40
   8   1   7    5.56    4.55
   8  -1   7    5.48    3.73
   8  -1   8   13.11    7.74
   8   1   8   11.06    9.16
   8   1   9   84.38   24.08
   8  -1   9   77.12   23.23
   8   1  10   -0.41    3.56
   8  -1  10   -4.24    7.27
   8   1  11   22.11   13.63
   8  -1  11   17.39   10.36
   8   1  12   57.57   22.39
   8  -1  12   55.35   20.36
   8   1  13    9.53   10.54
   8  -1  13    3.39    4.89
   8  -1  14    8.60   10.58
   8  -1  15    7.67    8.69
   8  -1  16   26.21   16.94
   8  -2 -22   41.93   21.06
   8   2 -22   61.92   26.44
   8  -2 -21    5.73    8.26
   8   2 -21    7.59   12.35
   8  -2 -20   77.90   26.19
   8   2 -20   76.70   27.79
   8  -2 -19   -2.74    9.57
   8   2 -19    7.84   13.65
   8  -2 -18  -11.02   12.05
   8   2 -18    6.76   13.05
   8  -2 -17   -0.29    3.22
   8   2 -17   14.04   11.51
   8  -2 -16   37.95   14.24
   8   2 -16   53.66   18.91
   8   2 -15   86.29   24.01
   8  -2 -15   65.78   18.08
   8  -2 -14  -10.86   14.41
   8   2 -14   23.54   10.53
   8  -2 -13  217.04   33.44
   8   2 -13  207.58   33.37
   8  -2 -12   -4.72    9.99
   8   2 -12    3.73    4.90
  -8  -2  11  125.83   12.00
   8  -2 -11  137.33   26.26
   8   2 -11  136.37   24.53
   8  -2 -10   26.51    6.79
  -8  -2  10   23.71    6.01
   8  -2 -10   29.72   11.85
   8   2 -10   34.51   11.47
  -8  -2   9   31.91    7.81
   8  -2  -9   34.89    8.13
   8  -2  -9   34.94   12.16
   8   2  -9   33.30   11.24
   8  -2  -8  166.27   19.35
   8  -2  -8  164.10   24.69
   8   2  -8  166.59   23.90
  -8  -2   8  165.06   19.43
  -8   2   7   25.08    8.21
  -8  -2   7   20.27    7.27
   8  -2  -7   22.05    8.79
   8  -2  -7   22.93    7.64
   8   2  -7   24.41    9.79
   8  -2  -6  146.57   19.98
   8  -2  -6  156.80   21.25
   8   2  -6  148.56   20.18
   8  -2  -6  130.68   22.30
   8   2  -5    2.54    2.28
   8  -2  -5    0.44    0.97
   8   2  -5    9.20    7.36
   8  -2  -5    3.69    3.61
   8  -2  -5   -5.80    9.00
   8   2  -4   26.21    9.38
   8  -2  -4   27.70    7.84
   8   2  -4   16.42    4.14
   8  -2  -4   24.38    8.63
   8  -2  -4    1.39   11.37
   8   2  -3   91.09   17.95
   8  -2  -3   82.66   17.02
   8  -2  -3   84.16   11.98
   8   2  -3   75.49   15.76
   8  -2  -3   59.20   12.41
   8   2  -2  157.47   24.44
   8  -2  -2  159.37   24.66
   8  -2  -2  164.28   14.71
   8   2  -2  157.26   22.77
   8  -2  -2  161.91   25.04
   8   2  -1   64.51   15.76
   8  -2  -1   66.29   16.11
   8  -2  -1   61.22    7.46
   8   2  -1   50.37   13.73
   8  -2  -1  100.49   20.31
   8   2   0   98.53   20.30
  -8  -2   0   72.85   14.98
   8  -2   0  110.27   21.73
  -8   2   0   80.98   16.30
   8   2   0  129.03   21.14
   8   2   1  273.24   35.43
  -8   2  -1  265.90   35.28
  -8  -2  -1  272.16   36.24
   8  -2   1  269.99   35.22
   8   2   2    4.38    1.14
  -8   2  -2    1.31    4.02
  -8  -2  -2    7.69    7.20
   8  -2   2    5.06    4.12
   8   2   3    1.37    1.01
  -8   2  -3   11.48    9.66
  -8  -2  -3    4.62    8.17
   8  -2   3    1.19    0.85
  -8   2  -4   26.13   14.84
  -8  -2  -4   34.85   18.26
   8   2   4   10.71    5.78
   8  -2   4   19.06   10.42
  -8  -2  -5   78.78   23.67
  -8   2  -5   69.57   22.73
   8   2   5   45.11   15.73
   8  -2   5   45.17   15.39
   8   2   6    9.83    7.12
  -8  -2  -6   37.03   19.51
   8  -2   6    4.79    4.77
  -8   2  -6   47.36   20.41
   8  -2   7   36.13   14.19
   8   2   7   46.69   16.75
   8   2   8   10.54    8.85
   8  -2   8    1.83    4.08
   8   2   9   29.30   13.52
   8  -2   9   27.30   12.28
   8   2  10    9.64    7.50
   8  -2  10    9.24    8.27
   8   2  11    8.26    9.05
   8  -2  11    6.84    7.24
   8   2  12   24.98   15.53
   8  -2  12   11.57    9.14
   8  -2  13   29.86   16.64
   8  -2  14   33.09   17.39
   8  -2  15    4.98    9.66
   8  -2  16    4.92    5.57
   8  -3 -21    1.91   10.50
   8   3 -21   18.22   14.17
   8  -3 -20    4.22    5.15
   8   3 -20   17.02   17.66
   8  -3 -19   -6.32   10.51
   8   3 -19   22.60   17.03
   8  -3 -18    7.52    6.72
   8   3 -18   27.16   16.40
   8   3 -17  102.49   29.14
   8  -3 -17   85.84   24.71
   8  -3 -16   52.64   15.53
   8   3 -16   44.93   18.49
   8  -3 -15  119.89   26.12
   8   3 -15  177.49   34.21
   8  -3 -14   -7.85   10.32
   8   3 -14    9.14   10.87
   8  -3 -13   57.02   18.14
   8   3 -13   50.76   17.54
  -8  -3  12    9.87    3.01
   8  -3 -12   11.31    7.34
   8   3 -12   20.94   11.30
   8  -3 -11  341.36   21.06
   8  -3 -11  367.26   42.86
   8   3 -11  368.24   41.64
  -8  -3  11  320.64   20.77
   8  -3 -10   13.42    4.64
   8  -3 -10   18.25    9.47
   8   3 -10   18.05   10.16
  -8  -3  10   12.86    4.39
   8  -3  -9   72.92   12.03
   8  -3  -9   67.69   16.76
   8   3  -9   79.03   18.03
  -8  -3   9   67.30   11.82
  -8  -3   8   -1.11    2.44
   8  -3  -8    0.61    2.30
   8   3  -8    4.29    6.31
   8  -3  -8    0.78    2.14
   8  -3  -7  134.49   18.77
   8  -3  -7  132.06   20.83
   8   3  -7  140.53   21.51
   8  -3  -6   24.91    8.43
   8   3  -6   33.70   10.31
   8  -3  -6   26.22    8.66
   8  -3  -5  270.76   28.76
   8  -3  -5  273.18   26.85
   8  -3  -5  263.75   34.73
   8   3  -4   25.04    9.42
   8  -3  -4   21.53    6.88
   8  -3  -4    2.14    9.31
   8  -3  -4   27.62   10.01
   8   3  -3  220.21   28.12
   8  -3  -3  210.29   28.01
   8  -3  -3  209.98   20.03
   8   3  -3  206.50   27.12
   8  -3  -3  213.16   28.97
   8   3  -2   80.89   17.35
   8  -3  -2   85.98   11.11
   8  -3  -2   77.85   17.36
   8   3  -2   76.46   14.08
   8  -3  -2   87.92   18.53
   8   3  -1   21.56    9.91
   8  -3  -1   10.97    3.21
   8  -3  -1    8.73    5.93
   8   3  -1   22.76    8.51
   8   3   0    6.05    5.95
  -8   3   0   -6.81   11.41
  -8  -3   0   -8.83   12.38
   8  -3   0    3.37    1.41
   8  -3   0    4.85    4.43
   8   3   1   11.96    8.40
  -8   3  -1   -6.29    8.33
  -8  -3  -1    2.04    5.24
   8  -3   1    5.05    4.88
   8   3   2   13.37    9.27
  -8   3  -2    1.80    5.34
  -8  -3  -2   10.23    8.51
   8  -3   2    6.19    2.09
   8   3   3   -2.19    3.84
  -8  -3  -3   12.10   11.68
  -8   3  -3    8.12   10.64
   8  -3   3   -4.64    6.46
  -8   3  -4   22.48   14.67
  -8  -3  -4   22.11   16.33
   8  -3   4   -0.45    4.20
   8   3   5   12.01    7.88
  -8  -3  -5   46.21   20.63
  -8   3  -5   39.54   18.05
   8  -3   5    9.07    5.61
   8   3   6  144.23   29.60
   8  -3   6  129.23   27.83
  -8  -3  -6  167.39   34.24
  -8   3  -6  166.13   31.94
   8   3   7   18.92   12.87
   8  -3   7   16.39   10.88
   8   3   8    0.54    7.30
   8  -3   8   -2.38    8.46
   8   3   9  163.13   33.72
   8  -3   9  153.70   32.28
   8   3  10    6.70    7.94
   8  -3  10    3.82    5.10
   8  -3  11   77.48   24.30
   8  -3  12    7.71    3.70
   8  -3  13    2.26    2.34
   8  -3  14    5.52    4.17
   8  -3  15   -0.62    6.55
   8  -3  16    6.05    7.53
   8  -4 -21  -11.15    9.79
   8   4 -21   22.00   17.08
   8  -4 -20  -15.18   13.06
   8   4 -20   27.34   19.26
   8  -4 -19   -1.80    5.36
   8   4 -19   40.56   21.87
   8  -4 -18  -15.23   15.82
   8   4 -18   19.17   15.57
   8  -4 -17   35.52   14.47
   8   4 -17   64.85   23.80
   8   4 -16  147.25   32.14
   8  -4 -16  103.58   23.73
   8  -4 -15  221.48   39.87
   8   4 -15  245.03   39.89
   8  -4 -14   86.00   23.65
   8   4 -14   88.63   24.03
   8  -4 -13  481.70   53.27
   8   4 -13  472.05   50.94
   8  -4 -12   60.93    7.75
   8  -4 -12   69.74   18.98
   8   4 -12   87.43   22.35
   8  -4 -11  216.77   17.83
   8  -4 -11  241.91   34.88
   8   4 -11  244.95   34.09
  -8  -4  11  207.62   17.85
   8  -4 -10   49.28    9.66
   8  -4 -10   49.78   15.05
   8   4 -10   57.48   16.81
  -8  -4  10   45.59    9.19
  -8  -4   9    3.23    3.03
   8  -4  -9    3.37    3.89
   8   4  -9   13.84   10.35
   8  -4  -9    2.46    2.76
  -8  -4   8    0.11    0.70
   8  -4  -8   -0.34    5.46
   8  -4  -8    1.03    1.01
   8  -4  -7   -0.56    1.83
   8  -4  -7   -1.67    5.93
   8  -4  -6   70.26   14.95
   8  -4  -6   74.56   14.83
   8  -4  -5   22.45    8.31
  -8  -4   5   22.23    7.20
   8  -4  -4   21.63    8.49
  -8  -4   4   21.13    6.75
   8  -4  -4    9.18    7.32
   8  -4  -3    8.54    6.60
  -8  -4   3    5.94    2.77
   8   4  -3   -7.62    8.89
   8  -4  -3   -0.24    5.13
   8  -4  -2   39.72   12.57
   8  -4  -2   30.40   11.25
   8   4  -2   18.69    1.47
   8   4  -1   24.18   10.81
   8  -4  -1   18.29    8.91
   8   4  -1   20.42    7.38
   8   4   0   90.99   20.02
  -8  -4   0   57.75   13.55
   8  -4   0   79.33   18.60
   8   4   0  113.33   19.94
   8   4   1  454.60   36.38
   8   4   1  406.80   43.19
  -8   4  -1  399.67   41.42
  -8  -4  -1  391.61   44.61
   8  -4   1  434.48   44.72
   8   4   2  101.73   22.68
  -8   4  -2   93.86   20.43
  -8  -4  -2   94.96   22.04
   8  -4   2   98.53   21.42
   8  -4   2   88.49    8.38
   8   4   3   15.60    9.63
  -8   4  -3   13.24    8.55
  -8  -4  -3   18.77   11.00
   8  -4   3   10.29    2.94
   8  -4   3   13.74    8.81
   8   4   4   60.61   17.85
  -8   4  -4   70.63   19.78
  -8  -4  -4   82.27   22.74
   8  -4   4   60.18   18.14
   8  -4   4   52.46    7.25
   8   4   5  132.71   28.34
  -8  -4  -5  137.24   30.29
  -8   4  -5  161.98   29.87
   8  -4   5  115.44   25.56
   8   4   6   16.03   10.73
   8  -4   6    5.86    7.18
   8   4   7   28.25   13.92
   8  -4   7   27.22   13.74
   8   4   8   17.40   11.85
   8  -4   8   11.49    8.77
   8  -4   9   97.80   25.90
   8  -4  10   35.00   16.11
   8  -4  11    9.10    5.72
   8  -4  12   21.49   12.74
   8  -4  13   -7.92    8.61
   8  -4  14    8.15    6.84
   8  -4  15    1.05    7.41
   8  -4  16   11.14   13.43
   8  -5 -21   -4.49   11.47
   8  -5 -20   -7.88   12.14
   8  -5 -19    3.49   10.86
   8   5 -19   20.99   15.84
   8  -5 -18   28.26   11.30
   8   5 -18   78.37   26.43
   8  -5 -17   -8.73   13.53
   8   5 -17   27.35   17.41
   8  -5 -16    1.81    4.80
   8   5 -16   12.11   12.83
   8  -5 -15   22.12   12.28
   8   5 -15   31.58   17.38
   8  -5 -14    2.92    7.05
   8   5 -14   14.33   13.69
   8  -5 -13   -0.24    6.52
   8   5 -13   17.26   13.56
   8  -5 -12   16.61    4.44
   8  -5 -12   24.78   11.99
   8   5 -12   41.92   18.49
  -8  -5  11    2.11    2.56
   8  -5 -11   -6.54    9.28
   8  -5 -11   -0.63    1.07
   8  -5 -10   -0.02    2.41
   8  -5 -10   -5.45    8.95
  -8  -5  10    1.31    2.57
  -8  -5   9   42.37    9.97
   8  -5  -9   41.67   13.05
   8  -5  -9   45.72   10.34
   8  -5  -8   95.59   19.47
   8  -5  -8  108.11   16.71
   8  -5  -7   23.42    8.23
   8  -5  -6   21.65    8.06
  -8  -5   5   68.82   13.57
   8  -5  -5   69.94   15.04
  -8  -5   4   69.55   12.53
   8  -5  -4   65.72   15.79
   8  -5  -3    5.11    5.03
  -8  -5   3    1.90    1.01
   8  -5  -3    1.80    5.40
   8  -5  -2    7.88    6.39
  -8  -5   2    9.75    3.83
   8   5  -2    3.07    3.62
   8  -5  -1    2.16    4.31
   8   5  -1    1.46    3.85
  -8  -5   0   54.28   14.47
   8  -5   0   58.98   16.33
   8   5   0   80.31   15.56
  -8  -5  -1   -0.18    5.09
   8  -5   1   -0.48    3.47
  -8   5  -1   -9.80   11.45
  -8   5  -2  390.36   40.34
  -8  -5  -2  346.51   44.29
   8  -5   2  357.52   43.14
   8  -5   3   -2.71    2.24
  -8   5  -3    7.72    7.89
  -8  -5  -3    9.30   11.76
   8  -5   3    1.85    2.61
  -8   5  -4  120.55   24.54
  -8  -5  -4  141.99   29.81
   8  -5   4  101.76   23.97
  -8   5  -5   56.05   21.22
  -8  -5  -5   68.07   24.04
   8  -5   5   46.31   16.79
  -8   5  -6   19.92   17.04
   8  -5   6    2.28    1.73
   8  -5   7    2.40    3.87
   8  -5   8   19.80   11.11
   8  -5   9  144.86   32.97
   8  -5  10    3.65    3.87
   8  -5  11   -3.14    9.70
   8  -5  12   -5.06   10.36
   8  -5  13   20.30   13.74
   8  -5  14    3.53    2.99
   8  -5  15    2.55    1.30
   8  -5  16    4.90    8.79
   8  -6 -21  -11.28   13.78
   8  -6 -20   24.47   11.35
   8  -6 -19  -16.78   18.21
   8  -6 -18  -13.45   14.50
   8  -6 -17   73.47   25.30
   8  -6 -16   36.08   16.19
   8  -6 -15    4.50    4.95
   8  -6 -14   18.97    9.89
   8  -6 -13   16.84    6.14
   8  -6 -12   18.07    5.37
   8  -6 -12   17.01    5.93
   8  -6 -11   17.95    5.95
   8  -6 -11   14.94    4.04
  -8  -6  11   17.25    5.40
   8  -6 -10   47.78   13.49
   8  -6 -10   60.79   11.56
  -8  -6  10   54.27   11.13
   8  -6  -9   15.06    5.75
   8  -6  -9   15.73    7.39
  -8  -6   9   17.98    6.91
   8  -6  -8  353.88   43.34
   8  -6  -8  345.34   30.92
   8  -6  -7   88.25   19.01
   8  -6  -7  109.71   18.30
   8  -6  -6  299.34   31.14
   8  -6  -5    2.34    4.53
   8  -6  -4   12.53    7.00
  -8  -6   4   11.51    4.87
  -8  -6   3   74.77   12.07
   8  -6  -3   89.97   20.45
   8  -6  -3   72.96   17.02
  -8  -6   2   60.23    9.67
   8   6  -2   54.55   13.00
   8  -6  -2   67.69   16.52
   8  -6  -2   89.61   21.37
  -8  -6   1   64.29    9.17
   8  -6  -1   77.29   18.40
   8   6  -1   58.74   11.00
   8  -6   0   15.34    8.45
  -8  -6   0   12.43    2.99
   8   6   0   25.74    9.31
  -8   6  -1  111.77   20.54
  -8  -6  -1  121.70   24.80
  -8  -6  -1  111.06    8.35
   8  -6   1  139.68   26.59
   8   6   1  179.42   22.20
   8  -6   2   28.35   12.49
  -8   6  -2   17.99    3.64
  -8  -6  -2   21.89    7.97
   8  -6   3    9.49    6.87
  -8  -6  -3   12.19   10.11
   8  -6   3   17.16    6.71
  -8   6  -3   10.86    6.44
   8  -6   4    8.37    4.97
  -8   6  -4   20.30   12.17
   8  -6   5   13.13    8.58
  -8   6  -5   38.66   16.76
  -8  -6  -5   55.89   20.03
  -8  -6  -6   37.08   20.86
  -8   6  -6   26.35   15.22
   8  -6   6   -3.37    5.61
  -8  -6  -7   46.45   23.52
   8  -6   7   10.18    7.06
   8  -6   8   25.78   13.27
   8  -6   9    0.16    4.36
   8  -6  10    0.00    1.98
   8  -6  11   19.76   11.19
   8  -6  12   33.58   15.04
   8  -6  13    7.59    8.62
   8  -6  14   41.69   19.60
   8  -6  15   10.20   10.07
   8  -6  16    7.62    9.50
   8  -7 -21   -2.91   10.31
   8  -7 -20   12.85    7.23
   8  -7 -19   24.51   13.88
   8  -7 -18   47.89   20.80
   8  -7 -17   10.02   10.65
   8  -7 -16   24.71   14.31
  -8   7  15   -3.10    8.63
   8  -7 -15   -4.56    6.04
  -8   7  14   10.15    7.22
   8  -7 -14   18.45    8.98
   8  -7 -13   17.05    8.25
   8  -7 -12  144.05   28.34
   8  -7 -12  148.73   16.32
   8  -7 -11   27.61   10.88
  -8  -7  11   24.74    7.13
   8  -7 -11   26.54    7.61
  -8  -7  10    2.62    1.09
   8  -7 -10    1.49    0.88
   8  -7  -9   25.23    8.43
   8  -7  -9   -6.91   13.44
   8  -7  -8   23.95    7.84
   8  -7  -8   -3.40   10.19
   8  -7  -7    4.78    1.62
   8  -7  -7   -4.81   10.03
   8  -7  -6   -4.70    5.07
   8  -7  -5   56.93   14.72
   8  -7  -4   74.67   16.69
  -8  -7   4   64.30   12.72
  -8  -7   3   15.33    4.71
   8  -7  -3   19.98    9.85
  -8  -7   2   63.36   10.68
   8   7  -2   52.42   11.45
   8  -7  -2   71.22   17.58
  -8  -7   1   66.29   10.26
   8   7  -1   48.34    9.14
   8  -7  -1   62.01   16.68
  -8  -7   0  101.82   11.77
  -8  -7   0   79.85   18.72
   8   7   0  108.72   16.95
   8  -7   0  100.37   22.13
  -8   7  -1   -7.84   12.33
   8  -7   1    2.78    2.23
  -8  -7  -1   -9.02   11.41
  -8  -7  -1    9.63    4.14
   8  -7   2   38.44   14.04
  -8  -7  -2   44.43   15.43
  -8   7  -2   38.45   11.23
   8  -7   3   10.94    7.94
  -8   7  -3   16.83    8.28
  -8  -7  -3   25.35   14.86
  -8   7  -4  155.51   26.92
  -8  -7  -4  158.63   31.36
   8  -7   4  133.23   27.61
  -8  -7  -4  110.83   10.19
   8  -7   5    4.69    4.25
  -8  -7  -5   33.63   19.54
  -8   7  -5   17.36   13.25
   8  -7   6   20.40   11.19
  -8  -7  -6   44.42   22.45
  -8   7  -6   36.43   16.94
  -8  -7  -7  125.64   32.27
   8  -7   7   96.69   24.87
   8  -7   8   30.89   14.46
   8  -7   9   26.45   13.39
   8  -7  10   40.28   17.39
   8  -7  11   29.95   15.64
   8  -7  12   -2.71    1.08
   8  -7  13    5.63    8.23
   8  -7  14    3.92    6.65
   8  -7  15    6.52    6.24
   8  -7  16   38.51   18.64
   8  -8 -21  -27.93   20.04
   8  -8 -20   41.90   21.62
  -8   8  19   44.02   18.41
   8  -8 -19   65.82   26.83
  -8   8  18   14.22   10.27
   8  -8 -18   29.05   15.90
  -8   8  17    0.16    3.11
   8  -8 -17    4.42    7.79
  -8   8  16    3.57    4.73
   8  -8 -16   19.43   14.69
  -8   8  15   86.58   24.58
   8  -8 -15   87.38   25.82
  -8   8  14   -5.20    9.85
   8  -8 -14   -3.06    8.27
  -8   8  13   22.52   10.18
   8  -8 -13   28.26   13.01
  -8   8  12    2.75    3.34
   8  -8 -12   -1.39    8.28
   8  -8 -12    2.12    2.22
  -8   8  11   58.93   19.26
   8  -8 -11   57.37   11.62
   8  -8 -10   43.63   10.42
   8  -8 -10   35.20   10.36
   8  -8  -9    5.70    1.19
   8  -8  -9   -6.42   12.23
   8  -8  -8   96.66   17.27
   8  -8  -8  103.53   23.00
   8  -8  -7  138.32   21.49
   8  -8  -7  121.99   21.28
   8  -8  -6   82.62   16.67
   8  -8  -6   93.49   19.97
   8  -8  -5   16.26    6.83
   8  -8  -5   22.97    8.96
   8  -8  -4   -1.82    3.31
   8  -8  -4   11.88    8.12
   8  -8  -3  189.35   28.48
  -8  -8   3  204.79   22.74
   8  -8  -3  232.48   32.90
  -8  -8   2    1.86    3.25
   8   8  -2   -4.79    9.24
   8  -8  -2   -4.01    6.89
   8  -8  -1  128.26   25.04
  -8  -8   1  127.46   16.16
   8   8  -1   94.89   14.70
  -8  -8   0   83.37   14.84
  -8  -8   0  117.93   14.33
   8   8   0  108.71   15.95
   8  -8   0  103.59   23.09
  -8  -8  -1   38.17    9.18
   8  -8   1   46.80   15.98
   8  -8   2   -2.22    4.68
  -8   8  -2   -9.05   11.60
  -8  -8  -2   -7.33   10.03
  -8   8  -3   33.17   10.51
  -8  -8  -3   30.46   16.26
   8  -8   3   28.04   12.94
  -8   8  -4   95.19   21.25
  -8  -8  -4   87.72   25.18
   8  -8   4   70.77   20.88
   8  -8   5    8.77    6.27
  -8   8  -5   20.72   13.76
   8  -8   6    2.96    2.55
  -8   8  -6   27.96   16.72
  -8  -8  -6   47.75   22.22
   8  -8   7   32.27   14.54
  -8  -8  -7   90.03   27.62
  -8   8  -7   76.63   23.12
   8  -8   8    3.81    3.45
   8  -8   9    3.13    4.79
   8  -8  10   -0.44    4.28
   8  -8  11   14.74   12.49
   8  -8  12   27.89   14.82
   8  -8  13    2.56    4.41
   8  -8  14   14.61   10.82
   8  -8  15    5.34    7.48
   8  -9 -21   19.59   12.43
  -8   9  20    6.80   10.04
   8  -9 -20    2.38   10.25
  -8   9  19    9.13    3.72
   8  -9 -19   12.77   12.66
  -8   9  18    3.76    7.01
   8  -9 -18   -4.06    2.11
  -8   9  17   23.03   13.22
   8  -9 -17   34.71   17.02
  -8   9  16   -3.85    6.53
   8  -9 -16    2.62    2.45
  -8   9  15   93.10   26.10
   8  -9 -15   84.86   24.54
  -8   9  14    1.55    4.68
   8  -9 -14   -1.60    7.71
  -8   9  13   54.60   18.72
   8  -9 -13   54.91   16.72
  -8   9  12   20.40   13.21
   8  -9 -12   18.94    6.22
  -8   9  11  354.14   48.10
   8  -9 -11  334.58   29.84
   8  -9 -11  310.17   44.91
  -8   9  10   71.63   21.24
   8  -9 -10   78.02   14.83
   8  -9 -10   60.89   14.91
  -8   9   9    2.24    5.94
   8  -9  -9    1.85    2.15
   8  -9  -9   -0.68    8.92
   8  -9  -8    2.83    1.55
   8  -9  -8  -12.34   12.75
   8  -9  -7   22.39    9.11
   8  -9  -6    9.24    6.57
   8  -9  -6   -4.93    9.29
   8  -9  -5    9.04    5.66
   8  -9  -5   14.47    9.24
   8  -9  -4   42.74   16.39
   8  -9  -4   16.54    8.09
   8  -9  -3  118.20   22.52
   8  -9  -3  162.04   29.08
   8  -9  -2   13.59    7.29
  -8  -9   2   22.59    9.38
   8  -9  -1  262.49   35.68
   8   9  -1  233.34   25.07
   8  -9   0   -4.18    6.82
  -8  -9   0  -10.83   16.12
   8   9   0    8.26    4.60
  -8  -9  -1  -20.53   16.11
   8  -9   1   -4.07    4.23
  -8   9  -2   -2.36    7.34
  -8  -9  -2    9.12    7.06
   8  -9   2    7.64    2.66
  -8   9  -3   40.90   11.52
  -8  -9  -3   51.95   18.24
   8  -9   3   34.25   14.03
  -8   9  -4   35.07   13.10
  -8  -9  -4   34.63   17.27
   8  -9   4   19.12   10.85
   8  -9   5    3.36    2.32
  -8   9  -5   15.78   11.46
  -8  -9  -5   22.17   16.10
   8  -9   6   55.20   18.61
  -8   9  -6   77.07   20.40
  -8  -9  -6   78.06   25.20
  -8  -9  -7   93.53   29.24
  -8   9  -7   89.03   24.79
   8  -9   7   68.21   21.68
   8  -9   8   20.16   12.82
  -8  -9  -8   61.41   25.47
   8  -9   9   13.55    9.69
   8  -9  10    2.23    3.77
   8  -9  11  113.13   31.35
   8  -9  12    2.59    6.29
   8  -9  13   -1.63    0.67
   8  -9  14    0.12    6.42
   8  -9  15    6.40    5.32
  -8  10  20   13.66   10.39
   8 -10 -20   18.96   14.29
  -8  10  19    3.02    0.84
   8 -10 -19    8.50    9.47
  -8  10  18   11.35    7.80
   8 -10 -18    2.71    5.46
  -8  10  17    9.42    8.12
   8 -10 -17   18.39   13.09
  -8  10  16    1.76    5.24
   8 -10 -16    1.01    3.83
  -8  10  15  119.96   31.30
   8 -10 -15  107.06   26.40
  -8  10  14   20.60   12.96
   8 -10 -14   22.79    9.27
  -8  10  13  115.87   29.37
  -8  10  12    1.69    7.83
   8 -10 -12    4.05    3.28
   8 -10 -12  -12.30   17.39
  -8  10  11   27.21   12.81
   8 -10 -11   38.38   10.71
   8 -10 -11   16.50    3.39
  -8  10  10   19.38    9.32
   8 -10 -10   11.64    5.35
   8 -10 -10   23.72    8.81
  -8  10   9   -0.67    8.09
   8 -10  -9    7.50    4.33
  -8  10   8  133.92   29.03
   8 -10  -8  142.76   22.72
   8 -10  -8   77.07   17.02
   8 -10  -7   -0.11    3.56
   8 -10  -7   -7.80    8.05
   8 -10  -6   67.07   15.86
   8 -10  -6   72.60   17.92
   8 -10  -5  101.30   20.56
   8 -10  -5  114.99   23.98
   8 -10  -4    6.73    4.86
   8 -10  -4   50.54   18.25
   8 -10  -3   64.57   17.07
   8 -10  -3  156.31   28.48
   8 -10  -2   70.45   18.44
   8 -10  -1  220.59   33.43
   8  10  -1  228.56   25.08
   8 -10   0   -0.28    5.78
  -8 -10   0  -11.44   15.34
   8  10   0   -2.74    3.65
  -8 -10  -1    1.19   10.77
   8 -10   1   17.53    8.92
  -8 -10  -2   53.86   16.69
   8 -10   2   55.62   17.63
  -8  10  -2   32.90    8.35
  -8 -10  -3   20.52    9.35
   8 -10   3   19.50    9.37
  -8  10  -3   21.57    3.90
  -8  10  -4    5.76    5.42
   8 -10   4    0.67    2.42
  -8  10  -5   30.35   13.46
   8 -10   5   21.08   10.75
  -8 -10  -5   34.19   17.34
   8 -10   6    8.87    7.14
  -8  10  -6   30.31   14.74
  -8 -10  -6   38.67   20.21
   8 -10   7    5.17    6.46
  -8 -10  -7   49.02   22.93
  -8  10  -7   33.03   16.04
   8 -10   8   11.41    8.76
  -8 -10  -8   44.05   23.78
   8 -10   9   43.01   18.58
   8 -10  10   21.08   13.21
   8 -10  11    4.38    7.90
   8 -10  12   -0.51    1.86
   8 -10  13   -0.82    1.12
   8 -10  14   -3.68    6.79
   8 -10  15    4.64    7.33
  -8  11  21    5.67    4.51
  -8  11  20   -5.09    9.50
   8 -11 -20    1.99    1.78
  -8  11  19    3.07    6.62
   8 -11 -19   12.86   10.70
  -8  11  18   -4.76    6.40
   8 -11 -18    4.61    4.89
  -8  11  17    7.93    5.34
   8 -11 -17    5.60    2.62
  -8  11  16    7.36    5.91
   8 -11 -16    7.22    2.91
  -8  11  15   28.97   15.14
   8 -11 -15   19.70    9.47
  -8  11  14   -5.06    8.46
   8 -11 -14   -7.92   14.46
  -8  11  13    0.40    4.42
   8 -11 -13  -18.65   17.30
  -8  11  12  140.64   32.58
   8 -11 -12  141.89   20.49
   8 -11 -12  143.98   30.71
  -8  11  11    2.69    3.37
   8 -11 -11    9.13    5.93
   8 -11 -11   -6.55   13.70
  -8  11  10    7.45    5.14
   8 -11 -10   12.13    6.74
   8 -11 -10   -2.43   15.62
  -8  11   9  129.26   29.86
   8 -11  -9  142.55   22.84
   8 -11  -9  102.61   20.73
  -8  11   8   35.41   14.47
   8 -11  -8   43.39   12.84
   8 -11  -8   20.91    2.86
  -8  11   7   -6.11    8.39
   8 -11  -7    3.65    5.05
   8 -11  -7  -10.94   10.71
   8 -11  -6   13.18    7.84
   8 -11  -6   33.21   14.62
   8 -11  -5   83.65   18.61
   8 -11  -5  120.94   25.20
   8 -11  -4   79.48   18.89
   8 -11  -4  169.07   29.03
   8 -11  -3  264.05   36.12
   8 -11  -3  133.18   25.43
   8 -11  -2   37.79   13.24
   8 -11  -1  248.11   36.13
   8  11  -1  242.68   25.34
   8 -11   0   41.82   14.57
  -8 -11   0   16.63   13.87
   8  11   0   44.41    8.34
   8 -11   1    2.20    3.50
  -8 -11  -1  -24.69   17.51
  -8 -11  -2   38.56   14.37
   8 -11   2   45.93   16.09
  -8  11  -3   -3.97    9.48
  -8 -11  -3    3.54    4.82
   8 -11   3   -7.78    8.72
  -8  11  -4   20.37    8.46
  -8 -11  -4   25.99   15.45
   8 -11   4   13.77   10.57
  -8 -11  -5   13.47   11.71
  -8  11  -5   17.72    9.61
   8 -11   5    6.87    7.03
  -8  11  -6  222.70   32.02
  -8 -11  -6  226.13   40.60
   8 -11   6  195.97   36.78
   8 -11   7   10.94    9.69
  -8 -11  -7   40.53   19.79
  -8  11  -7   19.57   14.97
   8 -11   8    7.07    9.55
  -8 -11  -8   21.42   17.61
  -8  11  -8   32.32   15.56
   8 -11   9    3.42    4.22
  -8 -11  -9   53.07   25.00
   8 -11  10    2.87    7.72
   8 -11  11   35.88   18.37
   8 -11  12    7.34   10.98
   8 -11  13    8.05    9.32
   8 -11  14    3.64    6.05
   8 -11  15    7.94   10.84
  -8  12  21   11.02    9.39
  -8  12  20   27.53   14.70
   8 -12 -20   29.20   16.86
  -8  12  19    0.92    7.93
   8 -12 -19   16.74   13.68
  -8  12  18   90.00   28.94
   8 -12 -18   78.57   27.41
  -8  12  17   -2.37    8.90
   8 -12 -17   -4.65   10.94
  -8  12  16    5.30    6.38
   8 -12 -16   -2.38    6.53
  -8  12  15    6.14    6.37
   8 -12 -15    1.12    4.70
   8 -12 -15  -11.35   14.26
  -8  12  14    9.69    8.68
   8 -12 -14    3.51    7.96
  -8  12  13   13.50    8.87
   8 -12 -13   11.01    4.58
  -8  12  12   33.72   16.15
   8 -12 -12   15.46    7.25
   8 -12 -12   34.78   10.58
  -8  12  11   -1.40    6.82
   8 -12 -11    5.10    5.31
   8 -12 -11    1.95   12.51
  -8  12  10   48.45   18.50
   8 -12 -10    9.78   10.48
   8 -12 -10   55.70   14.36
  -8  12   9  110.18   26.85
   8 -12  -9   82.54   17.61
   8 -12  -9  107.28   20.54
  -8  12   8  407.82   53.79
   8 -12  -8  398.07   46.04
   8 -12  -8  418.71   41.33
  -8  12   7   42.67   16.04
   8 -12  -7   49.87   15.33
   8 -12  -7   40.43   13.89
  -8  12   6  117.19   27.21
   8 -12  -6  171.69   30.29
   8 -12  -6  123.18   23.16
   8 -12  -5    9.25    7.52
   8 -12  -5   46.64   19.00
   8 -12  -4   46.22   14.88
   8 -12  -4  171.45   30.19
   8 -12  -3   17.38    9.23
   8 -12  -2    8.71    6.95
   8 -12  -1    7.33    7.01
   8  12  -1   -4.95    7.62
   8 -12   0   95.39   22.54
   8  12   0   86.35   11.65
  -8 -12   0   66.00   15.71
   8 -12   1    2.44    1.92
  -8 -12  -1   -8.65   15.16
   8 -12   2   28.41   12.66
  -8 -12  -2   12.87    6.23
  -8  12  -3   15.79    4.38
  -8 -12  -3   29.28   13.69
   8 -12   3   20.10    9.47
  -8  12  -4    2.19    2.10
  -8 -12  -4   11.26   12.30
   8 -12   4    0.48    7.52
  -8  12  -5  116.11   21.64
  -8 -12  -5  134.69   31.49
   8 -12   5   99.09   26.18
  -8  12  -6    6.66    7.77
  -8 -12  -6   20.68   16.41
   8 -12   6    4.80    8.65
  -8  12  -7   25.31   13.11
   8 -12   7    8.52    9.55
  -8 -12  -7   38.56   20.85
  -8  12  -8   78.90   21.36
  -8 -12  -8   76.23   27.50
   8 -12   8   62.24   22.39
   8 -12   9    9.46    9.78
  -8 -12  -9   60.32   27.09
   8 -12  10    8.27    9.23
  -8 -12 -10   59.88   27.77
   8 -12  11   46.82   20.50
   8 -12  12   61.83   23.90
   8 -12  13   13.64   11.19
   8 -12  14   80.49   28.28
  -8  13  21   -7.07   13.12
  -8  13  20    9.11    9.51
  -8  13  19    1.61    3.77
   8 -13 -19    5.82   11.15
  -8  13  18   30.98   15.95
   8 -13 -18   25.72   15.20
  -8  13  17    7.86    7.30
   8 -13 -17    4.58    2.65
   8 -13 -17   -2.74   10.66
  -8  13  16   -0.35    6.04
   8 -13 -16   -3.91    9.57
   8 -13 -16  -15.06   17.09
  -8  13  15   -6.06   10.08
   8 -13 -15   -9.18   13.39
  -8  13  14  130.23   32.41
   8 -13 -14  105.31   27.78
  -8  13  13   -1.03    7.53
   8 -13 -13    0.36    8.51
  -8  13  12   93.86   27.61
   8 -13 -12   85.18   17.29
   8 -13 -12   91.74   20.97
  -8  13  11   33.09   15.97
   8 -13 -11   39.40   11.96
   8 -13 -11    9.37    8.62
  -8  13  10  130.42   30.68
   8 -13 -10  134.14   23.02
   8 -13 -10  116.69   25.12
  -8  13   9    3.19    6.49
   8 -13  -9    9.36    7.81
  -8  13   8  206.96   38.34
   8 -13  -8  217.84   30.60
   8 -13  -8  198.93   32.46
   8 -13  -7   96.21   20.97
  -8  13   7   83.94   23.23
   8 -13  -7   88.29   22.07
  -8  13   6    3.46    6.59
   8 -13  -6   16.04    9.19
  -8  13   5   56.99   18.99
   8 -13  -5   78.26   19.27
   8 -13  -4  141.89   30.18
   8 -13  -4    9.98    7.04
   8 -13  -3   14.59    7.57
   8 -13  -2    2.56    3.79
   8 -13  -1    7.51    4.81
   8  13  -1    2.78    5.88
   8 -13   0   18.50    9.62
   8  13   0   21.25    4.90
  -8 -13  -1   15.52    6.61
   8 -13   1   37.89   14.37
  -8 -13  -2  107.20   25.79
   8 -13   2  117.67   27.42
   8 -13   3   30.89   13.76
  -8 -13  -3   24.86   10.85
   8 -13   4  286.97   44.18
  -8  13  -4  285.21   32.50
  -8 -13  -4  275.78   42.89
  -8  13  -5    9.52    6.42
   8 -13   5    3.13    5.15
  -8 -13  -5   23.56   15.62
  -8  13  -6   34.80   13.62
  -8 -13  -6   29.75   16.91
   8 -13   6   25.18   15.47
  -8  13  -7   16.10   11.42
  -8 -13  -7   12.80   14.16
   8 -13   8   18.39   14.42
  -8 -13  -8   49.24   24.24
   8 -13   9   12.18    9.51
  -8 -13  -9   39.02   22.83
   8 -13  10   50.37   20.92
  -8 -13 -10   90.82   30.83
   8 -13  11    7.31    7.91
   8 -13  12   -5.22    3.23
   8 -13  13    7.77   10.53
   8 -13  14    7.20   10.31
  -8  14  21    1.46    6.13
  -8  14  20   10.82    7.99
   8 -14 -20   -0.94   11.54
  -8  14  19   -5.36    8.19
   8 -14 -19   -3.00    9.16
   8 -14 -19   -7.08   12.97
  -8  14  18   -1.25    2.58
   8 -14 -18   -0.92    1.38
   8 -14 -18  -11.04   18.27
  -8  14  17   -5.21    2.98
   8 -14 -17  -10.42   12.55
   8 -14 -17   -8.04   12.65
  -8  14  16   -2.54    5.44
   8 -14 -16    1.27    7.84
   8 -14 -16   -6.89   13.78
  -8  14  15   20.37   11.37
   8 -14 -15   12.29    1.64
  -8  14  14   39.59   17.11
   8 -14 -14   38.36   15.90
  -8  14  13   97.50   27.88
   8 -14 -13   96.08   24.28
  -8  14  12   -2.47    6.58
   8 -14 -12   -0.17    0.99
   8 -14 -11    7.12    6.35
  -8  14  11   -1.06    7.87
   8 -14 -11   -8.08   12.45
  -8  14  10    3.09    4.63
   8 -14 -10   -2.84    8.62
   8 -14 -10   13.99    8.97
  -8  14   9   21.42   12.79
   8 -14  -9   19.36    9.81
   8 -14  -9    1.07    7.89
  -8  14   8  144.78   32.31
   8 -14  -8  142.39   26.06
   8 -14  -8  148.20   28.08
  -8  14   7   -0.87    4.32
   8 -14  -7    5.87    7.66
  -8  14   6  487.03   59.49
   8 -14  -6  479.55   49.12
   8 -14  -6  515.33   51.68
   8 -14  -5  121.99   25.12
  -8  14   5  125.54   29.12
   8 -14  -5  194.56   33.27
  -8  14   4   -2.38    5.52
   8 -14  -4    2.93    6.10
   8 -14  -3  150.18   28.55
   8 -14  -2   21.05    9.65
   8 -14  -1   52.29   16.34
   8  14  -1   43.54    8.46
   8 -14   0    8.34    5.86
   8  14   0   -2.37    4.61
   8 -14   1   35.34   15.00
  -8 -14  -1   20.55    7.37
  -8 -14  -2    1.42   11.21
   8 -14   2   21.19   11.75
   8 -14   3    1.31    1.28
  -8 -14  -3   -2.29   11.06
   8 -14   4   59.31   20.14
  -8  14  -4   50.13   12.42
  -8 -14  -4   71.08   20.82
  -8 -14  -5   54.45   19.57
   8 -14   5   48.99   19.58
  -8 -14  -6   56.78   22.72
   8 -14   6   39.93   18.33
  -8 -14  -7   45.37   20.61
   8 -14   7   29.09   15.93
   8 -14   8   26.60   15.63
  -8 -14  -8   62.91   26.10
  -8 -14  -9   31.35   19.79
   8 -14   9    1.26    5.58
   8 -14  10    2.81    6.13
  -8 -14 -10   31.09   21.94
   8 -14  11   16.77   12.70
  -8 -14 -11   32.15   21.53
   8 -14  12   11.26   11.92
  -8 -14 -12   55.57   27.54
   8 -14  13   11.47   10.42
  -8  15  21   -2.77    1.66
   8 -15 -21  -14.30   16.22
  -8  15  20   -3.17    2.92
   8 -15 -20   -8.49   16.10
  -8  15  19   24.52   16.48
   8 -15 -19   22.36   14.48
   8 -15 -19    2.59    3.20
  -8  15  18   -1.86    6.07
   8 -15 -18    5.27    7.00
   8 -15 -18  -11.80   13.71
  -8  15  17   -6.68   11.03
   8 -15 -17   15.97    8.75
   8 -15 -17   -5.72   10.13
  -8  15  16    0.50    0.41
   8 -15 -16    3.55    5.74
  -8  15  15    6.00    8.41
   8 -15 -15    0.62    8.04
  -8  15  14   -3.71    6.68
   8 -15 -14  -21.50   16.79
  -8  15  13   22.49   12.81
   8 -15 -13    6.57    9.28
  -8  15  12   17.67   12.72
   8 -15 -12   21.26   10.04
  -8  15  11   11.04    8.74
   8 -15 -11   15.47    7.93
   8 -15 -11    0.26    8.31
  -8  15  10   95.94   28.13
   8 -15 -10   92.37   20.76
   8 -15 -10   87.87   22.13
  -8  15   9    9.99    5.79
   8 -15  -9   14.21    6.69
   8 -15  -9   15.82   11.40
  -8  15   8    4.28    2.14
   8 -15  -8    8.37    7.18
   8 -15  -8   15.88   11.04
  -8  15   7   70.32   22.94
   8 -15  -7   86.09   20.81
   8 -15  -7  121.46   27.22
  -8  15   6  145.16   32.70
   8 -15  -6  154.82   28.58
   8 -15  -6  231.86   35.88
  -8  15   5   41.34   16.53
   8 -15  -5   54.18   17.35
  -8  15   4   -5.95    8.21
   8 -15  -4   -1.46    2.32
   8 -15  -3  108.38   24.89
   8 -15  -2    4.33    6.32
   8 -15  -1   -1.07    3.46
   8  15  -1   -3.80    6.79
   8 -15   0    0.61    3.76
  -8 -15  -1  -29.51   18.71
   8 -15   1   -4.03    7.93
  -8 -15  -2   19.70    6.74
   8 -15   2   35.11   15.79
   8 -15   3   15.24   10.92
  -8 -15  -3   16.08    8.92
   8 -15   4   26.64   13.57
  -8 -15  -4   15.77   10.68
   8 -15   5   -2.59    6.74
  -8 -15  -5    3.51    5.77
  -8 -15  -6   20.75   15.68
   8 -15   6   -2.58    4.99
  -8 -15  -7   48.40   22.35
   8 -15   7   28.07   15.85
  -8 -15  -8   41.51   21.98
   8 -15   8    1.00    6.50
  -8 -15  -9  208.29   44.18
   8 -15   9  168.29   38.28
   8 -15  10   30.63   16.92
  -8 -15 -10   39.90   22.84
   8 -15  11   41.20   20.02
  -8 -15 -11   57.93   29.51
   8 -15  12   -1.21    3.82
  -8 -15 -12   42.42   25.12
   8 -15  13   13.47   12.23
  -8  16  20    2.14    1.77
   8 -16 -20   -3.90   10.77
  -8  16  19    1.12    3.99
   8 -16 -19   -0.20    7.90
  -8  16  18   -0.04    3.20
   8 -16 -18    8.08    6.11
  -8  16  17    3.44    6.76
   8 -16 -17   13.00   13.16
   8 -16 -17    6.27    6.09
  -8  16  16   15.27   11.10
   8 -16 -16   -1.88   13.58
  -8  16  15   39.73   20.86
   8 -16 -15   22.80    5.08
  -8  16  14   61.67   23.32
   8 -16 -14   60.09   17.50
  -8  16  13   23.01   15.47
   8 -16 -13    2.91    8.98
  -8  16  12    6.10    7.31
   8 -16 -12   -4.69    8.01
  -8  16  11   12.48   12.66
   8 -16 -11    5.77    6.12
  -8  16  10   42.19   19.04
   8 -16 -10   48.83   16.91
  -8  16   9   13.73    7.35
   8 -16  -9   13.82    8.56
   8 -16  -9   21.65   13.32
  -8  16   8    0.49    5.64
   8 -16  -8    4.27    5.60
  -8  16   7    3.93    2.44
   8 -16  -7    4.71    5.68
   8 -16  -6    0.79    6.79
  -8  16   6   -4.58    6.31
  -8  16   5   -0.82    3.84
   8 -16  -5   -0.06    5.92
  -8  16   4   21.68   11.27
   8 -16  -4   39.58   15.74
  -8  16   3   54.87   19.11
   8 -16  -3   68.10   20.66
   8 -16  -2   43.75   17.31
   8 -16  -1   90.97   24.14
   8 -16   0   10.38    7.24
  -8 -16  -1  143.22   29.00
   8 -16   1  152.76   32.09
  -8 -16  -2   -9.96   13.68
   8 -16   2   -2.01    1.80
  -8 -16  -3   -6.52   10.48
   8 -16   3    0.02    4.98
   8 -16   4    0.94    2.85
  -8 -16  -4  -11.48    9.85
   8 -16   5   19.17   12.71
  -8 -16  -5   16.63   12.07
  -8 -16  -6   14.96   14.75
   8 -16   6   17.05   10.76
  -8 -16  -7   19.79   14.27
   8 -16   7    3.69    3.54
  -8 -16  -8   48.09   21.91
   8 -16   8   37.42   17.99
  -8 -16  -9   20.93   17.07
   8 -16   9    7.34   11.19
   8 -16  10   18.66   12.88
  -8 -16 -10   35.55   24.19
   8 -16  11    1.32    5.42
  -8 -16 -11   23.63   21.80
   8 -16  12   42.01   22.43
  -8  17  20    9.29   12.39
  -8  17  19   14.13   11.41
   8 -17 -19   -2.98   14.66
  -8  17  18   25.03   16.74
   8 -17 -18   18.25   10.36
   8 -17 -18   -3.69   13.90
  -8  17  17   29.33   18.52
   8 -17 -17    8.58    7.25
  -8  17  16    9.30   11.05
   8 -17 -16  -20.38   17.82
  -8  17  15   11.46    4.23
   8 -17 -15    1.32   10.31
  -8  17  14   21.85   11.75
   8 -17 -14   -0.40   10.13
  -8  17  13   56.57   22.23
   8 -17 -13   54.92   17.25
  -8  17  12   43.75   20.22
   8 -17 -12   37.92   13.24
  -8  17  11   11.45    7.98
   8 -17 -11    7.71    6.20
  -8  17  10   -4.20    8.41
   8 -17 -10   10.72   10.40
   8 -17  -9   16.42   12.77
  -8  17   9   14.28   10.89
  -8  17   8   31.15   15.92
   8 -17  -8   65.54   21.76
  -8  17   7    6.37    2.99
   8 -17  -7    6.46    6.98
  -8  17   6   33.23   16.00
   8 -17  -6   35.50   14.93
  -8  17   5   51.66   19.72
   8 -17  -5   56.97   19.21
  -8  17   4   25.66   13.05
   8 -17  -4   26.68   13.29
  -8  17   3   18.36    9.97
   8 -17  -3   44.58   16.77
   8 -17  -2   14.68   10.96
   8 -17  -1    3.26    6.42
   8 -17   0    8.03    8.61
   8 -17   1    0.99    1.82
  -8 -17  -2  -13.66   15.29
   8 -17   2   -1.05    0.84
  -8 -17  -3   22.64    6.37
   8 -17   3   36.96   15.99
  -8 -17  -4   -5.92    9.13
   8 -17   4    9.30    8.85
   8 -17   5   36.35   16.63
  -8 -17  -5   37.23   16.39
   8 -17   6   50.84   20.26
  -8 -17  -6   58.77   22.28
  -8 -17  -7   16.27   12.65
   8 -17   7   -3.71    8.39
  -8 -17  -8   14.57   14.51
   8 -17   8    1.64    6.26
  -8 -17  -9   73.78   27.31
   8 -17   9   52.08   22.67
   8 -17  10    6.41    9.31
  -8 -17 -10   24.04   20.11
   8 -17  11   36.21   19.51
  -8 -17 -11   57.57   29.61
   8 -17  12   21.24   15.58
  -8  18  19    7.21   12.41
  -8  18  18   11.66   12.41
   8 -18 -18  -34.51   17.39
  -8  18  17    8.72   13.23
  -8  18  16    4.05    4.45
   8 -18 -16  -13.47   15.78
  -8  18  15   -2.88    9.11
   8 -18 -15  -12.85   13.95
  -8  18  14   13.58    8.76
   8 -18 -14   25.47   13.17
  -8  18  13    6.28    8.16
   8 -18 -13   -0.63    3.82
  -8  18  12    1.31    5.30
   8 -18 -12   -3.06    6.16
  -8  18  11   19.33   14.24
   8 -18 -11   27.48   13.52
   8 -18 -10   17.84   12.61
  -8  18  10   -5.03    8.86
   8 -18  -9   53.36   19.40
  -8  18   9   42.68   18.56
  -8  18   8   76.49   26.26
   8 -18  -8  120.73   29.12
   8 -18  -7   78.19   24.77
  -8  18   7    2.76    4.57
  -8  18   6   35.64   15.77
   8 -18  -6   49.06   16.84
  -8  18   5  105.87   28.40
   8 -18  -5  109.31   26.20
  -8  18   4  162.33   34.91
   8 -18  -4  182.29   34.14
  -8  18   3    2.54    2.93
   8 -18  -3    6.02    9.24
  -8  18   2   65.91   21.70
   8 -18  -2   63.91   21.03
   8 -18  -1    2.25    7.02
   8 -18   0   28.46   14.80
   8 -18   1   14.92   11.16
  -8 -18  -2   53.15   16.45
   8 -18   2   74.66   23.53
  -8 -18  -3  -12.55   14.55
   8 -18   3   -3.78    5.00
   8 -18   4   49.79   20.47
  -8 -18  -4   44.93   17.54
   8 -18   5   -6.42    8.21
  -8 -18  -5   -6.51    8.88
   8 -18   6    4.84    5.42
  -8 -18  -6    8.36    7.48
  -8 -18  -7   15.76   14.41
   8 -18   7   -2.93    8.67
  -8 -18  -8   18.68   18.48
   8 -18   8   -2.77    7.77
  -8 -18  -9   31.54   18.87
   8 -18   9    1.29    3.98
  -8 -18 -10   34.24   23.97
   8 -18  10   27.13   16.76
   8 -18  11   28.11   16.29
  -8 -18 -11   45.96   28.24
  -8  19  18   25.48   16.85
  -8  19  17    1.90    4.40
   8 -19 -17  -12.03   13.05
  -8  19  16   18.84   14.99
   8 -19 -16    2.00    4.45
  -8  19  15    4.68    4.72
   8 -19 -15   -6.98   10.29
  -8  19  14   -1.86    2.84
   8 -19 -14    2.97    3.60
  -8  19  13   -1.32    2.96
   8 -19 -13    0.02    3.38
  -8  19  12   11.27   12.24
   8 -19 -12   11.68    9.92
   8 -19 -11   71.05   21.40
  -8  19  11   56.40   22.79
  -8  19  10   50.24   21.84
   8 -19 -10   74.63   22.37
   8 -19  -9   34.97   17.07
  -8  19   9   -2.85    7.24
   8 -19  -8   68.29   24.55
  -8  19   8   -8.88   10.21
  -8  19   7   -1.24    4.73
  -8  19   6   -8.50   10.11
   8 -19  -6    3.66    7.36
  -8  19   5    1.01    7.06
   8 -19  -5   16.50   13.01
  -8  19   4   18.40   10.69
   8 -19  -4   31.43   14.65
  -8  19   3   20.15   11.37
   8 -19  -3   27.10   13.51
  -8  19   2   -5.76    6.86
   8 -19  -2    4.46    5.04
   8 -19  -1    2.55    6.93
   8 -19   0   70.85   23.11
   8 -19   1   31.35   15.66
   8 -19   2   56.60   20.37
  -8 -19  -2   43.18   12.43
   8 -19   3    3.90    7.97
  -8 -19  -3  -13.76   15.84
  -8 -19  -4   41.96   16.01
   8 -19   4   56.92   21.58
  -8 -19  -5    8.50    4.95
   8 -19   5    9.03   11.11
   8 -19   6   16.42   12.13
  -8 -19  -6   13.64    7.10
   8 -19   7   -1.97    6.09
  -8 -19  -7    1.20    1.24
  -8 -19  -8   10.39   13.12
   8 -19   8    4.46    7.81
  -8 -19  -9   25.29   17.46
   8 -19   9    6.61    9.18
  -8 -19 -10   56.17   24.31
   8 -19  10   45.09   21.37
  -8  20  17   26.05   18.02
   8 -20 -17    4.07    6.43
  -8  20  16   10.02   10.06
   8 -20 -16   -4.50    1.25
  -8  20  15   71.15   28.63
   8 -20 -15   80.72   23.86
  -8  20  14    3.35    4.99
   8 -20 -14   14.55   11.94
  -8  20  13   25.69   15.08
   8 -20 -13   44.87   18.00
   8 -20 -12   33.23   15.76
  -8  20  12    6.58    6.89
  -8  20  11   63.21   25.53
   8 -20 -11   94.88   24.95
   8 -20 -10   43.38   19.10
  -8  20  10    9.87    7.68
   8 -20  -9   62.35   22.15
  -8  20   9    4.16    6.49
  -8  20   8   22.34   12.68
  -8  20   7    0.00    3.05
  -8  20   6   29.97   16.85
  -8  20   5   -2.53    7.66
   8 -20  -5    1.64    6.88
  -8  20   4    6.75    5.71
   8 -20  -4   -1.03    4.15
   8 -20  -3   11.85   10.93
  -8  20   3    1.40    4.47
  -8  20   2   68.66   23.22
   8 -20  -2   82.33   24.33
   8 -20  -1   44.49   18.96
   8 -20   0    9.11    7.61
   8 -20   1    1.71    5.55
   8 -20   2   64.02   22.93
  -8 -20  -3  -25.82   18.06
   8 -20   3   -0.23    3.26
  -8 -20  -4   -6.03   13.51
   8 -20   4   -2.77    7.16
  -8 -20  -5  -15.57   13.69
   8 -20   5    2.97    8.98
   8 -20   6   -2.51    6.69
  -8 -20  -6  -12.45   12.50
   8 -20   7   33.97   17.81
  -8 -20  -7   23.88   14.62
  -8 -20  -8   24.41   17.58
   8 -20   8   11.60    9.28
  -8 -20  -9   21.15   16.80
   8 -20   9    5.19    8.31
  -8 -20 -10   29.26   18.67
  -8  21  16   24.23   17.43
   8 -21 -16   28.71   16.03
  -8  21  15   15.18   14.14
   8 -21 -15   21.82   13.98
   8 -21 -14   63.70   21.71
  -8  21  14   58.48   25.66
   8 -21 -13   28.76   16.56
  -8  21  13    3.18    9.24
   8 -21 -12   39.65   18.17
  -8  21  12   10.23   11.23
   8 -21 -11   60.49   21.03
  -8  21  11   23.04   14.31
   8 -21 -10  113.27   28.16
  -8  21  10   58.81   24.27
  -8  21   9    5.61    8.06
  -8  21   8    7.20   11.40
  -8  21   7   41.63   19.66
  -8  21   6    7.70   10.72
  -8  21   5   -3.38    6.05
  -8  21   4    3.93    2.01
   8 -21  -4   21.25   13.54
  -8  21   3   85.25   26.44
   8 -21  -3   97.50   27.54
  -8  21   2    6.02    4.60
   8 -21  -2   15.89   12.49
  -8  21   1   -4.24    7.48
   8 -21  -1    3.14    3.96
   8 -21   0    6.66    8.80
   8 -21   1    1.91    4.59
   8 -21   2    5.04    8.34
   8 -21   3   18.14   13.84
  -8 -21  -3   -1.48   14.40
  -8 -21  -4    6.23    7.78
   8 -21   4   19.31   11.96
  -8 -21  -5  -10.56   16.10
   8 -21   5   -0.04    1.05
  -8 -21  -6  -15.62   11.91
   8 -21   6    7.50    7.94
   8 -21   7    1.52    3.56
  -8 -21  -7    6.46    6.06
   8 -21   8    9.04   11.14
  -8 -21  -8   13.80    9.65
  -8 -21  -9   89.16   30.33
   8 -22 -15   72.87   24.33
  -8  22  15   53.46   24.80
   8 -22 -14   57.24   20.88
  -8  22  14   28.45   20.38
  -8  22  13   95.48   34.37
   8 -22 -13  123.97   29.99
   8 -22 -12   52.60   22.00
  -8  22  12   10.25    7.55
   8 -22 -11   91.62   26.19
  -8  22  11   51.58   24.15
  -8  22  10   40.86   21.02
  -8  22   9    1.63    7.47
  -8  22   8   14.97   11.35
  -8  22   7   29.19   15.70
  -8  22   6   -5.36    9.73
  -8  22   5    0.01    3.41
  -8  22   4    4.53    5.17
   8 -22  -4    0.14    1.47
  -8  22   3   48.09   20.76
   8 -22  -3   50.44   19.70
  -8  22   2   -7.96    6.94
   8 -22  -2    4.22    8.68
  -8  22   1   52.77   20.68
   8 -22  -1   50.32   20.00
   8 -22   0    4.28    7.80
   8 -22   1   60.69   22.83
   8 -22   2   11.91   12.68
   8 -22   3   -2.39    4.96
  -8 -22  -4  -15.39   13.29
   8 -22   4   -4.90    9.06
  -8 -22  -5   17.86    7.66
   8 -22   5   34.14   19.71
  -8 -22  -6    2.56    8.26
   8 -22   6   12.01   14.12
   8 -22   7   32.59   17.72
  -8 -22  -7    8.55    5.98
   8 -22   8   -2.77    7.66
  -8 -22  -8    3.04    3.44
  -8 -22  -9   23.80   18.53
   8 -23 -14   51.33   22.60
  -8  23  14    0.93    2.02
  -8  23  13   23.78   17.48
   8 -23 -13   82.80   25.02
   8 -23 -12   52.43   21.79
  -8  23  12    3.15    5.86
  -8  23  11   51.42   24.12
  -8  23  10    3.86    6.89
  -8  23   9   52.20   22.68
  -8  23   8   -1.60    8.81
  -8  23   7    5.62    8.75
  -8  23   6    7.66    6.58
  -8  23   5   19.37   13.42
  -8  23   4    1.73    2.29
   8 -23  -4    8.75   11.70
   8 -23  -3   34.39   17.10
  -8  23   3   38.83   18.27
  -8  23   2    0.20    5.76
   8 -23  -2    7.65    7.69
  -8  23   1    6.61    6.18
   8 -23  -1    8.65    9.48
   8 -23   0   51.40   22.20
   8 -23   1   15.15   12.61
   8 -23   2   35.75   18.07
   8 -23   3   25.49   14.61
   8 -23   4    8.78    7.55
  -8 -23  -4  -37.77   18.38
  -8 -23  -5  -12.78   17.77
   8 -23   5    0.22    4.59
  -8 -23  -6  -15.18   14.57
   8 -23   6   -1.57    9.01
  -8 -23  -7   -0.23   10.48
  -8 -23  -8   -8.86   11.73
  -8  24  12    6.23   11.04
  -8  24  11    7.72    7.48
  -8  24  10   22.29   15.71
  -8  24   9    6.52    7.46
  -8  24   8   15.59   11.40
  -8  24   7   38.70   20.42
  -8  24   6   14.74   12.02
  -8  24   5   18.35   10.91
  -8  24   4   36.21   19.60
  -8  24   3    2.94    1.87
   8 -24  -3   -3.01    5.61
  -8  24   2   -1.95    6.62
   8 -24  -2    3.18    6.75
  -8  24   1   15.82   10.51
   8 -24  -1   18.88   14.67
   8 -24   0   32.07   19.64
   8 -24   1   44.98   20.20
   8 -24   2    1.03    5.20
   8 -24   3   -0.87    4.73
   8 -24   4   14.66   12.78
  -8 -24  -5  -21.14   17.99
   8 -24   5   17.02   11.37
  -8 -24  -6  -17.08   15.64
  -8 -24  -7    0.40   10.02
  -8 -24  -8  -15.90   12.83
  -8  25  11   -2.88    5.47
  -8  25  10   13.83   10.80
  -8  25   9    0.66    6.97
  -8  25   8   51.44   23.96
  -8  25   7    0.61    1.79
  -8  25   6    6.41    8.43
  -8  25   5   -1.21    6.25
  -8  25   4    0.72    6.69
  -8  25   3   -1.13    8.26
   8 -25  -3    8.95   12.10
  -8  25   2   -4.34    8.85
   8 -25  -2    6.38   10.45
  -8  25   1   -5.63   11.54
   8 -25  -1    7.55    9.49
   8 -25   0   31.61   18.09
   8 -25   1   23.06   15.96
   8 -25   2    5.80    6.78
   8 -25   3    8.69   10.95
   8 -25   4   27.82   17.23
  -8 -25  -5  -16.95   18.89
  -8 -25  -6  -19.29   18.98
  -8 -25  -7  -19.62   18.82
  -8  26  10   -1.16    2.84
  -8  26   9    7.32   12.56
  -8  26   8    9.97    9.54
  -8  26   7   -8.44   12.10
  -8  26   6   13.42   10.53
  -8  26   5   30.05   18.46
  -8  26   4    4.13    4.71
   8 -26  -3   11.64   10.09
  -8  26   3    6.04    2.92
  -8  26   2    8.17    9.81
   8 -26  -2   -6.88    8.54
  -8  26   1   27.40   16.09
   8 -26  -1   42.44   21.52
   8 -26   0   21.66   14.63
   8 -26   1    4.44    9.08
   8 -26   2   17.78   13.61
  -8 -26  -6  -10.49   18.18
  -8 -26  -7  -11.42   17.06
  -8  27   8   -0.77    5.67
  -8  27   7    3.90   10.22
  -8  27   6    4.48    6.02
  -8  27   5   -2.44    9.08
  -8  27   4   15.92   12.21
  -8  27   3   34.92   19.36
   8 -27  -3   37.08   19.00
  -8  27   2   -0.99    5.82
   8 -27  -2    5.00    9.89
  -8  27   1    0.59    5.41
   8 -27  -1    0.18    6.39
  -8  27   0   13.02    9.84
   8 -27   0   10.42   12.00
  -8  28   7   15.67   11.60
  -8  28   6    4.10    3.16
  -8  28   5    3.15    2.15
  -8  28   4    1.76    2.04
  -8  28   3    0.66    4.48
   8 -28  -3    9.27   11.49
  -8  28   2    3.77    4.46
   8 -28  -2   11.54   14.61
  -8  28   1   11.64   12.04
  -8  28   0   27.38   16.29
  -8  29   5    3.58    7.09
  -8  29   4  -10.53   14.74
  -8  29   3   12.32    9.02
  -8  29   2  -11.57   12.34
  -8  29   1   33.87   17.41
  -8  30   3   -5.19   10.89
  -8  30   2   23.74   17.00
   9   0 -21   19.82   14.12
   9   0 -20   -7.19    9.33
   9   0 -19    7.13    6.71
   9   0 -18    0.08    3.34
   9   0 -17    4.18    6.59
   9   0 -16    7.80    7.84
   9   0 -15    1.11    2.58
   9   0 -14   -5.19    6.47
   9   0 -13   44.30   14.99
   9   0 -12   -2.36    8.14
   9   0 -11    6.64    0.60
   9   0 -10  -15.80   10.52
  -9   0  10    1.21    2.72
  -9   0   9   -1.35    2.48
   9   0  -9   -6.48    7.63
   9   0  -8   -0.44    2.93
   9   0  -8   -3.71    4.80
   9   0  -7  174.70   22.97
   9   0  -7  177.65   23.49
   9   0  -6    0.00    0.56
   9   0  -6   -0.15    2.77
   9   0  -5  191.03   26.10
   9   0  -5  191.39   21.14
   9   0  -5  185.13   29.02
   9   0  -4    0.21    3.21
   9   0  -4    2.34    3.09
   9   0  -3   58.95   14.43
   9   0  -3   66.71    9.93
   9   0  -3   53.24   13.26
   9   0  -2   -2.45    3.78
   9   0  -2    5.97    5.26
   9   0  -1   48.88   14.75
   9   0  -1   83.38   20.04
   9   0   0   84.87   22.22
   9   0   0   -7.10    8.47
  -9   0  -1  -13.25   15.63
   9   0   1    6.46    3.22
   9   0   2   -9.34    8.90
  -9   0  -2  -13.13    9.89
  -9   0  -3    6.86    6.93
   9   0   3   -2.06    5.13
  -9   0  -4    5.49    9.05
   9   0   4   -4.48    9.15
   9   0   5   69.75   21.15
  -9   0  -5   96.75   24.61
   9   0   6    1.33    4.23
  -9   0  -6   27.44   18.19
   9   0   7   87.39   25.46
  -9   0  -7  136.23   32.07
   9   0   8    6.88    5.64
  -9   0  -8   51.97   23.30
   9   0   9  142.87   33.27
   9   0  10    1.83    7.87
   9   0  11   14.13   10.75
   9   0  12   -0.31    3.41
   9   0  13   33.08   18.13
   9   0  14    2.65    6.07
   9  -1 -21   -0.69    4.78
   9   1 -21   17.69   14.96
   9  -1 -20   -5.84    8.22
   9   1 -20   10.01    9.78
   9  -1 -19   15.25   13.06
   9   1 -19    0.21    3.96
   9  -1 -18    7.84    9.24
   9   1 -18    9.30   10.09
   9  -1 -17   54.45   20.00
   9   1 -17   64.12   21.56
   9  -1 -16   30.04   11.51
   9   1 -16   38.72   16.15
   9  -1 -15   16.44    9.40
   9   1 -15   16.75    7.19
   9  -1 -14   -6.36   10.28
   9   1 -14   -3.57    4.80
   9  -1 -13   -8.05   10.23
   9   1 -13    2.27    5.61
   9  -1 -12  -10.29   10.64
   9   1 -12   -3.40    5.59
   9  -1 -11   -5.20    9.15
   9   1 -11   -2.97    4.61
   9  -1 -10   94.18   19.24
   9   1 -10   93.03   18.74
  -9  -1  10   92.56   13.80
   9  -1  -9    1.39    3.52
   9  -1  -9   -3.75    8.64
  -9  -1   9    0.78    2.53
   9   1  -9    0.45    0.65
  -9   1   9    2.90    3.59
   9  -1  -8    3.38    3.48
   9  -1  -8   -2.68    7.35
   9   1  -8    2.84    2.91
   9   1  -7   29.50    9.71
   9  -1  -7   28.09    9.22
   9  -1  -7   23.85    5.10
   9   1  -7   30.51    8.72
   9   1  -6   11.76    7.06
   9  -1  -6    7.25    2.89
   9  -1  -6    0.03    4.98
   9   1  -6   10.83    6.09
   9  -1  -6   -4.70   11.04
   9   1  -5   16.54    8.02
   9  -1  -5   13.40    5.14
   9  -1  -5   13.54    4.26
   9   1  -5   19.54    7.75
   9   1  -5    2.41    9.05
   9  -1  -5    8.59    4.92
   9   1  -4   12.22    6.28
   9  -1  -4    9.93    6.40
   9   1  -4   20.35    8.00
   9  -1  -4   11.47    4.22
   9   1  -4   -3.01    6.45
   9  -1  -4    1.47   10.34
   9   1  -3  195.37   28.38
   9  -1  -3  190.98   27.88
   9  -1  -3  194.90   17.25
   9   1  -3  211.46   28.97
   9  -1  -3  217.40   30.35
   9   1  -2    5.81    5.29
   9  -1  -2    2.64    2.42
   9  -1  -2    9.13    3.60
   9   1  -2    3.82    5.05
   9  -1  -2   10.27    9.25
   9   1  -1  144.49   25.80
   9  -1  -1  150.92   26.37
   9   1  -1  202.86   28.37
   9  -1  -1  215.96   31.13
   9  -1   0   91.81   23.10
  -9  -1   0  -11.71   17.54
   9   1   0   -5.14    6.56
   9  -1   0    1.39    2.33
   9   1   0   67.73   19.85
  -9   1  -1   25.19    3.88
  -9  -1  -1   24.02    6.60
   9   1   1   30.67   12.53
   9  -1   1   28.47   10.95
  -9   1  -2    3.31    4.36
   9   1   2    0.74    4.79
  -9  -1  -2    2.74    5.39
   9  -1   2    2.99    2.11
  -9   1  -3   13.94    9.85
  -9  -1  -3   13.00    6.95
   9   1   3    6.87    6.38
   9  -1   3    4.05    1.25
   9   1   4   35.93   14.60
  -9   1  -4   53.22   18.17
  -9  -1  -4   63.24   20.74
   9  -1   4   40.67   14.28
   9   1   5   16.30    9.38
  -9   1  -5   28.78   15.10
  -9  -1  -5   34.02   16.74
   9  -1   5   13.29    6.36
   9   1   6  134.04   30.30
   9  -1   6  136.99   30.22
  -9   1  -6  181.47   34.12
  -9  -1  -6  176.21   34.42
   9   1   7   -3.83    6.04
  -9  -1  -7   37.94   19.07
  -9   1  -7   40.54   20.38
   9  -1   7    3.31    4.55
   9   1   8   24.66   13.14
  -9  -1  -8   83.56   26.84
   9  -1   8   25.65   12.72
  -9   1  -8   78.89   25.91
   9   1   9    2.63    1.18
   9  -1   9   -0.20    4.51
   9   1  10    7.74    7.73
   9  -1  10    6.40    6.91
   9   1  11   61.89   23.61
   9  -1  11   72.70   24.87
   9   1  12   11.62   13.95
   9  -1  12    8.83    9.67
   9   1  13   20.94   15.01
   9  -1  13   15.75   15.02
   9  -1  14    3.11    9.20
   9  -1  15    3.64   10.19
   9  -2 -21    4.46   10.49
   9   2 -21   35.24   20.93
   9  -2 -20   58.11   22.55
   9   2 -20   86.51   28.21
   9  -2 -19    7.96    8.73
   9   2 -19   14.79   12.37
   9  -2 -18    3.45    3.32
   9   2 -18   24.52   16.32
   9  -2 -17    5.83    7.80
   9   2 -17   12.44   13.45
   9  -2 -16  137.83   29.71
   9   2 -16  138.13   31.06
   9  -2 -15   15.20    2.85
   9   2 -15   31.74   13.60
   9  -2 -14   45.66   15.28
   9   2 -14   61.70   19.99
   9  -2 -13    2.74    9.51
   9   2 -13   18.96   12.16
   9  -2 -12   28.10    8.20
   9   2 -12   49.25   16.68
   9  -2 -11   -6.97   11.80
   9   2 -11    5.22    7.12
   9  -2 -10   18.59    6.48
  -9  -2  10   12.95    4.41
   9  -2 -10    9.87    5.22
   9   2 -10   15.57    7.65
   9  -2  -9   58.52   12.16
  -9  -2   9   54.10   11.56
   9   2  -9   72.78   17.67
   9  -2  -9   54.27   14.70
   9  -2  -8   68.73   13.87
   9  -2  -8   71.82   16.52
   9   2  -8   69.15   16.14
   9  -2  -7   21.62    7.53
   9  -2  -7   23.06    8.96
   9   2  -7   23.97   10.27
   9   2  -6   14.05    7.78
   9  -2  -6   10.12    6.22
   9  -2  -6   10.42    4.37
   9   2  -6   23.37    9.62
   9  -2  -6   -2.19   10.74
   9   2  -5    5.27    6.14
   9  -2  -5    3.01    4.17
   9  -2  -5    1.13    1.45
   9   2  -5   -7.44   12.44
   9   2  -4    0.91    2.89
   9  -2  -4    0.20    2.67
   9  -2  -4   -1.89    3.07
   9   2  -4   -5.84   11.21
   9  -2  -4   -7.29   11.69
   9   2  -3    2.02    4.61
   9  -2  -3   -6.30    5.88
   9  -2  -3    0.55    1.85
   9   2  -3  -10.76   11.04
   9  -2  -3    1.82    2.63
   9   2  -2    0.37    3.03
   9  -2  -2   -3.19    3.21
   9  -2  -2    1.26    1.84
   9   2  -2   -0.55    4.84
   9   2  -1    2.37    2.61
   9  -2  -1    4.19    1.82
   9  -2  -1    3.21    3.08
   9   2   0  304.78   38.79
   9  -2   0  326.06   39.99
  -9  -2   0  310.45   41.44
   9   2   0  394.93   37.68
  -9   2  -1   -9.82   14.73
   9   2   1    6.11    5.50
  -9  -2  -1   -4.11   13.24
   9  -2   1    4.88    4.63
   9   2   2  159.92   29.65
   9  -2   2  162.57   30.28
  -9   2  -2  158.34   27.91
  -9  -2  -2  168.91   30.50
   9   2   3    2.23    4.74
  -9   2  -3    0.93    5.55
  -9  -2  -3    5.85    2.41
   9  -2   3   -4.06    5.88
   9   2   4  172.20   31.86
   9  -2   4  159.41   30.65
  -9   2  -4  179.37   31.78
  -9  -2  -4  196.67   34.02
   9   2   5   38.13   15.58
  -9   2  -5   57.48   20.63
  -9  -2  -5   53.80   20.93
   9  -2   5   31.48   13.12
  -9   2  -6   24.69   14.22
   9   2   6   -0.22    3.07
  -9  -2  -6   26.36   16.45
   9  -2   6   -1.38    4.22
   9   2   7   68.94   21.86
   9  -2   7   61.06   20.45
  -9  -2  -7  103.88   28.50
  -9   2  -7  110.62   28.24
   9   2   8    2.80    4.42
   9  -2   8    0.90    3.84
   9   2   9   26.78   15.15
   9  -2   9   24.85   14.48
   9   2  10   54.94   20.85
   9  -2  10   52.88   20.99
   9   2  11   25.68   14.62
   9  -2  11   21.56   13.39
   9  -2  12   13.15   10.43
   9  -2  13    4.17    9.47
   9  -2  14   11.81   10.57
   9  -2  15    1.46    0.84
   9  -3 -21   -0.85    2.90
   9   3 -21   21.11   20.08
   9  -3 -20   37.41   18.98
   9   3 -20   65.42   25.15
   9  -3 -19    1.83    3.64
   9   3 -19   22.02   17.76
   9  -3 -18   12.03    7.07
   9   3 -18   32.65   17.71
   9  -3 -17   -4.70   12.64
   9   3 -17    5.71    8.04
   9  -3 -16   -7.39   12.94
   9   3 -16   31.88   17.04
   9  -3 -15  -15.19   16.41
   9   3 -15   15.07   12.76
   9  -3 -14   -9.77   11.75
   9   3 -14   14.25   13.46
   9  -3 -13   -2.31    3.76
   9   3 -13   21.07   13.50
   9  -3 -12   56.25   17.98
   9   3 -12   60.58   19.16
   9  -3 -11   76.66   12.05
   9  -3 -11   81.15   19.84
   9   3 -11   91.23   21.56
  -9  -3  10  286.87   25.61
   9  -3 -10  292.24   25.58
   9  -3 -10  299.47   37.06
   9   3 -10  312.02   37.28
   9  -3  -9    1.83    3.67
   9  -3  -9   -1.06    1.55
   9   3  -9    4.26    7.60
   9  -3  -8  367.29   32.36
   9  -3  -8  364.89   37.82
   9   3  -8  387.18   37.07
   9  -3  -7   82.89   16.07
   9  -3  -7   85.68   17.10
   9   3  -7   98.09   18.32
   9  -3  -7   55.78   13.75
   9  -3  -6  297.72   31.73
   9  -3  -6  294.22   30.37
   9  -3  -6  299.72   38.48
   9  -3  -5    3.02    3.47
   9  -3  -5    4.68    4.29
   9   3  -4    3.48    5.45
   9  -3  -4   -0.08    2.63
   9   3  -4   -3.16    8.77
   9  -3  -4    1.61    2.06
   9  -3  -4  -11.01   12.75
   9   3  -3    2.61    4.86
   9  -3  -3   -0.93    1.53
   9  -3  -3   -0.25    2.03
   9  -3  -3    2.25    6.18
   9   3  -2    9.32    7.55
   9  -3  -2    5.10    2.08
   9  -3  -2    5.98    4.15
   9   3  -2   -0.56    5.65
   9   3  -1   21.70   10.42
   9  -3  -1   18.76    4.39
   9  -3  -1   14.17    7.09
   9   3  -1   18.02   10.17
   9   3   0   74.68   19.38
  -9  -3   0   44.33   10.52
   9  -3   0   66.85   18.47
   9   3   1   10.30    8.17
  -9   3  -1   -6.70   13.31
  -9  -3  -1   -4.64    9.09
   9  -3   1    6.10    6.26
  -9  -3  -2    0.96    8.70
   9   3   2   13.04    9.13
  -9   3  -2    9.29    7.60
   9  -3   2   21.58   10.58
   9   3   3  109.97   26.13
  -9   3  -3  123.39   25.37
  -9  -3  -3  135.77   27.90
   9  -3   3  118.16   26.67
   9   3   4  145.33   29.06
   9  -3   4  129.19   28.13
  -9   3  -4  148.18   30.15
  -9  -3  -4  167.59   33.07
   9   3   5    1.14    5.81
  -9   3  -5    7.96    9.31
   9  -3   5    4.46    5.99
  -9  -3  -5   14.49   14.12
   9   3   6   38.82   15.77
  -9   3  -6   66.64   22.43
  -9  -3  -6   63.78   22.95
   9  -3   6   33.91   13.59
   9   3   7    6.58    8.84
  -9  -3  -7   33.71   21.15
  -9   3  -7   28.04   16.92
   9  -3   7   -6.37    9.27
   9   3   8   16.36   10.97
  -9  -3  -8   46.76   23.52
  -9   3  -8   43.95   20.60
   9  -3   8   12.41    9.22
   9   3   9    4.38    6.41
   9  -3   9   -3.34    8.37
   9   3  10   13.92   10.89
   9  -3  10    7.64    9.25
   9  -3  11   -3.45    6.28
   9  -3  12   27.65   15.17
   9  -3  13   64.18   24.49
   9  -3  14   12.84    9.73
   9  -3  15    3.00    5.39
   9  -4 -21    9.23    9.68
   9   4 -21   26.36   19.05
   9  -4 -20   96.16   30.21
   9   4 -20  156.47   38.21
   9  -4 -19  -14.42   13.36
   9   4 -19   22.18   17.03
   9  -4 -18   35.73   13.96
   9   4 -18   59.92   24.32
   9  -4 -17   -7.20   11.90
   9   4 -17   14.80   14.21
   9  -4 -16   24.74    4.66
   9   4 -16   60.02   21.90
   9  -4 -15   12.37    6.42
   9   4 -15   41.50   19.11
   9  -4 -14  137.76   29.33
   9   4 -14  142.26   30.30
   9  -4 -13   57.95   18.78
   9   4 -13   71.14   22.17
   9  -4 -12  142.71   14.96
   9  -4 -12  136.58   27.46
   9   4 -12  189.99   32.12
   9  -4 -11   40.28    8.56
   9  -4 -11   41.77   12.61
   9   4 -11   57.47   18.32
  -9  -4  10   14.41    5.87
   9  -4 -10   12.97    7.85
   9  -4 -10   17.61    6.87
   9   4 -10   20.58   11.32
   9  -4  -9  155.35   20.46
   9  -4  -9  160.69   26.33
   9   4  -9  167.70   26.96
   9  -4  -8    7.75    5.57
   9  -4  -8   -4.27   15.40
   9  -4  -8    9.97    4.76
   9  -4  -7   79.29   15.85
   9  -4  -7   78.63   17.09
   9  -4  -7   66.06   17.02
   9  -4  -6  118.57   20.21
   9  -4  -6  117.05   19.40
   9  -4  -6  101.43   20.17
   9  -4  -5   64.36   15.48
   9  -4  -5   68.75   13.67
   9  -4  -5   63.89   15.25
   9  -4  -4   31.86    8.39
   9   4  -4   22.57    6.79
   9  -4  -4   23.57    9.23
   9  -4  -4   31.00   11.29
   9  -4  -3  341.30   26.94
   9  -4  -3  350.44   38.57
   9   4  -3  358.97   37.45
   9  -4  -3  367.39   41.41
   9  -4  -2    3.49    1.15
   9  -4  -2    3.53    4.36
   9   4  -1   19.13   10.79
   9  -4  -1   16.06    8.76
   9   4  -1   21.50   10.16
   9   4   0  283.51   37.41
  -9  -4   0  253.55   37.06
   9  -4   0  274.65   37.41
   9   4   0  330.87   33.42
   9   4   1    9.35    8.41
  -9   4  -1  -12.88   15.96
  -9  -4  -1   -9.90   14.72
   9  -4   1   10.92    8.04
   9   4   2  363.70   44.64
  -9   4  -2  390.61   45.19
  -9  -4  -2  391.16   48.53
   9  -4   2  398.66   47.12
   9   4   3   20.99   12.13
  -9   4  -3   12.68    6.46
  -9  -4  -3    3.37    5.98
   9  -4   3   14.10   10.60
   9   4   4  105.17   25.54
  -9   4  -4  117.78   25.76
  -9  -4  -4  126.07   30.12
   9  -4   4   97.46   24.44
   9   4   5    5.47    8.45
  -9   4  -5   20.74   14.03
  -9  -4  -5   17.63   13.60
   9  -4   5    2.07    4.51
   9   4   6   20.85   11.80
  -9   4  -6   46.16   20.66
  -9  -4  -6   32.31   16.93
   9  -4   6   17.36   11.64
   9   4   7   41.52   17.85
  -9  -4  -7   72.84   25.75
  -9   4  -7   72.24   24.11
   9  -4   7   38.49   15.95
  -9  -4  -8   85.25   28.07
  -9   4  -8   48.58   22.11
   9  -4   8   24.58   14.09
  -9  -4  -9   50.81   24.82
   9  -4   9   18.43   12.95
   9  -4  10   19.57   11.62
   9  -4  11    0.76    6.79
   9  -4  12   -0.33    3.45
   9  -4  13   10.04   10.28
   9  -4  14   37.89   18.82
   9  -5 -21   -5.95   10.47
   9  -5 -20    5.88    3.17
   9  -5 -19   -4.12   11.94
   9  -5 -18   32.62   11.59
   9   5 -18   66.16   24.88
   9  -5 -17   53.50   16.30
   9   5 -17   89.76   28.59
   9  -5 -16    1.43    8.36
   9   5 -16   11.69   14.39
   9  -5 -15   85.00   25.18
   9   5 -15   92.08   26.73
   9  -5 -14    4.56    3.27
   9   5 -14   23.03   15.56
   9  -5 -13  180.57   33.54
   9   5 -13  200.82   34.71
   9  -5 -12   -0.21    2.25
   9  -5 -12    2.26    2.68
   9  -5 -11   28.25    7.91
   9  -5 -11   27.92   10.44
   9  -5 -10  120.51   17.54
   9  -5 -10  117.49   23.87
  -9  -5  10  119.10   17.74
   9  -5  -9   -4.88    7.52
   9  -5  -9    1.48    2.18
   9  -5  -8  273.36   34.07
   9  -5  -8  275.57   29.10
   9  -5  -8  252.72   37.07
   9  -5  -7   98.89   18.99
   9  -5  -7  105.79   18.67
   9  -5  -7  101.49   22.53
   9  -5  -6  154.18   22.54
   9  -5  -6  152.57   23.80
   9  -5  -6  131.47   22.51
  -9  -5   5  109.50   17.20
   9  -5  -5  123.10   22.01
   9  -5  -5  111.17   21.53
   9  -5  -4    2.58    3.95
  -9  -5   4    3.29    2.58
   9  -5  -4    7.91    7.10
   9  -5  -3   34.91   12.38
  -9  -5   3   35.64    8.30
   9  -5  -3   62.40   18.43
   9   5  -3   28.50    6.67
   9  -5  -2  179.73   29.15
   9   5  -2  157.29   23.04
   9  -5  -2  232.33   33.91
   9  -5  -1  241.75   34.65
   9  -5  -1  174.98   29.05
   9   5  -1  190.58   24.53
   9  -5   0    2.85    3.87
  -9  -5   0   -8.65   15.86
   9  -5   1    1.28    2.58
  -9   5  -1  -16.28   14.56
  -9  -5  -1  -12.62   13.85
  -9   5  -2   -5.89    8.84
  -9  -5  -2   -4.15    7.36
   9  -5   2   -0.26    1.89
  -9   5  -3   -1.69    5.63
  -9  -5  -3    3.88    7.54
   9  -5   3    2.98    6.51
  -9   5  -4   62.48   18.92
  -9  -5  -4   53.49   20.14
   9  -5   4   48.04   18.47
  -9   5  -5    8.86   11.57
  -9  -5  -5    7.46    9.30
   9  -5   5    3.42    5.44
  -9   5  -6   29.96   15.61
  -9  -5  -6   26.13   17.65
   9  -5   6   14.81    9.39
  -9  -5  -7   36.27   20.42
  -9   5  -7   27.87   18.49
   9  -5   7    1.60    3.75
  -9  -5  -8   27.33   18.21
  -9   5  -8   29.62   18.16
   9  -5   8    3.75    7.28
  -9  -5  -9   54.43   25.51
   9  -5   9    6.72    8.69
   9  -5  10   22.53   13.25
   9  -5  11    5.20    6.78
   9  -5  12    6.38    6.22
   9  -5  13   -2.77    7.74
   9  -5  14   -1.19    6.35
   9  -6 -21    3.39    3.46
   9  -6 -20  -14.50   15.63
   9  -6 -19   -2.67   10.71
   9  -6 -18    4.50   11.61
   9  -6 -17   44.77   17.93
   9  -6 -16   42.45   17.44
   9  -6 -15    5.93    3.86
   9  -6 -14   91.90   24.41
   9  -6 -13   61.13   20.72
   9  -6 -12   47.32    9.80
   9  -6 -12   49.88   16.12
   9  -6 -11   40.67    9.74
   9  -6 -11   48.12   16.82
   9  -6 -10   10.26    5.27
   9  -6 -10    2.58    3.50
   9  -6  -9    3.03    0.79
   9  -6  -9   -2.22    7.03
   9  -6  -9  -11.96   12.96
   9  -6  -8   85.17   18.39
   9  -6  -8   85.46   17.01
   9  -6  -8   81.05   20.33
   9  -6  -7   66.70   14.98
   9  -6  -7   63.57   16.56
   9  -6  -6   28.16   10.12
   9  -6  -6    7.99    8.39
   9  -6  -5  109.56   20.88
   9  -6  -5   99.38   20.90
   9  -6  -4   28.60   11.36
  -9  -6   4   23.23    7.57
   9  -6  -4   35.44   14.16
   9  -6  -3   20.92    9.63
  -9  -6   3   23.82    6.92
   9   6  -3    1.02    7.92
  -9  -6   2   64.34   10.08
   9  -6  -2   63.28   17.39
   9   6  -2   47.21    8.31
  -9  -6   1   98.68   10.37
   9  -6  -1  113.11   23.98
   9   6  -1  128.68   19.32
   9  -6   0    3.39    0.84
  -9  -6   0  -14.84   16.55
   9  -6   1    0.41    2.37
  -9  -6  -1  -19.16   16.86
   9  -6   2    4.10    5.85
  -9  -6  -2  -11.71   11.46
  -9   6  -2  -12.48   14.68
   9  -6   3   47.76   16.72
  -9   6  -3   44.12   12.69
  -9  -6  -3   30.82   14.33
  -9   6  -4   77.32   20.10
  -9  -6  -4   79.91   23.91
   9  -6   4   61.17   19.86
  -9   6  -5   88.34   22.66
  -9  -6  -5   83.47   26.03
   9  -6   5   70.80   21.77
  -9   6  -6    5.78   10.46
   9  -6   6   -3.74    5.97
  -9  -6  -7   99.21   29.96
  -9   6  -7   98.76   25.83
   9  -6   7   60.40   20.37
  -9  -6  -8   39.58   22.94
  -9   6  -8   39.01   19.74
   9  -6   8    7.01    7.45
  -9  -6  -9   88.61   29.92
   9  -6   9   55.20   19.95
   9  -6  10   25.16   15.41
   9  -6  11    3.46    1.38
   9  -6  12    2.56    7.99
   9  -6  13   -5.31    8.71
   9  -6  14   10.91   11.42
   9  -7 -21  -16.73   17.22
   9  -7 -20   -6.52   14.86
   9  -7 -19    5.85    3.57
   9  -7 -18    2.39    5.50
   9  -7 -17   -2.78    4.22
   9  -7 -16   32.86   14.77
   9  -7 -15   -2.80    8.27
   9  -7 -14   26.88   12.11
   9  -7 -13    6.80    2.98
   9  -7 -12    4.58    3.14
   9  -7 -12    1.33    5.16
   9  -7 -11    1.39    1.63
   9  -7 -11   -0.07    4.66
   9  -7 -10   39.20   13.74
   9  -7 -10   40.87   10.74
   9  -7 -10   31.85   10.47
   9  -7  -9   76.76   15.67
   9  -7  -9   69.19   18.74
   9  -7  -8    2.02    1.92
   9  -7  -8    0.42    5.61
   9  -7  -7    1.26    3.56
   9  -7  -6    2.07    5.23
   9  -7  -6  -21.22   10.71
   9  -7  -5   10.35    6.15
   9  -7  -5   10.13    5.63
   9  -7  -4    0.31    2.29
  -9  -7   4    0.21    2.38
   9  -7  -4    8.57    8.65
   9  -7  -3   21.06   10.04
  -9  -7   3   22.10    7.28
   9   7  -3   11.85    7.55
   9  -7  -2   -0.94    0.66
  -9  -7   2    0.12    1.45
   9  -7  -1    4.90    2.35
  -9  -7   1    5.57    3.30
   9   7  -1    5.74    2.87
   9  -7   0   17.08    8.80
  -9  -7   0    1.03   15.55
  -9  -7   0   18.29    4.39
   9  -7   1   34.29   13.64
  -9  -7  -1    5.54    9.15
   9  -7   2    4.41    4.39
  -9   7  -2  -14.14   13.96
  -9  -7  -2   -1.09   12.34
   9  -7   3    4.05    3.84
  -9   7  -3   -1.41    7.90
  -9  -7  -3    8.59    3.51
   9  -7   4   37.00   15.93
  -9   7  -4   38.50   14.41
  -9  -7  -4   28.58   14.07
  -9   7  -5   82.80   21.68
  -9  -7  -5   79.91   25.75
   9  -7   5   64.32   21.07
  -9   7  -6   23.55   14.18
  -9  -7  -6   20.82   15.25
   9  -7   6    4.57    6.70
  -9   7  -7   21.89   14.77
  -9  -7  -7   31.71   21.28
   9  -7   7    5.01    6.47
  -9  -7  -8   60.73   25.34
  -9   7  -8   56.83   22.13
   9  -7   8   28.24   14.81
  -9  -7  -9   61.83   26.96
  -9   7  -9   48.99   21.59
   9  -7   9   12.12   10.62
  -9  -7 -10   44.54   25.87
   9  -7  10    1.13    1.44
   9  -7  11    6.52    5.14
   9  -7  12  -11.28   10.00
   9  -7  13    1.43    4.58
   9  -7  14    7.71    9.80
   9  -8 -20    7.68    3.71
   9  -8 -19   17.79   11.17
   9  -8 -18   43.51   21.06
   9  -8 -17    3.56    8.33
   9  -8 -16   -1.67    2.81
   9  -8 -15    0.95    1.57
   9  -8 -14   -5.53    9.09
   9  -8 -13   -8.18   10.63
   9  -8 -12   -6.97   10.62
   9  -8 -12    1.46    1.14
   9  -8 -11   -0.42    2.26
   9  -8 -11    0.58    3.05
   9  -8 -10    0.20    1.84
   9  -8 -10   -1.97   10.24
   9  -8  -9   22.00    8.79
   9  -8  -9   12.75    6.23
   9  -8  -8   -0.25    1.93
   9  -8  -7   66.83   15.86
   9  -8  -7   83.11   18.26
   9  -8  -6   40.97   12.27
   9  -8  -6   45.23   13.77
   9  -8  -5   20.20    9.94
   9  -8  -5   19.88   11.88
   9  -8  -4   41.39   16.83
   9  -8  -4    3.80    5.61
   9  -8  -3    8.00    6.43
  -9  -8   3    5.64    3.27
   9   8  -3   -3.49    9.15
   9  -8  -2    5.49    3.83
   9   8  -2    8.12    5.48
  -9  -8   1   82.88   11.76
   9   8  -1   79.98   14.24
   9  -8  -1   79.77   20.29
  -9  -8   0  124.37   24.40
   9  -8   0  152.15   28.99
   9   8   0  177.02   22.03
   9  -8   1   14.70    9.23
  -9  -8  -1    6.37   10.80
  -9  -8  -2   -7.55   10.89
  -9   8  -2   -5.87   12.89
   9  -8   2   17.25    8.49
   9  -8   3    6.70    8.79
  -9   8  -3   -4.55    7.42
  -9  -8  -3   -2.42    0.74
   9  -8   4   -2.42    5.42
  -9   8  -4    2.55    3.48
   9  -8   5    0.20    1.21
  -9   8  -5    7.00    9.98
  -9  -8  -5   21.22   16.07
   9  -8   6   12.04    9.29
  -9   8  -6   23.83   12.90
  -9  -8  -6   39.61   21.24
  -9   8  -7   49.79   19.21
  -9  -8  -7   39.08   20.12
   9  -8   7   13.57    9.40
  -9  -8  -8   51.19   23.77
  -9   8  -8   42.29   19.16
   9  -8   8   29.65   16.13
  -9  -8  -9   33.42   20.72
  -9   8  -9   32.37   18.87
   9  -8   9    0.16    4.57
  -9  -8 -10   40.40   23.65
   9  -8  10   10.09    8.03
   9  -8  11    3.33    4.18
   9  -8  12   10.61   10.83
   9  -8  13   -4.47    8.95
   9  -8  14   -0.46    2.76
   9  -9 -20   50.21   23.39
   9  -9 -19    0.81    4.65
   9  -9 -18    8.29    8.75
   9  -9 -17   -1.36    4.25
   9  -9 -16  142.21   35.00
   9  -9 -15  124.66   30.76
   9  -9 -14   -1.45    8.47
   9  -9 -13   -2.82    5.84
   9  -9 -12    3.77    7.86
   9  -9 -12    9.19    3.86
   9  -9 -12   -9.32   13.32
   9  -9 -11    1.92    1.64
   9  -9 -11   -6.16   14.30
   9  -9 -10  122.06   20.19
   9  -9 -10  105.51   25.15
   9  -9  -9   -1.75    6.00
   9  -9  -9  -19.53   14.09
   9  -9  -8   43.61   12.12
   9  -9  -8   19.06    6.22
   9  -9  -7   -0.12    3.32
   9  -9  -7  -10.99   12.86
   9  -9  -6   -1.13    4.51
   9  -9  -6   -8.80    7.00
   9  -9  -5   -5.20    7.18
   9  -9  -5   25.92   13.10
   9  -9  -4    3.67    2.23
   9  -9  -4   59.65   20.35
  -9  -9   3   23.36    7.47
   9  -9  -3   20.92   10.43
  -9  -9   2   49.50   11.10
   9   9  -2   40.51   11.13
   9  -9  -2   46.58   16.00
   9   9  -1   90.00   15.22
   9  -9  -1   99.77   23.55
   9  -9   0    1.06    2.08
   9   9   0   14.55    8.03
  -9  -9  -1  -23.02   20.97
   9  -9   1   -0.31    3.45
  -9   9  -2  -11.03   12.82
  -9  -9  -2  -13.81   14.23
   9  -9   2    1.35    3.13
  -9   9  -3   73.57   16.50
  -9  -9  -3   73.85   22.04
   9  -9   3   77.17   22.31
  -9   9  -4   93.22   21.03
  -9  -9  -4  110.39   27.62
   9  -9   4   84.50   23.87
   9  -9   5    6.05    6.67
  -9   9  -5    7.49    6.64
  -9  -9  -5   21.70   15.34
   9  -9   6   12.87   10.67
  -9   9  -6    7.84    8.15
  -9  -9  -6   29.96   18.47
   9  -9   7    4.28    1.29
  -9   9  -7   21.37   13.88
  -9  -9  -7   21.98   16.20
  -9  -9  -8   24.60   18.41
  -9   9  -8   21.43   13.78
   9  -9   8    2.51    1.76
  -9  -9  -9   39.54   21.42
  -9   9  -9   36.62   19.01
   9  -9   9    2.23    3.66
  -9  -9 -10   37.20   23.45
   9  -9  10    4.37    3.72
  -9  -9 -11   51.66   25.66
   9  -9  11    0.53    4.00
   9  -9  12   57.22   23.80
   9  -9  13   10.13   12.36
   9 -10 -20   40.97   21.94
   9 -10 -19    3.15    4.70
   9 -10 -18   42.25   17.53
  -9  10  17  -11.94   10.93
   9 -10 -17    5.11    9.01
  -9  10  16   64.17   22.35
   9 -10 -16   70.16   24.60
  -9  10  15   36.12   17.65
   9 -10 -15   35.62   17.15
  -9  10  14   58.10   19.84
   9 -10 -14   67.29   22.15
   9 -10 -14   53.68   16.49
  -9  10  13   -5.88    7.64
   9 -10 -13   -3.29    7.93
   9 -10 -13   -4.76   13.37
   9 -10 -12  -13.01   14.71
   9 -10 -12   -1.85    4.02
   9 -10 -11    2.30    1.22
   9 -10 -11   -4.42   11.24
   9 -10 -10   49.00   12.79
   9 -10 -10   40.09    5.59
   9 -10  -9   33.55   10.63
   9 -10  -9    2.68   16.43
   9 -10  -8   -1.22    4.80
   9 -10  -8  -14.63   13.95
   9 -10  -7   33.82   10.79
   9 -10  -7   34.16   11.91
   9 -10  -6   13.79    5.10
   9 -10  -6   23.08   12.56
   9 -10  -5   32.54   15.23
   9 -10  -5   -3.17    7.03
   9 -10  -4   79.31   18.67
   9 -10  -4  141.98   28.87
   9 -10  -3  114.95   27.21
   9 -10  -3   19.79    8.56
   9  10  -2    9.91    2.14
   9 -10  -2   25.73   11.03
   9 -10  -1    1.58    5.64
   9  10  -1  -10.28    8.58
   9  10   0  330.62   28.58
   9 -10   0  318.56   43.90
  -9 -10  -1  -23.30   19.29
   9 -10   1    5.60    7.19
  -9 -10  -2  111.16   27.07
   9 -10   2  145.17   29.88
  -9  10  -3   -4.03    7.59
  -9 -10  -3    8.60    8.53
   9 -10   3    2.15    4.75
   9 -10   4   42.79   17.46
  -9 -10  -4   37.05   16.56
  -9  10  -4   38.88   12.24
   9 -10   5    7.18    7.21
  -9  10  -5    6.98    4.37
  -9 -10  -5   16.48   14.75
   9 -10   6    2.20    4.36
  -9  10  -6    8.89    6.82
  -9 -10  -6   17.87   17.22
   9 -10   7    6.98    9.09
  -9  10  -7   25.58   15.19
  -9 -10  -7   29.52   19.12
   9 -10   8   15.01    9.01
  -9  10  -8   36.59   17.58
  -9 -10  -8   58.34   25.47
  -9 -10  -9   17.04   18.22
  -9  10  -9   30.23   17.78
   9 -10   9   -0.80    4.30
  -9  10 -10   73.07   25.40
  -9 -10 -10   51.23   24.71
   9 -10  10   33.63   17.75
  -9 -10 -11   40.72   23.48
   9 -10  11   12.64   12.02
  -9 -10 -12  104.29   37.03
   9 -10  12   39.46   20.07
   9 -10  13    0.91    5.60
   9 -11 -20   -2.07    5.82
  -9  11  19   20.25   10.94
   9 -11 -19   24.19   18.59
  -9  11  18    5.78    7.23
   9 -11 -18   10.84   10.70
  -9  11  17   55.82   21.18
   9 -11 -17   51.32   20.68
  -9  11  16   13.00   10.23
   9 -11 -16   10.49    1.46
  -9  11  15  127.72   33.31
   9 -11 -15  129.86   31.46
   9 -11 -15  118.91   31.31
  -9  11  14   40.48   18.14
   9 -11 -14   35.64   15.14
   9 -11 -14   31.61    8.50
  -9  11  13   75.74   24.68
   9 -11 -13   69.79   21.59
  -9  11  12    1.25    4.08
   9 -11 -12    3.23    3.36
   9 -11 -12   -5.15    9.77
  -9  11  11   15.56    8.06
   9 -11 -11   22.62    8.98
   9 -11 -11   24.88    7.42
   9 -11 -10  123.02   25.98
   9 -11 -10  162.10   24.88
   9 -11  -9   27.27    9.68
   9 -11  -9    4.87   10.29
   9 -11  -8  182.04   27.45
   9 -11  -8  155.07   28.04
   9 -11  -7   -0.90    6.13
   9 -11  -7    7.96    7.69
   9 -11  -6   17.81    8.79
   9 -11  -6   30.30   14.55
   9 -11  -5   27.13   11.03
   9 -11  -5   96.45   24.46
   9 -11  -4   39.33   13.87
   9 -11  -4   88.09   24.54
   9 -11  -3  299.94   41.18
   9 -11  -3  117.70   24.49
   9 -11  -2   62.63   17.95
   9  11  -2   46.45   10.87
   9 -11  -1  196.71   33.53
   9  11  -1  167.71   20.13
   9 -11   0   56.34   18.41
   9  11   0   84.48   14.16
  -9 -11  -1    8.17    9.62
   9 -11   1   23.63   11.84
  -9 -11  -2   -7.61   10.99
   9 -11   2    2.92    5.05
  -9 -11  -3  -15.87   14.13
  -9  11  -3   -5.58   10.06
   9 -11   3    0.59    5.13
  -9  11  -4   85.00   18.89
  -9 -11  -4   92.06   25.87
   9 -11   4   92.18   26.11
  -9 -11  -5   45.60   19.91
   9 -11   5   19.68   11.60
  -9  11  -5   23.92   10.95
   9 -11   6    1.20    5.52
  -9  11  -6    9.02    8.87
  -9 -11  -6   25.02   18.44
  -9  11  -7  151.00   29.46
  -9 -11  -7  139.89   35.32
   9 -11   7  118.32   31.13
   9 -11   8    4.66    6.36
  -9  11  -8   17.94   13.17
  -9 -11  -8   16.15   16.57
   9 -11   9    6.73    8.18
  -9 -11  -9   21.18   19.59
  -9  11  -9   13.43   11.33
  -9 -11 -10   62.29   28.63
   9 -11  10   21.35   14.88
  -9 -11 -11   58.82   29.84
   9 -11  11   21.12   15.46
  -9 -11 -12   92.57   32.96
   9 -11  12   62.69   25.28
   9 -11  13    7.36   10.72
  -9  12  21    6.65    9.00
  -9  12  20   -3.18    9.64
  -9  12  19    6.44    4.37
   9 -12 -19    4.56   11.80
  -9  12  18   -3.27    8.10
   9 -12 -18   -6.76   10.38
  -9  12  17    0.01    1.31
   9 -12 -17   -3.84    7.44
   9 -12 -17  -19.79   18.42
  -9  12  16    3.28    7.89
   9 -12 -16    1.90    5.12
   9 -12 -16   -8.41   13.88
  -9  12  15   -0.04    6.79
   9 -12 -15   -2.59   10.76
   9 -12 -15   -4.92   11.75
  -9  12  14   11.48    8.65
   9 -12 -14   -7.33   12.99
  -9  12  13  127.26   32.14
   9 -12 -13  127.96   30.70
  -9  12  12   70.03   24.00
   9 -12 -12   69.65   15.77
   9 -12 -12   60.37   17.94
  -9  12  11    7.48    6.23
   9 -12 -11   13.65    7.60
   9 -12 -11   -5.87   14.38
  -9  12  10   -1.61    7.82
   9 -12 -10    5.48    4.76
  -9  12   9   -5.93   10.67
   9 -12  -9   -2.22    4.93
   9 -12  -8   -0.39    4.49
   9 -12  -8   -8.43    9.79
   9 -12  -7   48.71   14.96
   9 -12  -7   42.29   14.07
   9 -12  -6   42.57   17.78
   9 -12  -6   12.91    6.97
   9 -12  -5  116.96   24.29
   9 -12  -5  181.25   32.99
   9 -12  -4   -1.62    5.22
   9 -12  -4  115.41   28.64
   9 -12  -3   53.67   16.60
   9 -12  -2   -3.15    6.56
   9  12  -2   -8.24    9.49
   9 -12  -1   -0.02    3.97
   9  12  -1  -10.15    9.04
   9 -12   0    2.22    3.13
   9  12   0   19.98    8.08
  -9 -12  -1  -16.93   16.73
   9 -12   1   -0.39    4.58
  -9 -12  -2  -19.47   17.26
   9 -12   2    0.22    4.52
  -9 -12  -3  120.96   29.50
   9 -12   3  126.05   29.91
  -9  12  -4   -7.51    9.43
  -9 -12  -4   13.13    7.92
   9 -12   4    5.15    8.02
  -9  12  -5   35.45   12.25
  -9 -12  -5   37.27   16.94
   9 -12   5   42.59   18.31
   9 -12   6   23.26   13.61
  -9  12  -6   25.43   10.74
  -9 -12  -6   35.16   17.93
  -9  12  -7  102.43   23.93
  -9 -12  -7  119.55   32.45
   9 -12   7   85.87   26.96
   9 -12   8    2.64    2.49
  -9 -12  -8   16.36   18.70
  -9 -12  -9  144.81   38.57
   9 -12   9   95.14   29.24
   9 -12  10    3.16    8.12
  -9 -12 -10   30.46   20.07
  -9 -12 -11   66.72   29.31
   9 -12  11   23.84   14.73
   9 -12  12   10.94   10.86
  -9  13  21    1.66    3.62
  -9  13  20   18.02   11.42
   9 -13 -20   -3.21   14.87
  -9  13  19    2.99    4.70
   9 -13 -19    5.66    9.75
   9 -13 -19   -6.20   15.34
  -9  13  18    7.45    0.86
   9 -13 -18   16.42   12.43
   9 -13 -18   -1.20   13.09
  -9  13  17   22.48   14.50
   9 -13 -17   16.18   12.09
   9 -13 -17   16.84    5.03
  -9  13  16    4.24    3.24
   9 -13 -16   -7.28   10.35
   9 -13 -16   -9.26   14.01
  -9  13  15  106.78   30.82
   9 -13 -15  109.26   29.59
   9 -13 -15  103.44   29.30
  -9  13  14    5.20    5.87
   9 -13 -14   10.99    6.64
  -9  13  13   55.25   21.81
   9 -13 -13   53.63   16.82
  -9  13  12   41.30   18.47
   9 -13 -12   41.54   12.62
   9 -13 -12   19.62    4.32
   9 -13 -11    1.36    1.37
  -9  13  11   -2.13    9.73
   9 -13 -10    2.63    5.76
  -9  13  10   -8.14   11.64
   9 -13 -10   -7.09   11.43
  -9  13   9   42.67   17.10
   9 -13  -9   44.49   14.17
   9 -13  -9   38.06   14.47
  -9  13   8   27.90   13.58
   9 -13  -8   33.39   15.35
   9 -13  -8   21.63    9.92
   9 -13  -7   47.99   15.45
   9 -13  -7   62.28   19.15
   9 -13  -6   46.44   18.39
   9 -13  -6   13.86    7.73
   9 -13  -5  152.38   28.44
   9 -13  -5  205.73   36.31
   9 -13  -4  155.26   33.59
   9 -13  -4    8.78    7.36
   9 -13  -3  130.93   27.24
   9 -13  -2   -1.51    3.63
   9  13  -2   -4.73    8.81
   9 -13  -1  141.60   29.86
   9  13  -1  138.49   18.51
   9 -13   0   27.42   11.97
  -9 -13  -1  -14.94   19.21
   9 -13   1   15.72    8.67
  -9 -13  -2  -31.33   19.60
   9 -13   2   -1.84    6.37
  -9 -13  -3    1.66    6.26
   9 -13   3    9.87   10.15
  -9 -13  -4   -1.57    6.30
   9 -13   4    2.38    4.76
  -9  13  -4  -12.16   10.31
  -9 -13  -5   20.00   10.76
   9 -13   5   19.47   12.47
  -9 -13  -6   28.60   16.69
   9 -13   6   22.82   14.22
  -9 -13  -7   85.09   29.99
   9 -13   7   77.84   26.83
   9 -13   8    7.72    9.45
  -9 -13  -8   27.87   19.15
   9 -13   9    5.20    8.91
  -9 -13  -9   30.65   21.81
   9 -13  10    8.94   11.19
  -9 -13 -10   23.85   19.24
  -9 -13 -11   53.71   26.65
   9 -13  11   17.47   11.28
   9 -13  12    7.25    8.99
  -9  14  21    2.32    6.37
   9 -14 -21  -15.18   18.78
  -9  14  20   52.84   22.47
   9 -14 -20   33.05   14.51
  -9  14  19   17.46   12.92
   9 -14 -19    5.96    8.73
   9 -14 -19   -0.36   11.44
  -9  14  18    1.31    5.50
   9 -14 -18   -0.83   10.04
   9 -14 -18   -0.75   10.72
  -9  14  17    3.18    6.78
   9 -14 -17  -15.48   14.99
   9 -14 -17   -9.22   15.33
  -9  14  16   27.29   12.74
   9 -14 -16   24.84   14.63
   9 -14 -16   25.44   11.56
  -9  14  15   -1.68    8.57
   9 -14 -15   -1.70    4.57
  -9  14  14   -0.61    4.62
   9 -14 -14   -8.67   12.58
  -9  14  13   40.38   18.22
   9 -14 -13   15.42    2.15
  -9  14  12    3.64    8.48
   9 -14 -12    1.94    4.34
  -9  14  11   77.35   25.14
   9 -14 -11   78.32   18.56
   9 -14 -11   67.07   19.46
  -9  14  10   24.18   12.18
   9 -14 -10   36.51   12.96
   9 -14 -10   37.18   15.03
  -9  14   9    4.54    6.99
   9 -14  -9    1.56    3.58
   9 -14  -9   14.14   11.22
  -9  14   8   -6.22   10.33
   9 -14  -8   -5.49    6.90
   9 -14  -8   15.10   12.60
  -9  14   7   98.53   26.92
   9 -14  -7   91.02   21.53
   9 -14  -7  113.36   25.89
   9 -14  -6   31.23   12.86
   9 -14  -6   85.42   25.32
   9 -14  -5  136.41   30.58
   9 -14  -5   52.45   16.38
   9 -14  -4   52.60   17.33
   9 -14  -3   -1.56    5.98
   9 -14  -2   -1.94    4.37
   9  14  -2   -6.58    9.41
   9 -14  -1    6.77    5.92
   9 -14   0   12.80    7.30
   9 -14   1   41.82   16.42
  -9 -14  -1   26.08    3.82
  -9 -14  -2  -14.69   17.37
   9 -14   2    2.52    5.24
  -9 -14  -3   31.40   11.31
   9 -14   3   44.84   18.49
  -9 -14  -4    4.01    2.34
   9 -14   4    9.60    7.55
  -9 -14  -5    9.34    9.70
   9 -14   5    7.31    7.29
  -9 -14  -6   29.11   17.25
   9 -14   6   25.69   14.82
  -9 -14  -7  104.66   31.60
   9 -14   7  107.90   31.15
   9 -14   8    8.15    5.43
  -9 -14  -8   38.35   21.96
  -9 -14  -9  102.64   33.07
   9 -14   9   85.26   28.16
   9 -14  10   16.86   13.20
  -9 -14 -10   20.18   16.76
   9 -14  11    8.78    8.54
  -9 -14 -11   48.83   27.31
  -9  15  21   14.23   13.37
   9 -15 -21    3.58    8.91
  -9  15  20   -1.83    8.50
   9 -15 -20  -14.15   15.42
  -9  15  19   -2.98    8.10
   9 -15 -19   -6.17   11.41
  -9  15  18    4.72    5.10
   9 -15 -18  -12.88   14.37
   9 -15 -18   -0.25    7.97
  -9  15  17   22.32   14.66
   9 -15 -17   11.18    8.06
   9 -15 -17   22.57   13.31
  -9  15  16   28.39   15.94
   9 -15 -16   26.01   13.98
   9 -15 -16   32.46   10.26
  -9  15  15   57.15   23.59
   9 -15 -15   31.63   11.35
  -9  15  14    9.03   10.95
   9 -15 -14  -13.88   13.69
  -9  15  13    3.54    2.20
   9 -15 -13   -6.93   11.15
  -9  15  12   13.62    9.71
   9 -15 -12   11.87    7.33
   9 -15 -12    1.46    7.78
  -9  15  11   50.85   20.80
   9 -15 -11   50.74   15.62
   9 -15 -11   46.46   16.01
  -9  15  10   12.14   10.52
   9 -15 -10    7.96    6.05
   9 -15 -10    5.91    4.14
  -9  15   9    0.58    7.20
   9 -15  -9   11.23    8.25
   9 -15  -9   14.29   11.47
   9 -15  -8   55.41   20.71
  -9  15   8   48.73   18.71
   9 -15  -8   51.22   16.61
  -9  15   7   54.47   21.15
   9 -15  -7   56.51   17.50
   9 -15  -7  103.04   25.12
   9 -15  -6  259.51   38.16
   9 -15  -6  326.07   44.08
   9 -15  -5  108.64   28.65
   9 -15  -5    6.65    7.68
   9 -15  -4   94.61   23.67
   9 -15  -3   23.16   11.60
   9 -15  -2    0.71    5.98
   9 -15  -1   -1.63    4.67
   9 -15   0   -3.95    7.94
   9 -15   1   48.68   18.30
   9 -15   2    4.00    6.61
  -9 -15  -2   -9.07   15.36
  -9 -15  -3   23.36    5.95
   9 -15   3   40.45   17.54
  -9 -15  -4   -0.78    7.71
   9 -15   4    4.12    5.82
  -9 -15  -5   -1.21    5.00
   9 -15   5    3.23    4.63
  -9 -15  -6   29.64   18.54
   9 -15   6   30.11   15.69
  -9 -15  -7    4.96   11.98
   9 -15   7   11.35   11.52
   9 -15   8    0.17    2.51
  -9 -15  -8   29.69   18.66
   9 -15   9    3.40    2.38
  -9 -15  -9   17.10   15.95
   9 -15  10   20.56   13.25
  -9 -15 -10   44.44   26.20
   9 -15  11    5.80    3.53
  -9  16  20   71.58   28.06
   9 -16 -20   59.78   23.38
  -9  16  19   -4.28    9.48
   9 -16 -19   -9.37   11.87
  -9  16  18   29.55   18.51
   9 -16 -18   30.11   15.79
   9 -16 -18   27.07    4.00
  -9  16  17    2.38    6.96
   9 -16 -17   -0.67    6.66
  -9  16  16   -1.31    2.74
   9 -16 -16  -23.03   17.51
  -9  16  15    3.92    3.62
   9 -16 -15  -10.66   15.51
  -9  16  14    5.50    2.09
   9 -16 -14  -13.34   13.74
  -9  16  13    4.20    7.36
   9 -16 -13   -5.16    9.47
   9 -16 -12   46.40   14.65
  -9  16  12   50.90   21.33
   9 -16 -12   40.14   15.35
  -9  16  11   -3.48    7.38
   9 -16 -11    3.54    3.55
   9 -16 -11    3.66    5.67
  -9  16  10   33.24   16.49
   9 -16 -10   30.99   13.12
   9 -16 -10   32.44   15.13
  -9  16   9    2.54    3.83
   9 -16  -9    6.01    6.33
  -9  16   8   -2.89    8.19
   9 -16  -8    2.71    5.20
  -9  16   7   25.82   13.80
   9 -16  -7   25.87   11.95
   9 -16  -6  227.31   38.18
  -9  16   6  133.62   32.72
   9 -16  -6  130.19   28.02
   9 -16  -5   21.08   10.94
   9 -16  -4   80.35   22.47
   9 -16  -3   14.58   10.43
   9 -16  -2   -0.18    5.22
   9 -16  -1   -1.73    5.30
   9 -16   0   17.01    9.53
   9 -16   1   25.74   14.12
   9 -16   2  344.49   51.71
  -9 -16  -2  360.74   52.47
   9 -16   3    1.23    2.04
  -9 -16  -3  -11.76   15.52
  -9 -16  -4  -13.78   14.92
   9 -16   4    2.83    5.29
  -9 -16  -5   31.38   14.22
   9 -16   5   40.13   18.79
  -9 -16  -6    2.78    2.34
   9 -16   6    5.29    9.16
  -9 -16  -7    7.68   10.99
   9 -16   7   16.27   12.87
  -9 -16  -8   17.88   14.01
   9 -16   8    9.17   10.22
   9 -16   9    0.33    7.42
  -9 -16  -9    9.75   16.21
   9 -16  10    8.96   12.18
  -9 -16 -10   18.25   19.14
   9 -17 -20  -14.34   18.03
  -9  17  19   -6.80   12.19
   9 -17 -19  -16.41   19.49
  -9  17  18    3.67    7.37
   9 -17 -18  -27.44   20.30
  -9  17  17    4.36    7.70
  -9  17  16    4.45    5.43
   9 -17 -16  -11.80   15.08
  -9  17  15   11.67    9.79
   9 -17 -15   -9.31   14.12
  -9  17  14   12.69   13.13
   9 -17 -14   10.24    6.68
  -9  17  13   35.43   19.22
   9 -17 -13   30.65   13.38
  -9  17  12   -3.42    9.61
   9 -17 -12   -1.53    2.81
  -9  17  11   -2.04    7.71
   9 -17 -11    8.09    6.99
   9 -17 -11   20.59   13.82
  -9  17  10   10.94    9.43
   9 -17 -10   12.84    8.65
   9 -17  -9   53.81   21.32
   9 -17  -9   42.97   15.62
  -9  17   9   48.21   20.50
   9 -17  -8   24.78   11.94
  -9  17   8   18.28   11.56
   9 -17  -8   54.49   21.70
  -9  17   7    8.48    5.27
   9 -17  -7   16.86   11.20
  -9  17   6   68.02   23.59
   9 -17  -6   75.00   21.25
  -9  17   5   -1.74    1.66
   9 -17  -5    5.49    7.40
   9 -17  -4   59.90   20.13
   9 -17  -3   99.81   26.48
   9 -17  -2   55.43   19.63
   9 -17  -1   59.95   20.26
   9 -17   0   26.40   13.90
   9 -17   1   33.08   16.59
   9 -17   2   32.00   15.97
  -9 -17  -2    7.57   11.50
   9 -17   3    4.17    4.30
  -9 -17  -3   -8.23   15.43
   9 -17   4   -1.57    8.50
  -9 -17  -4   -7.28   11.82
  -9 -17  -5   41.58   19.25
   9 -17   5   43.58   18.87
  -9 -17  -6    7.92   10.73
   9 -17   6    2.39    5.44
  -9 -17  -7   14.28   15.89
   9 -17   7    8.31    8.89
  -9 -17  -8    2.84    9.71
   9 -17   8    3.47    6.20
  -9 -17  -9   33.40   23.42
   9 -17   9    7.49   10.63
   9 -17  10   18.16   12.19
   9 -18 -19  -17.34   19.77
  -9  18  18   14.87   12.29
   9 -18 -18   -6.78   14.58
  -9  18  17    3.71    3.26
   9 -18 -17  -14.24   15.75
  -9  18  16    7.63    4.36
   9 -18 -16   -7.16   12.20
  -9  18  15   14.97   13.59
   9 -18 -15   -1.32    7.51
  -9  18  14   13.28   10.91
   9 -18 -14    8.44    7.10
  -9  18  13   17.54   13.40
   9 -18 -13   17.40   12.02
  -9  18  12   12.58   13.83
   9 -18 -12    7.10    5.33
  -9  18  11   63.58   24.61
   9 -18 -11   55.05   17.31
   9 -18 -11   85.07   24.74
  -9  18  10    0.08    5.50
   9 -18 -10    4.17    5.22
  -9  18   9    5.89    6.19
   9 -18  -9   -2.16    5.39
  -9  18   8    5.73    5.96
   9 -18  -8   10.06    9.09
   9 -18  -7   20.92   11.84
  -9  18   7   14.32   11.04
  -9  18   6    4.66    2.42
   9 -18  -6    4.98    6.77
  -9  18   5  103.55   29.83
   9 -18  -5  122.71   28.28
   9 -18  -4    0.06    4.56
   9 -18  -3   30.82   16.02
   9 -18  -2    1.62    5.73
   9 -18  -1    4.05    3.87
   9 -18   0    6.10    7.96
   9 -18   1    3.27    4.30
  -9 -18  -2   68.53   20.99
   9 -18   2   93.40   27.74
   9 -18   3    3.68    2.81
  -9 -18  -3  -11.25   15.50
   9 -18   4   -3.83    6.16
  -9 -18  -4  -15.00   11.51
  -9 -18  -5   22.16   10.35
   9 -18   5   21.40   13.59
  -9 -18  -6  -11.70   12.83
   9 -18   6   -0.62    7.69
   9 -18   7   48.80   22.30
  -9 -18  -7   42.35   22.17
  -9 -18  -8   15.11   12.71
   9 -18   8    6.20    6.82
  -9 -18  -9   34.96   22.69
   9 -18   9   31.17   18.85
   9 -19 -18  -12.16   13.50
  -9  19  17   27.22   16.63
   9 -19 -17   13.65    7.20
  -9  19  16    3.75    7.57
   9 -19 -16   -5.74    9.78
  -9  19  15   39.41   20.43
   9 -19 -15   48.37   18.97
  -9  19  14    3.01    6.14
   9 -19 -14    3.58    4.10
  -9  19  13  127.14   37.26
   9 -19 -13  132.44   31.47
   9 -19 -12   17.14   11.48
  -9  19  12    4.63    3.09
   9 -19 -11    1.18    5.94
  -9  19  11    1.07    3.90
  -9  19  10    8.12    7.47
   9 -19 -10    6.24    6.73
  -9  19   9   32.41   17.51
   9 -19  -9   27.27   14.26
   9 -19  -9   76.16   25.62
  -9  19   8   65.40   24.35
   9 -19  -8   79.34   22.76
  -9  19   7   -5.01    9.78
   9 -19  -7    0.41    4.12
  -9  19   6   -1.66    6.49
   9 -19  -6    3.37    3.97
  -9  19   5    0.30    3.56
   9 -19  -5    0.00    1.70
  -9  19   4   15.09   10.35
   9 -19  -4   16.14   10.29
   9 -19  -3   38.84   17.40
   9 -19  -2    3.71    6.07
   9 -19  -1   21.01   11.89
   9 -19   0    0.01    2.48
   9 -19   1    7.42    7.00
   9 -19   2    4.60    6.73
  -9 -19  -3   15.34    2.22
   9 -19   3   29.64   15.15
   9 -19   4   53.32   21.32
  -9 -19  -4   28.09   13.03
   9 -19   5    4.61    7.18
  -9 -19  -5   -7.24   13.36
  -9 -19  -6  -15.32   12.11
   9 -19   6    5.00    7.90
  -9 -19  -7   -8.88    9.41
   9 -19   7   13.87   12.78
  -9 -19  -8   19.89   15.40
   9 -19   8   -2.81    4.08
  -9 -19  -9   22.95   20.01
   9 -20 -18   -4.01    8.60
   9 -20 -17    4.98    4.98
  -9  20  16   -4.53    9.31
   9 -20 -16    4.70    5.54
  -9  20  15   19.77   15.59
   9 -20 -15   13.34   10.26
  -9  20  14    3.64    1.05
   9 -20 -14    1.75    5.23
   9 -20 -13   15.37   14.40
  -9  20  13    0.30    2.43
  -9  20  12   74.14   28.15
   9 -20 -12   94.35   26.64
   9 -20 -11   35.11   16.61
  -9  20  11    7.87    5.68
   9 -20 -11   17.03   11.39
  -9  20  10   -4.12    7.62
   9 -20 -10    1.29    6.10
  -9  20   9    5.97    8.85
   9 -20  -9    3.16    6.05
  -9  20   8   13.14    7.30
   9 -20  -8   26.80   14.57
  -9  20   7    5.67    6.53
   9 -20  -7    7.64    9.57
  -9  20   6   -2.35    8.74
   9 -20  -6    3.91    2.32
   9 -20  -5   32.83   16.16
  -9  20   5   15.35    9.80
  -9  20   4   -8.07   12.50
   9 -20  -4   -0.15    4.70
   9 -20  -3    2.92    5.50
   9 -20  -2   17.80   12.37
   9 -20  -1   -2.76    2.79
   9 -20   0   40.16   18.64
   9 -20   1    0.38    4.41
   9 -20   2   36.22   17.90
  -9 -20  -3  -12.43   17.92
   9 -20   3    6.98   11.32
   9 -20   4   85.88   28.94
  -9 -20  -4   42.47   16.59
   9 -20   5    3.90    2.87
  -9 -20  -5  -27.07   18.98
  -9 -20  -6  -14.72   15.86
   9 -20   6    1.74    1.63
  -9 -20  -7  -12.42   11.22
   9 -20   7    8.15    9.23
  -9 -20  -8   -3.97    7.63
   9 -21 -17    7.44   10.48
   9 -21 -16   19.85   14.72
  -9  21  15    7.48    8.47
   9 -21 -15   29.73   16.62
   9 -21 -14   24.77   16.07
  -9  21  14   -7.69   13.10
   9 -21 -13   32.06   16.94
  -9  21  13   -8.10   11.59
   9 -21 -12   35.16   17.93
  -9  21  12    7.82   12.88
   9 -21 -11   13.86    9.86
  -9  21  11    8.79    7.09
   9 -21 -10   98.79   27.61
  -9  21  10   53.08   22.29
   9 -21 -10   67.02   21.65
  -9  21   9   35.65   19.42
   9 -21  -9   28.45   14.58
  -9  21   8  105.29   32.69
   9 -21  -8  113.35   28.42
  -9  21   7   17.01   11.00
   9 -21  -7   21.77   14.08
  -9  21   6   67.23   25.30
   9 -21  -6   61.55   20.90
  -9  21   5   -5.32   10.92
   9 -21  -5   -0.99    4.00
   9 -21  -4    4.79    7.29
  -9  21   4   -7.72    9.64
   9 -21  -3   10.70    8.88
   9 -21  -2    1.96    6.37
   9 -21  -1   11.66    9.96
   9 -21   0    8.86    9.79
   9 -21   1    2.11    2.12
   9 -21   2   42.46   19.96
   9 -21   3   12.60   11.95
   9 -21   4   43.24   19.31
  -9 -21  -4   27.52   10.94
   9 -21   5   -2.61    9.52
  -9 -21  -5  -15.61   15.48
   9 -21   6   14.21    9.65
  -9 -21  -6   11.88    3.83
  -9 -21  -7   11.45    9.39
  -9 -21  -8   -1.00    9.27
   9 -22 -16   39.92   19.03
   9 -22 -15   32.03   18.31
   9 -22 -14   42.86   21.66
  -9  22  14    3.98    5.52
   9 -22 -13   53.05   21.28
  -9  22  13    4.66    2.81
   9 -22 -12   52.91   22.53
  -9  22  12    6.91    4.09
   9 -22 -11    8.87    6.75
  -9  22  11    7.49    8.56
  -9  22  10    2.81    8.71
   9 -22 -10    3.61    9.13
   9 -22  -9    4.34    7.28
  -9  22   9    6.82   10.10
  -9  22   8    2.46    6.74
   9 -22  -8    6.97    8.57
  -9  22   7    3.56    5.01
   9 -22  -7    8.13    7.13
  -9  22   6   12.98   11.74
   9 -22  -6   13.01   10.51
  -9  22   5   -7.40   10.19
   9 -22  -5    3.32    2.63
  -9  22   4    1.59    3.98
   9 -22  -4   20.54   13.41
   9 -22  -3    7.03   10.44
   9 -22  -2   51.66   21.61
   9 -22  -1   52.98   21.17
   9 -22   0   12.33   11.32
   9 -22   1   -6.98    6.91
   9 -22   2   22.21   14.86
   9 -22   3   14.33   12.80
  -9 -22  -4   -0.96    8.98
   9 -22   4   14.50   12.71
  -9 -22  -5  -17.30   17.71
   9 -22   5   -4.59    8.69
  -9 -22  -6   -7.42   14.68
  -9 -22  -7   -8.39   11.66
   9 -23 -15   44.78   22.01
   9 -23 -14   63.41   23.84
   9 -23 -13   60.16   24.18
  -9  23  13   13.09   12.05
   9 -23 -12   84.15   26.87
  -9  23  12   12.92    8.59
  -9  23  11   18.70   15.69
  -9  23  10   30.96   17.87
   9 -23 -10   28.18   14.21
  -9  23   9   11.80    7.63
   9 -23  -9   11.80   10.99
  -9  23   8   60.02   25.64
   9 -23  -8   45.58   19.48
  -9  23   7   12.52   10.92
   9 -23  -7    5.96    8.98
   9 -23  -6   17.09   12.40
  -9  23   6   14.48   10.87
  -9  23   5    4.42    4.30
   9 -23  -5    5.18    7.05
  -9  23   4  -10.04   13.39
   9 -23  -4    4.58    8.84
   9 -23  -3   58.42   22.39
  -9  23   3   59.28   23.99
   9 -23  -2   17.95   14.33
   9 -23  -1   36.91   18.35
   9 -23   0    9.39   10.46
   9 -23   1    5.18    9.53
   9 -23   2   19.31   14.97
   9 -23   3   24.96   15.73
   9 -23   4   16.11   14.24
  -9 -23  -5  -19.22   18.54
  -9 -23  -6    0.17   10.38
  -9 -23  -7  -14.20   17.34
   9 -24 -14   85.93   28.29
  -9  24  11   11.63    8.30
  -9  24  10    7.87   11.98
  -9  24   9   -6.54   11.44
   9 -24  -9    5.97    7.31
  -9  24   8   -3.84   10.33
   9 -24  -8   -1.09    5.82
  -9  24   7    1.75    4.55
   9 -24  -7    6.80    7.43
  -9  24   6   -4.63    8.64
   9 -24  -6   14.44   11.61
  -9  24   5   32.04   18.44
   9 -24  -5   46.84   20.78
  -9  24   4    2.28    6.88
   9 -24  -4    8.47    6.55
  -9  24   3   22.24   15.66
   9 -24  -3   22.88   15.51
   9 -24  -2    2.78    5.94
   9 -24  -1    2.66    9.30
   9 -24   0   12.27   12.58
   9 -24   1   10.98    9.64
   9 -24   2   40.50   19.35
   9 -24   3    4.61    8.82
  -9 -24  -5  -17.84   21.42
  -9 -24  -6   -4.48   15.00
  -9  25  10   -0.51    5.08
  -9  25   9   25.93   16.37
   9 -25  -9   29.00   15.33
  -9  25   8   -1.55    7.89
   9 -25  -8    6.02    7.43
  -9  25   7    4.02    6.41
   9 -25  -7   11.57   12.56
  -9  25   6    3.51    8.84
   9 -25  -6   10.59   10.02
  -9  25   5   -2.86    7.28
   9 -25  -5    4.88    9.68
  -9  25   4    0.96    7.18
   9 -25  -4    9.96   14.22
  -9  25   3   -0.48    7.41
   9 -25  -3   10.53   11.68
   9 -25  -2    6.82    9.91
   9 -25  -1   38.50   19.64
   9 -25   0    1.36    8.66
   9 -25   1   27.64   16.22
  -9  26   8   -7.29   10.58
   9 -26  -8    2.37    5.46
   9 -26  -7   14.98   10.94
  -9  26   7   11.57   10.62
  -9  26   6    4.47    6.91
   9 -26  -6   10.47   10.40
   9 -26  -5   34.30   18.76
  -9  26   5   29.52   17.11
  -9  26   4    3.60    7.36
   9 -26  -4    6.98    8.81
  -9  26   3   16.56   13.36
   9 -26  -3   11.66   13.24
   9 -26  -2    6.17    9.95
   9 -26  -1   10.57   13.65
   9 -26   0   10.56   12.46
   9 -27  -8   61.76   23.95
  -9  27   7    1.95    5.34
   9 -27  -7   10.52   11.13
  -9  27   6   -0.48    8.73
   9 -27  -6   10.88   11.36
   9 -27  -5    2.41    9.03
  -9  27   5   -1.19    6.62
  -9  27   4   16.40   14.76
   9 -27  -4   26.07   15.49
  -9  27   3   -7.97   12.03
   9 -27  -3    5.16    8.13
   9 -28  -8    7.61   11.70
   9 -28  -7   13.86   12.93
   9 -28  -6    2.64    6.39
  -9  28   5   -2.60    9.50
  -9  28   4   12.70   14.31
  -9  28   3   -3.19    9.93
  -9  29   3   -1.55    4.57
  10   0 -21    4.53   10.43
  10   0 -20    2.50    4.57
  10   0 -19    6.36   10.92
  10   0 -18   23.40   14.47
  10   0 -17    9.95   11.91
  10   0 -16  409.35   53.40
  10   0 -15   -3.85    6.55
  10   0 -14  106.63   24.77
  10   0 -13   -6.40    8.21
  10   0 -12  207.45   32.65
  10   0 -11   -2.51    3.55
  10   0 -10   51.21   13.52
  10   0  -9   -3.78    6.16
  10   0  -8   39.38   11.57
  10   0  -8   43.73   11.56
  10   0  -7    1.49    2.66
  10   0  -7   -1.72    4.15
  10   0  -6   95.97   19.20
  10   0  -6   96.45   16.02
  10   0  -6   79.85   18.35
  10   0  -5    1.66    2.49
  10   0  -5    3.28    3.55
  10   0  -4   58.38   15.95
  10   0  -4   61.07   10.95
  10   0  -4   44.69   11.00
  10   0  -3   -0.35    5.77
  10   0  -3   -0.74    7.78
  10   0  -2  199.28   31.11
  10   0  -2  201.70   31.23
  10   0  -1   32.00   15.58
  10   0  -1    1.15    4.46
  10   0   0    6.70    6.96
 -10   0  -1  -11.17   14.16
  10   0   1    3.30    4.77
  10   0   2  166.54   32.05
 -10   0  -2  149.98   29.65
 -10   0  -3   -0.82    3.73
  10   0   3    0.86    5.04
  10   0   4   90.83   24.85
 -10   0  -4   99.94   25.17
 -10   0  -5    8.56    8.15
  10   0   5    0.32    5.67
  10   0   6   19.54   10.82
 -10   0  -6   41.80   19.99
  10   0   7   -1.51    1.94
 -10   0  -7   17.59   14.59
  10   0   8   12.16   10.36
 -10   0  -8   69.38   25.20
  10   0   9   -1.13    4.83
 -10   0  -9   23.45   18.93
  10   0  10   52.30   21.54
 -10   0 -10   88.18   29.41
  10   0  11    3.07    4.63
 -10   0 -11   28.70   22.44
  10   0  12    3.94   12.44
 -10   0 -12   54.73   27.51
  10   0  13    9.28   11.55
  10  -1 -21    0.26    8.67
  10   1 -21    2.18   10.12
  10  -1 -20   30.05   17.98
  10   1 -20   33.55   18.43
  10  -1 -19    8.69    8.62
  10   1 -19   13.29   11.78
  10  -1 -18   22.06   13.86
  10   1 -18   31.64   18.22
  10  -1 -17   23.69   12.20
  10   1 -17   39.57   17.94
  10  -1 -16   32.97   16.12
  10   1 -16   32.54   15.39
  10  -1 -15   29.15   11.72
  10   1 -15   32.07   15.13
  10  -1 -14   -2.55    7.27
  10   1 -14    6.06    6.51
  10  -1 -13   -3.25    7.91
  10   1 -13    1.02    1.32
  10  -1 -12    6.18    2.32
  10   1 -12   11.94    5.05
  10  -1 -11   -4.09    8.61
  10   1 -11    0.64    2.46
  10  -1 -10    9.22    5.51
  10  -1 -10    2.87    4.92
  10   1 -10    8.25    1.36
  10  -1  -9   17.64    7.38
  10  -1  -9    8.40    2.59
  10   1  -9   15.61    7.00
  10  -1  -8  207.11   26.25
  10  -1  -8  204.97   27.17
  10   1  -8  225.49   28.11
  10   1  -7   16.20    8.47
  10  -1  -7    9.61    5.95
  10  -1  -7    4.84    2.79
  10   1  -7   12.56    7.70
  10   1  -6  114.32   20.96
  10  -1  -6  110.35   20.60
  10  -1  -6  113.11   17.72
  10   1  -6  128.28   19.04
  10   1  -6  113.33   24.30
  10  -1  -6  106.05   21.69
  10   1  -5   33.91   11.69
  10  -1  -5   36.38   11.61
  10   1  -5   52.98   12.09
  10  -1  -5   34.44    8.11
  10   1  -5   31.57   10.80
  10  -1  -5    5.86   12.59
  10   1  -4   49.10   14.82
  10  -1  -4   39.55   11.79
  10  -1  -4   51.57    9.85
  10   1  -4   27.88    6.73
  10  -1  -4   24.68    2.51
  10  -1  -3    9.81    6.59
  10  -1  -3   18.05    5.82
  10   1  -3   -5.34    7.34
  10   1  -3   11.27    7.34
  10  -1  -3    7.12    6.87
  10   1  -2   82.82   19.76
  10  -1  -2   81.52   19.40
  10   1  -2   73.08   19.15
  10  -1  -2  108.71   23.80
  10   1  -1    9.57    7.75
  10   1  -1   47.81   17.83
  10  -1  -1   69.09   21.25
  10   1   0  146.11   28.34
  10  -1   0  158.57   29.21
 -10   1  -1   17.05   11.18
  10   1   1   35.60   14.77
  10  -1   1   22.99    9.38
 -10  -1  -1   -1.65   14.21
  10   1   2  313.75   43.30
  10  -1   2  318.12   44.47
 -10   1  -2  309.46   43.20
 -10  -1  -2  323.55   45.84
  10   1   3   40.12   15.70
 -10   1  -3   11.55    4.99
 -10  -1  -3   33.78   12.49
  10  -1   3   36.30   13.99
  10   1   4   -2.28    5.74
 -10   1  -4    9.86    9.30
 -10  -1  -4   -0.67    4.82
  10  -1   4   -1.70    4.87
  10   1   5   21.43   13.81
 -10   1  -5   28.45   14.61
 -10  -1  -5   31.12   15.44
  10  -1   5   18.42   11.44
  10   1   6    0.21    4.16
 -10   1  -6   12.57   12.36
 -10  -1  -6   11.62   14.45
  10  -1   6    0.30    1.45
  10   1   7    7.25    9.57
  10  -1   7    8.26    7.88
 -10   1  -7   19.04   15.10
 -10  -1  -7   38.37   20.29
  10   1   8   13.27   11.44
 -10   1  -8   47.89   21.85
 -10  -1  -8   46.16   22.39
  10   1   9   17.48   11.51
  10  -1   9   10.67    9.60
 -10  -1  -9   43.63   21.61
 -10   1  -9   41.39   21.60
  10   1  10    6.89    8.14
  10  -1  10    2.18    4.41
 -10  -1 -10   38.17   22.47
 -10   1 -10   40.10   23.18
  10   1  11    5.03    7.30
 -10  -1 -11   34.48   23.71
 -10   1 -11   25.59   20.20
  10   1  12   54.51   23.82
  10  -1  12   41.37   19.36
 -10  -1 -12  114.88   36.00
 -10   1 -12  100.07   33.94
  10  -1  13   17.62   14.45
  10  -2 -21    8.28    7.74
  10   2 -21   14.18   15.48
  10  -2 -20    8.59   10.93
  10   2 -20   23.29   16.60
  10  -2 -19   -1.41    5.22
  10   2 -19   19.83   16.49
  10  -2 -18    8.38    5.57
  10   2 -18   23.65   16.24
  10   2 -17  112.86   30.19
  10  -2 -17   86.23   25.02
  10  -2 -16   -0.43    8.88
  10   2 -16   10.74   11.93
  10  -2 -15   32.59   13.73
  10   2 -15   57.37   19.80
  10  -2 -14   45.09   16.70
  10   2 -14   54.70   19.55
  10  -2 -13   27.86    9.16
  10   2 -13   40.67   15.17
  10  -2 -12   51.20   14.87
  10   2 -12   60.31   18.04
  10  -2 -11    9.56    5.58
  10  -2 -11   -2.97    9.24
  10   2 -11    7.61    8.19
  10  -2 -10   29.43    9.39
  10  -2 -10   25.56    7.22
  10   2 -10   41.93   13.06
  10  -2  -9  143.73   21.16
  10  -2  -9  128.66   22.66
  10   2  -9  158.44   25.28
  10  -2  -8  193.12   25.66
  10  -2  -8  180.14   25.63
  10   2  -8  191.41   26.98
  10  -2  -8  157.52   29.83
  10  -2  -7    1.08    3.19
  10  -2  -7   -1.76    7.05
  10   2  -7   15.19    9.80
  10  -2  -7  -11.85   15.04
  10   2  -6   47.59   14.08
  10  -2  -6   35.45   11.26
  10  -2  -6   28.61    6.24
  10   2  -6   21.60    4.99
  10  -2  -6   32.59    7.43
  10   2  -5  193.22   28.20
  10  -2  -5  188.10   27.86
  10  -2  -5  182.90   21.33
  10   2  -5  163.74   27.82
  10  -2  -5  170.41   27.76
  10   2  -4  164.84   26.91
  10  -2  -4  178.72   28.28
  10  -2  -4  180.88   19.28
  10   2  -4  160.13   24.70
  10  -2  -4  176.98   28.32
  10   2  -3  130.26   25.03
  10  -2  -3  130.58   24.27
  10  -2  -3  120.59   13.40
  10   2  -3  122.42   19.91
  10  -2  -3  129.47   24.38
  10   2  -2  132.46   25.88
  10  -2  -2  133.63   26.01
  10  -2  -2  125.46   11.07
  10   2  -2  134.95   24.03
  10  -2  -2  187.44   30.04
  10   2  -1   25.74   10.65
  10  -2  -1   21.72   10.04
  10   2   0   41.95   14.62
  10  -2   0   36.24   13.25
 -10   2  -1  -22.66   18.79
  10   2   1    2.24    3.81
 -10  -2  -1  -21.16   21.44
  10  -2   1   -2.01    4.69
  10   2   2   22.22   11.26
 -10   2  -2    9.56   11.13
 -10  -2  -2   17.06    5.42
  10  -2   2   21.99    9.89
  10   2   3    6.56    6.05
 -10   2  -3    0.98    5.33
 -10  -2  -3    0.68    6.26
  10  -2   3   -0.18    2.20
  10   2   4   46.14   18.03
 -10   2  -4   43.74   16.70
 -10  -2  -4   46.38   17.20
  10  -2   4   37.84   16.12
  10   2   5    7.73    9.14
 -10   2  -5    7.96   10.03
 -10  -2  -5    5.23    6.93
  10  -2   5    2.99    3.08
  10   2   6   26.92   13.72
 -10  -2  -6   43.36   19.72
  10  -2   6   31.58   15.45
 -10   2  -6   53.62   22.03
  10   2   7    9.04    8.95
 -10   2  -7   16.92   15.09
 -10  -2  -7   22.17   17.28
  10  -2   7    0.27    2.54
  10   2   8   20.51   13.48
 -10   2  -8   46.54   20.38
 -10  -2  -8   43.07   21.43
  10  -2   8    6.36    8.09
  10   2   9   23.27   15.42
  10  -2   9   24.28   14.80
 -10  -2  -9   50.74   23.58
 -10   2  -9   58.58   24.77
  10   2  10   57.51   23.63
 -10  -2 -10   90.92   30.95
  10  -2  10   54.60   22.76
 -10   2 -10   65.75   26.82
  10   2  11    9.22   11.01
  10  -2  11    6.05    9.87
 -10  -2 -11   31.57   21.29
 -10   2 -11   31.50   21.43
  10  -2  12   56.67   23.32
 -10  -2 -12  115.39   37.03
 -10   2 -12  104.20   34.24
  10  -2  13   -1.78    6.13
  10  -3 -21   -2.99    4.23
  10   3 -21   15.90   17.03
  10  -3 -20   -5.33    8.90
  10   3 -20   21.66   16.76
  10  -3 -19   29.55   13.42
  10   3 -19   61.38   24.44
  10  -3 -18   -7.24   10.55
  10   3 -18   18.57   16.03
  10  -3 -17   -7.26   12.34
  10   3 -17   18.45   14.95
  10  -3 -16   13.78    3.43
  10   3 -16   41.39   17.86
  10   3 -15   93.93   24.97
  10  -3 -15   58.09   17.90
  10  -3 -14  -16.45   13.81
  10   3 -14    9.14   10.17
  10   3 -13  103.74   24.80
  10  -3 -13   68.42   17.56
  10  -3 -12   20.72    4.90
  10   3 -12   40.11   14.70
  10  -3 -11    5.85    4.84
  10  -3 -11    4.64    4.37
  10   3 -11   15.94    9.82
  10  -3 -10   44.02   11.48
  10  -3 -10   49.62   15.89
  10   3 -10   52.70   16.62
  10  -3  -9   -2.48    4.25
  10  -3  -9    4.96    5.91
  10  -3  -8  170.29   23.97
  10  -3  -8  172.13   26.35
  10   3  -8  188.12   26.16
  10  -3  -8  127.92   28.50
  10  -3  -7   47.59   13.44
  10  -3  -7   43.58   12.73
  10  -3  -7   31.80    9.83
  10  -3  -6  105.93   20.38
  10  -3  -6  101.29   18.47
  10  -3  -6   79.00   16.77
  10  -3  -5   54.38   14.77
  10  -3  -5   54.75   12.14
  10   3  -5   35.74    9.31
  10  -3  -5   42.94   11.65
  10   3  -4   33.39   12.55
  10  -3  -4   40.01    9.89
  10  -3  -4   30.74   12.26
  10   3  -4    9.75    6.42
  10  -3  -4   29.04    9.41
  10   3  -3    7.80    7.37
  10  -3  -3    4.87    1.33
  10  -3  -3   15.44    9.07
  10   3  -3  -10.62   11.79
  10  -3  -3   17.64    9.37
  10   3  -2    4.09    5.19
  10  -3  -2   -1.90    3.30
  10  -3  -2    4.61    6.42
  10   3  -2    6.71    7.55
  10   3  -1   27.82   12.18
  10  -3  -1   18.45    9.56
  10   3  -1   56.63   17.96
  10   3   0   91.00   22.84
  10  -3   0   92.61   22.14
  10   3   0  160.04   28.25
  10   3   1   -0.62    2.29
 -10   3  -1  -24.16   20.66
 -10  -3  -1  -22.31   21.29
  10  -3   1    3.16    4.78
  10   3   2    8.58    7.49
 -10   3  -2  -13.30   14.37
 -10  -3  -2   -5.13   14.30
  10  -3   2   10.32    7.99
  10   3   3   77.84   22.78
  10  -3   3   76.31   22.00
 -10   3  -3   78.88   21.23
 -10  -3  -3   67.34   20.50
  10   3   4    2.27    6.40
 -10   3  -4   -6.70    7.40
 -10  -3  -4    4.27    7.17
  10  -3   4    1.16    1.08
  10   3   5   10.37   10.34
 -10   3  -5    6.07    9.03
 -10  -3  -5   19.42   13.30
  10  -3   5   -4.34    7.49
  10   3   6   15.53   12.36
 -10   3  -6   25.87   14.02
 -10  -3  -6   13.07   15.76
  10  -3   6    7.95    6.23
  10   3   7   39.57   18.07
 -10   3  -7   81.34   25.63
 -10  -3  -7   79.77   25.64
  10  -3   7   42.73   18.30
  10   3   8    6.61    9.73
 -10   3  -8   17.06   13.42
 -10  -3  -8   28.01   19.83
  10  -3   8    0.34    1.95
  10   3   9   83.46   27.01
  10  -3   9   77.14   25.29
 -10  -3  -9  117.45   32.64
 -10   3  -9  107.54   30.18
  10  -3  10   -3.41    5.00
 -10  -3 -10   46.27   24.26
 -10   3 -10   36.72   20.69
  10  -3  11   -7.72    8.97
 -10  -3 -11   42.16   22.77
 -10   3 -11   30.67   20.38
  10  -3  12   -1.26    7.01
 -10  -3 -12   66.95   30.01
 -10   3 -12   62.28   26.68
  10  -3  13   11.88   12.97
  10  -4 -21    6.36    5.80
  10   4 -21   30.23   19.54
  10  -4 -20    0.65    2.15
  10   4 -20   17.13   16.44
  10  -4 -19   15.41    4.95
  10   4 -19   50.23   23.37
  10  -4 -18   -4.60   11.46
  10   4 -18    4.12   10.40
  10  -4 -17   -8.47   15.32
  10   4 -17   22.72   16.23
  10  -4 -16   -2.38   12.10
  10   4 -16   24.11   16.14
  10  -4 -15  -13.35   13.90
  10   4 -15   20.97   15.36
  10  -4 -14    0.09    4.33
  10   4 -14   26.22   16.44
  10  -4 -13    3.79    7.73
  10   4 -13   32.47   16.58
  10  -4 -12    1.24    3.81
  10   4 -12    8.63   12.02
  10  -4 -11    0.13    0.76
  10  -4 -11    0.45    2.55
  10  -4 -10    2.23    1.30
  10  -4 -10    3.09    6.55
  10  -4  -9   59.86   13.69
  10  -4  -9   47.95   13.33
  10  -4  -9   41.66   11.92
  10  -4  -8   55.39   14.01
  10  -4  -8   58.93   15.54
  10  -4  -8   40.96   12.89
  10  -4  -7  142.37   23.56
  10  -4  -7  141.85   22.83
  10  -4  -7  150.15   27.42
  10  -4  -6   29.53   10.20
  10  -4  -6   25.75   10.13
  10  -4  -6    5.56   10.01
  10  -4  -5  312.88   36.66
  10  -4  -5  315.94   30.28
  10   4  -5  293.57   37.77
  10  -4  -5  315.67   39.63
  10  -4  -4  108.88   22.50
  10  -4  -4  107.23   16.43
  10   4  -4  103.37   20.32
  10  -4  -4  108.06   22.50
  10  -4  -3   37.29   15.63
  10  -4  -3   21.35    6.53
  10  -4  -3   19.24    8.98
  10   4  -3    5.35    7.51
  10  -4  -2    9.50    3.93
  10  -4  -2    7.40    6.06
  10   4  -2   14.56    7.87
  10   4  -1   14.18   10.60
  10  -4  -1    9.56    3.54
  10  -4  -1    5.96    6.41
  10   4   0  157.42   30.16
  10  -4   0  168.53   31.40
  10   4   0  241.92   31.61
  10   4   1    6.02    9.24
 -10  -4  -1   -9.18   16.91
  10  -4   1    1.41    3.76
  10   4   2   23.84   12.50
 -10   4  -2   12.12    3.91
 -10  -4  -2   14.37    8.12
  10  -4   2   29.45   12.63
  10   4   3   -0.07    3.92
 -10   4  -3   -3.37   10.27
 -10  -4  -3   -6.95    8.61
  10  -4   3    2.94    3.26
  10   4   4    0.42    3.96
 -10   4  -4   -2.37    5.34
 -10  -4  -4   10.34    8.72
  10  -4   4    0.18    2.78
  10   4   5    4.10    8.92
 -10  -4  -5   12.45   12.34
  10  -4   5    0.72    6.10
 -10   4  -5    0.42    3.73
  10   4   6    1.43    7.86
 -10   4  -6    7.46   10.78
 -10  -4  -6   20.00   15.21
  10  -4   6   -0.23    3.71
 -10   4  -7   24.40   17.51
 -10  -4  -7   25.75   17.11
  10  -4   7   -0.67    2.46
 -10   4  -8   31.99   19.34
 -10  -4  -8   37.62   20.27
  10  -4   8    8.17    6.08
 -10  -4  -9   63.54   26.62
 -10   4  -9   77.18   26.11
  10  -4   9   29.73   17.28
 -10  -4 -10   82.89   30.00
 -10   4 -10   72.25   25.54
  10  -4  10   37.81   17.02
  10  -4  11   10.24   11.22
 -10  -4 -11   39.49   24.14
 -10   4 -11   53.89   24.26
  10  -4  12   36.29   18.79
 -10  -4 -12   68.31   30.32
 -10   4 -12   84.70   30.43
  10  -4  13    5.26    8.40
  10  -5 -21   -4.23   12.95
  10  -5 -20    9.74    1.60
  10  -5 -19   -2.63    8.49
  10  -5 -18   26.28   13.33
  10  -5 -17  -19.18   17.61
  10  -5 -16    1.11   12.41
  10   5 -16   37.62   19.11
  10  -5 -15   59.42   21.74
  10   5 -15   87.44   25.56
  10  -5 -14    9.02    9.64
  10  -5 -13   13.81    8.68
  10  -5 -12    4.84    2.68
  10  -5 -11    5.44    5.38
  10  -5 -11    9.11    5.10
  10  -5 -10   24.37   12.38
  10  -5 -10   21.72    7.97
  10  -5 -10    1.37   13.92
  10  -5  -9    9.51    5.32
  10  -5  -9   15.31    7.80
  10  -5  -9   -5.08   14.99
  10  -5  -8   59.82   14.60
  10  -5  -8   53.38   14.17
  10  -5  -8   57.24   15.43
  10  -5  -7    9.38    2.99
  10  -5  -7   18.70    8.91
  10  -5  -6   35.41   10.55
  10  -5  -6   25.37    6.76
  10  -5  -6   40.09   13.15
  10  -5  -5   -0.54    3.02
  10   5  -5  -13.37   13.94
  10  -5  -5    0.33    4.71
  10  -5  -5   -0.83    3.07
  10  -5  -4   48.50   11.11
  10   5  -4   26.88    8.52
  10  -5  -4   43.70   14.28
  10  -5  -4   50.26   15.22
  10  -5  -3   -2.96    4.23
  10   5  -3  -12.21   13.15
  10  -5  -3   -0.37    2.95
  10   5  -2   -0.49    4.28
  10  -5  -2   -0.89    3.02
  10  -5  -1   42.83    7.81
  10   5  -1   79.81   18.25
  10  -5  -1   47.98   16.48
  10  -5   0   -0.73    3.30
  10   5   0   61.53   17.80
 -10  -5  -1  -19.51   20.42
  10  -5   1    2.02    2.80
 -10   5  -2   90.34   20.50
 -10  -5  -2   75.26   19.79
  10  -5   2   91.92   24.44
 -10   5  -3   27.79    9.90
 -10  -5  -3   20.17    8.69
  10  -5   3   27.83   14.28
 -10   5  -4    5.31    5.71
 -10  -5  -4    0.74    5.52
  10  -5   4    7.45    8.72
 -10   5  -5    9.99    8.52
 -10  -5  -5    3.04    7.13
  10  -5   5    2.57    5.07
 -10   5  -6   11.78   10.60
 -10  -5  -6   29.34   16.84
  10  -5   6   11.12    8.68
 -10   5  -7   16.77   14.56
 -10  -5  -7   15.14   15.36
  10  -5   7    6.86    7.55
 -10   5  -8   30.13   15.96
 -10  -5  -8   25.52   19.92
  10  -5   8    0.60    6.09
 -10   5  -9   24.61   18.03
 -10  -5  -9   22.36   15.85
  10  -5   9   -3.11    6.76
 -10  -5 -10   49.13   24.63
 -10   5 -10   43.68   20.97
  10  -5  10   13.22   10.63
 -10  -5 -11   32.58   23.35
 -10   5 -11   52.50   23.76
  10  -5  11   12.30   11.47
 -10  -5 -12   87.62   34.85
  10  -5  12   16.30   13.59
 -10   5 -12   64.52   27.39
  10  -6 -20   -8.43   15.38
  10  -6 -19   -7.51   14.81
  10  -6 -18   -3.75   12.66
  10  -6 -17  -12.28   13.40
  10  -6 -16    8.45    6.86
  10  -6 -15    0.51    4.99
  10  -6 -14   15.38   11.24
  10  -6 -13   -3.63    8.09
  10  -6 -12  278.76   40.96
  10  -6 -11   51.28   12.33
  10  -6 -11   55.69   18.13
  10  -6 -11   24.17    4.42
  10  -6 -10   75.92   15.72
  10  -6 -10   72.19   20.66
  10  -6 -10   49.93   13.66
  10  -6  -9   24.31   10.14
  10  -6  -9   -1.50   11.08
  10  -6  -9   21.48    9.52
  10  -6  -8   71.16   17.54
  10  -6  -8   75.96   16.77
  10  -6  -8   40.66   13.61
  10  -6  -7   26.83    8.69
  10  -6  -7   41.50   12.87
  10  -6  -7    5.57   11.27
  10  -6  -6    7.72    4.09
  10  -6  -6    7.29    3.07
  10  -6  -6   -3.03    8.07
  10  -6  -5   16.79    8.63
  10  -6  -5   18.06    9.19
  10  -6  -4   18.41    9.62
  10   6  -4    9.46    5.78
  10  -6  -3   12.55    8.94
  10   6  -3   -9.62   12.12
  10  -6  -2   42.98   14.72
  10   6  -2   28.22    9.29
  10  -6  -1   -1.33    5.62
  10   6  -1   24.47   12.76
  10  -6   0   18.06    9.45
  10   6   0   73.69   18.59
 -10  -6  -1   -8.31   20.49
  10  -6   1   19.18   11.05
 -10   6  -2  211.40   34.40
 -10  -6  -2  227.88   39.21
  10  -6   2  234.74   38.67
 -10   6  -3   -4.96   10.17
 -10  -6  -3   -2.07    9.37
  10  -6   3   13.48   10.14
 -10   6  -4   15.35    9.00
 -10  -6  -4   32.54   14.56
  10  -6   4   11.31    8.74
 -10   6  -5    1.18    2.64
 -10  -6  -5   12.21   11.21
  10  -6   5    0.29    5.99
 -10   6  -6    5.58    9.27
 -10  -6  -6    9.11   12.74
  10  -6   6    0.00    6.00
 -10   6  -7    9.15   11.76
 -10  -6  -7   21.82   16.51
  10  -6   7   -2.62    7.52
 -10   6  -8   57.67   22.80
 -10  -6  -8   57.94   25.14
  10  -6   8   44.00   19.47
 -10   6  -9   23.54   17.24
 -10  -6  -9   39.87   23.31
  10  -6   9    0.67    3.20
 -10  -6 -10   50.00   26.86
 -10   6 -10   44.96   22.74
  10  -6  10   21.76   12.92
 -10  -6 -11   39.50   23.40
 -10   6 -11   29.37   20.23
  10  -6  11   -3.34    9.86
 -10  -6 -12   38.24   25.60
 -10   6 -12   42.69   24.93
  10  -6  12   -3.74    8.04
 -10   6 -13   68.08   28.63
  10  -7 -20    8.78    7.77
  10  -7 -19   -6.25   11.17
  10  -7 -18   51.73   17.02
  10  -7 -17   49.59   19.78
  10  -7 -16   -0.32    3.34
  10  -7 -15   27.15   13.67
  10  -7 -14    7.64    5.93
  10  -7 -13   -3.17    1.77
  10  -7 -12   52.12   18.16
  10  -7 -12   19.10    5.35
  10  -7 -11   51.42   12.58
  10  -7 -11   53.52   17.72
  10  -7 -11   44.55   15.94
  10  -7 -10    1.82    3.65
  10  -7 -10   -3.85    8.27
  10  -7 -10   -9.19   14.23
  10  -7  -9   21.19    8.64
  10  -7  -9   26.98   10.43
  10  -7  -9    5.73    5.70
  10  -7  -8   39.16   11.53
  10  -7  -8   42.03   12.81
  10  -7  -7   -0.42    1.91
  10  -7  -7  -35.07   14.65
  10  -7  -6   83.56   19.79
  10  -7  -6   66.02   18.33
  10  -7  -5    4.14    4.96
  10  -7  -5   23.37   12.89
  10  -7  -4   60.85   17.97
  10   7  -4   47.18   11.48
  10  -7  -4   81.95   22.01
  10  -7  -3   43.74   15.41
  10   7  -3   22.32    3.20
  10  -7  -2    5.35    6.43
  10   7  -2  -10.57    8.94
  10  -7  -1    4.56    5.05
  10   7  -1   15.33    8.45
  10  -7   0  195.08   34.23
  10   7   0  225.28   28.10
 -10  -7  -1   39.06    7.49
  10  -7   1   82.79   23.12
 -10   7  -2   54.89   14.28
 -10  -7  -2   32.14   11.95
  10  -7   2   73.64   21.80
 -10   7  -3   -3.49    8.51
 -10  -7  -3   -5.46    7.05
  10  -7   3    1.39    4.40
 -10   7  -4    0.06    6.57
 -10  -7  -4    4.41    5.44
  10  -7   4   14.21    8.70
 -10   7  -5   10.21    6.99
 -10  -7  -5   19.91   14.31
  10  -7   5   11.77   10.18
 -10   7  -6    7.24    7.39
 -10  -7  -6   13.81   13.61
  10  -7   6    1.69    4.70
 -10   7  -7   23.31   14.04
 -10  -7  -7   27.72   18.13
  10  -7   7    5.35    5.06
 -10   7  -8   17.56   14.03
 -10  -7  -8   29.51   19.37
  10  -7   8    8.01    9.38
 -10   7  -9   41.22   19.27
 -10  -7  -9   34.36   20.11
  10  -7   9   16.75    9.85
 -10  -7 -10   47.85   23.89
 -10   7 -10   25.31   16.13
  10  -7  10    6.83    7.49
 -10  -7 -11   40.90   23.34
 -10   7 -11   53.47   24.74
  10  -7  11   23.99   15.26
 -10   7 -12   75.95   27.80
  10  -7  12   32.06   18.86
 -10   7 -13   46.73   25.07
 -10   7 -14   80.94   31.38
  10  -8 -20   -6.31   13.11
  10  -8 -19    7.28    1.65
  10  -8 -18    4.84    5.65
  10  -8 -17   87.85   28.01
  10  -8 -16   46.09   18.61
  10  -8 -15   38.47   17.82
  10  -8 -14    1.37    1.70
  10  -8 -13   11.18    8.08
  10  -8 -13   -2.70   12.67
  10  -8 -12   69.37   20.49
  10  -8 -12   58.12   18.26
  10  -8 -11  100.73   23.80
  10  -8 -11  104.62   18.48
  10  -8 -11   82.86   23.91
  10  -8 -10    3.93    2.87
  10  -8 -10    3.36    4.39
  10  -8 -10   -1.96    8.07
  10  -8  -9    3.14    3.38
  10  -8  -8  100.52   20.40
  10  -8  -8   72.59   17.62
  10  -8  -7   -0.72    3.99
  10  -8  -7  -14.36    9.42
  10  -8  -6   41.94   13.90
  10  -8  -6   36.47   15.59
  10  -8  -5   71.31   18.78
  10  -8  -5   86.24   23.07
  10  -8  -4   37.97   13.89
  10   8  -4   12.42    5.10
  10  -8  -3   78.95   20.94
  10   8  -3   77.67   15.66
  10  -8  -2   48.79   16.36
  10   8  -2   32.84    9.41
  10  -8  -1   39.70   14.68
  10   8  -1   51.52   13.87
  10  -8   0   15.22    9.34
  10   8   0   70.55   16.89
  10  -8   1   40.33   16.30
 -10  -8  -1   24.09    4.87
  10  -8   2   54.67   18.82
 -10  -8  -2   27.41    9.84
  10  -8   3    3.95    3.94
 -10   8  -3  -11.43   12.84
 -10  -8  -3   -6.03    9.75
  10  -8   4   13.58   12.72
 -10   8  -4    9.40    5.90
 -10  -8  -4   15.48    8.59
 -10   8  -5    0.55    6.85
 -10  -8  -5    0.87    4.23
  10  -8   5    3.53    4.74
 -10   8  -6    8.39    8.03
 -10  -8  -6   14.41   12.96
  10  -8   6    0.61    4.46
 -10   8  -7    8.17    9.25
 -10  -8  -7   17.42   15.87
  10  -8   7   -1.16    4.61
 -10   8  -8   21.12   17.34
 -10  -8  -8   28.69   18.98
  10  -8   8    9.18    7.81
 -10   8  -9   29.48   18.35
 -10  -8  -9   17.30   17.30
  10  -8   9   -0.32    5.20
 -10   8 -10   26.42   18.83
 -10  -8 -10   40.13   24.14
  10  -8  10    5.37    3.93
 -10  -8 -11   67.50   30.30
 -10   8 -11   60.54   25.11
  10  -8  11   27.81   15.80
 -10   8 -12   47.39   24.57
  10  -8  12    5.97   11.01
  10  -9 -20   17.76   11.73
  10  -9 -19   15.10   14.82
  10  -9 -18    1.60    4.50
  10  -9 -17   73.90   26.42
  10  -9 -16    0.06    4.26
  10  -9 -15  184.99   38.02
  10  -9 -14    1.37    3.69
  10  -9 -14  -10.39   16.53
  10  -9 -13   57.37   19.90
  10  -9 -13   57.73   17.51
  10  -9 -12    8.65    6.87
  10  -9 -12   -5.40   13.30
  10  -9 -11    8.31    5.28
  10  -9 -11    9.76    5.41
  10  -9 -11    1.28    3.74
  10  -9 -10    2.87    3.69
  10  -9 -10  -31.37   18.37
  10  -9  -9    3.63    4.54
  10  -9  -8   36.40   12.50
  10  -9  -8   27.00    6.97
  10  -9  -7   38.26   13.26
  10  -9  -7   27.73   11.65
  10  -9  -6   11.50    7.51
  10  -9  -6   28.36   14.86
  10  -9  -5   26.91   15.06
  10  -9  -5    2.50    4.53
  10  -9  -4    9.01    6.50
  10  -9  -4   67.47   24.00
  10  -9  -3   26.90   12.67
  10   9  -3   18.96    3.94
  10   9  -2   95.76   17.63
  10  -9  -2  108.15   25.19
  10  -9  -1    0.95    2.29
  10   9  -1    4.73    5.78
  10  -9   0   -3.64    5.20
  10   9   0   41.01   12.58
  10  -9   1   53.41   19.12
 -10  -9  -1   39.29   13.34
  10  -9   2   35.14   14.79
 -10  -9  -2   10.24    8.27
  10  -9   3    2.46    6.62
 -10  -9  -3  -14.95   14.26
 -10   9  -3  -10.61   12.48
  10  -9   4    2.89    6.39
 -10   9  -4   -2.07    8.89
 -10  -9  -4   11.12   10.35
 -10   9  -5  148.63   28.95
 -10  -9  -5  137.50   34.40
  10  -9   5  129.95   31.93
 -10  -9  -6   17.32   12.71
 -10   9  -6   20.23   11.78
  10  -9   6   12.31    8.92
 -10   9  -7   41.10   17.05
 -10  -9  -7   42.77   21.21
  10  -9   7   22.93   14.16
 -10   9  -8   33.39   16.94
 -10  -9  -8   32.48   19.84
  10  -9   8    5.29    9.26
 -10   9  -9  112.85   29.41
 -10  -9  -9  112.75   34.39
  10  -9   9   82.08   26.84
 -10   9 -10   31.12   18.46
 -10  -9 -10   47.28   26.68
  10  -9  10    6.38    9.07
 -10  -9 -11   36.15   23.36
  10  -9  11   16.75   13.34
  10 -10 -20    7.80   12.87
  10 -10 -19   94.21   31.15
  10 -10 -18   34.67   18.03
  10 -10 -17  159.44   37.43
  10 -10 -16    2.21    6.54
  10 -10 -15   29.19   15.74
  10 -10 -15   23.21   11.09
  10 -10 -14    2.17    6.30
  10 -10 -14  -10.15   15.10
  10 -10 -13    0.44    5.77
  10 -10 -13  -16.64   14.21
  10 -10 -12   26.09   13.33
  10 -10 -12    8.74    9.79
  10 -10 -11    6.39    5.17
  10 -10 -11  -16.91   18.74
  10 -10 -10   18.11    8.32
  10 -10 -10   -3.33   16.34
  10 -10  -9    4.46    4.60
  10 -10  -9  -30.44   20.31
  10 -10  -8    5.20    6.66
  10 -10  -8  -18.25   10.88
  10 -10  -7    0.59    1.69
  10 -10  -7   -8.25    8.06
  10 -10  -6   -0.15    1.93
  10 -10  -6   24.19   14.02
  10 -10  -5  157.50   31.79
  10 -10  -5   95.42   22.89
  10 -10  -4    2.17    3.54
  10 -10  -4   69.30   23.88
  10  10  -3  186.85   26.91
  10 -10  -3  186.22   32.79
  10 -10  -2    3.50    5.81
  10  10  -2  -12.94   10.76
  10 -10  -1    0.80    1.38
  10  10  -1    5.29    4.60
  10 -10   0   30.91   13.69
  10  10   0   63.33   13.99
 -10 -10  -1    9.88    9.34
  10 -10   1   40.31   16.59
  10 -10   2   50.46   18.62
 -10 -10  -2   33.16   10.87
  10 -10   3   -0.94    3.44
 -10  10  -3   -6.67   11.19
 -10 -10  -3   -9.67   12.42
  10 -10   4   23.46   13.27
 -10  10  -4   16.87    5.94
 -10 -10  -4   11.07    8.92
  10 -10   5   61.49   21.65
 -10  10  -5   49.66   14.47
 -10 -10  -5   55.08   21.38
  10 -10   6    2.83    6.97
 -10  10  -6    2.57    5.15
 -10 -10  -6   10.50   11.26
 -10  10  -7   27.05   14.36
 -10 -10  -7   35.57   19.68
  10 -10   7   15.50   10.07
 -10  10  -8   20.18   14.63
 -10 -10  -8   21.90   16.52
  10 -10   8    6.60    7.78
 -10  10  -9   46.94   21.22
 -10 -10  -9   61.86   27.55
  10 -10   9   37.03   18.35
 -10 -10 -10   39.93   24.01
  10 -10  10   22.79   16.22
  10 -10  11   77.75   28.07
  10 -11 -19   10.84   13.01
  10 -11 -18   17.12   13.69
  10 -11 -17    6.23    2.81
  10 -11 -17  -11.37   17.28
  10 -11 -16    8.25    1.50
  10 -11 -16   -7.89   18.00
  10 -11 -15   79.08   24.49
  10 -11 -15   79.44   25.53
  10 -11 -14   15.21    7.88
  10 -11 -14    4.65    5.37
  10 -11 -13   47.25   17.66
  10 -11 -13   47.57   17.40
  10 -11 -12    1.61   14.20
  10 -11 -11   65.15   15.91
  10 -11 -11   21.11    2.89
  10 -11 -10   22.53    9.72
  10 -11 -10   -8.16   17.03
  10 -11  -9   42.49   12.91
  10 -11  -9   16.32    3.19
  10 -11  -8   36.34   12.95
  10 -11  -8   31.63   11.54
  10 -11  -7  122.71   24.68
  10 -11  -7  141.80   30.58
  10 -11  -6   24.97   13.94
  10 -11  -6   11.56    4.05
  10 -11  -5   21.03    8.35
  10 -11  -5   75.94   24.63
  10 -11  -4   26.23   12.35
  10 -11  -4  121.35   30.35
  10 -11  -3   13.17   10.40
  10  11  -3    6.10    6.39
  10 -11  -2   40.04   16.46
  10  11  -2   28.66    4.48
  10  11  -1  100.56   17.04
  10 -11  -1   98.18   25.64
  10 -11   0   30.03   14.99
  10  11   0   59.94   13.04
 -10 -11  -1   14.70    7.43
  10 -11   1   36.06   15.73
 -10 -11  -2   -0.70   16.39
  10 -11   2   11.27    8.44
  10 -11   3   -2.05    2.80
 -10 -11  -3  -14.14   15.00
  10 -11   4    1.04    4.88
 -10  11  -4   -5.73   12.13
 -10 -11  -4   -1.34    8.22
 -10  11  -5   96.24   22.80
 -10 -11  -5  116.43   30.99
  10 -11   5  103.16   29.11
  10 -11   6   21.36   13.79
 -10  11  -6   20.52   10.26
 -10 -11  -6   19.31   14.01
 -10  11  -7   99.10   24.49
 -10 -11  -7   72.23   26.33
  10 -11   7   77.60   26.21
 -10 -11  -8   13.06   15.33
  10 -11   8    0.63    1.34
 -10 -11  -9   60.82   26.96
  10 -11   9   36.49   18.70
 -10 -11 -10   89.84   33.79
  10 -11  10   61.95   24.42
  10 -11  11    0.59    1.13
  10 -12 -20  -12.11   18.35
  10 -12 -19   -4.18    6.74
  10 -12 -19   -9.14   15.79
  10 -12 -18    1.82    7.11
  10 -12 -18  -14.21   16.50
  10 -12 -17    5.70    2.78
  10 -12 -17  -10.78   14.71
  10 -12 -16  -15.32   14.73
  10 -12 -16  -10.09   15.02
  10 -12 -15   66.79   22.57
  10 -12 -15   41.79   16.33
  10 -12 -14   28.89   15.63
  10 -12 -14   15.38    6.90
  10 -12 -13   -9.68   15.75
  10 -12 -12   19.18    9.57
  10 -12 -11  -14.41   15.28
  10 -12 -11   -1.28    0.32
  10 -12 -10  103.65   21.45
  10 -12 -10   89.81   22.33
  10 -12  -9  185.84   29.69
  10 -12  -9  181.64   34.03
  10 -12  -8  140.72   26.43
  10 -12  -8  145.83   31.03
  10 -12  -7   21.32    9.78
  10 -12  -7   39.73   17.55
  10 -12  -6   68.54   19.29
  10 -12  -6  142.79   31.33
  10 -12  -5   59.70   22.78
  10 -12  -5   -6.53    8.54
  10 -12  -4   85.93   27.11
  10 -12  -4    5.53    4.33
  10 -12  -3  133.73   28.74
  10  12  -3  128.44   21.96
  10 -12  -2    1.47    3.92
  10  12  -2   -9.90   11.42
  10 -12  -1   46.99   18.14
  10  12  -1   45.60   10.93
  10 -12   0   49.32   17.49
 -10 -12  -1  -25.16   20.35
  10 -12   1    1.30    6.49
 -10 -12  -2   71.03   20.69
  10 -12   2   77.92   24.99
 -10 -12  -3   83.80   23.44
  10 -12   3   88.48   25.93
 -10  12  -4   46.95   12.73
 -10 -12  -4   49.47   17.04
  10 -12   4   66.78   24.33
  10 -12   5   14.23   13.09
 -10 -12  -5   -6.30    7.51
  10 -12   6   11.13   10.52
 -10 -12  -6    3.05   10.52
  10 -12   7   26.36   16.89
 -10 -12  -7   35.23   18.90
  10 -12   8   36.38   18.28
 -10 -12  -8   32.98   20.33
 -10 -12  -9   25.48   19.88
  10 -12   9    0.18    3.66
 -10 -12 -10   87.28   32.98
  10 -12  10   59.45   24.37
  10 -13 -20   -0.33    9.94
  10 -13 -19    4.31    5.46
  10 -13 -19   -7.71   15.85
  10 -13 -18   25.40   14.10
  10 -13 -18   13.11    5.94
  10 -13 -17   -5.19   11.44
  10 -13 -17  -10.76   14.57
 -10  13  16   29.31   14.31
  10 -13 -16   21.77   11.98
  10 -13 -16   25.53   11.77
 -10  13  15   75.52   27.70
  10 -13 -15   60.75   23.16
  10 -13 -15   64.22   23.14
  10 -13 -14   64.16   21.31
  10 -13 -13   -7.43   15.44
  10 -13 -11   45.20   14.18
  10 -13 -11   16.86    3.41
  10 -13 -10    4.47    5.28
  10 -13 -10   -5.67    9.74
  10 -13  -9   25.15   11.83
  10 -13  -9   18.32    9.80
  10 -13  -8  112.70   23.85
  10 -13  -8   98.11   24.57
  10 -13  -7   30.48   16.62
  10 -13  -7   -0.30    4.09
  10 -13  -6  130.58   27.39
  10 -13  -6  163.71   33.44
  10 -13  -5   -3.96    7.45
  10 -13  -5   82.79   26.49
  10 -13  -4   -8.10    8.89
  10 -13  -3   45.48   16.63
  10  13  -3   41.60   10.96
  10  13  -2    6.86    6.74
  10 -13  -2   19.51    9.64
  10 -13  -1    2.63    1.99
  10 -13   0   91.84   25.94
  10 -13   1  105.42   28.01
 -10 -13  -2  208.99   39.33
  10 -13   2  238.92   42.59
 -10 -13  -3   -7.75   14.80
  10 -13   3    4.18    9.31
 -10 -13  -4   -3.32    8.90
  10 -13   4    7.98    8.89
  10 -13   5    3.64    2.57
 -10 -13  -5    2.26    7.70
  10 -13   6   41.31   19.35
 -10 -13  -6   48.22   21.29
  10 -13   7   24.71   16.29
 -10 -13  -7   27.18   16.40
  10 -13   8    6.32   10.49
 -10 -13  -8   22.31   18.28
  10 -13   9   28.29   17.09
 -10 -13  -9   41.02   23.05
  10 -13  10   20.10   13.59
  10 -14 -20   -5.52   11.08
 -10  14  19    2.17    7.94
  10 -14 -19    3.02    9.68
 -10  14  18    3.63    6.34
  10 -14 -18    2.00    9.23
  10 -14 -18   -6.40   12.51
 -10  14  17   10.19    4.30
  10 -14 -17   10.07    8.57
  10 -14 -17   14.42   11.58
 -10  14  16    7.56    5.58
  10 -14 -16    0.57    7.90
  10 -14 -16    8.75    1.57
 -10  14  15   79.69   28.27
  10 -14 -15   64.21   22.23
  10 -14 -15   64.10   19.11
 -10  14  14   23.67   15.33
  10 -14 -14   14.41    4.72
 -10  14  13   32.47   15.10
  10 -14 -13   12.07    7.52
 -10  14  12   48.71   19.89
  10 -14 -12   38.40   16.00
  10 -14 -11    5.33    6.29
  10 -14 -11   -5.61    9.35
  10 -14 -10  148.54   27.42
  10 -14 -10  141.77   30.51
  10 -14  -9   10.73    7.70
  10 -14  -9   13.25   10.72
  10 -14  -8   32.69   15.39
  10 -14  -8   25.66   11.96
  10 -14  -7   47.39   19.80
  10 -14  -7   21.85   11.35
  10 -14  -6   17.59   10.46
  10 -14  -6   64.03   23.00
  10 -14  -5   70.87   24.88
  10 -14  -5   15.23    9.54
  10 -14  -4    8.94    5.31
  10 -14  -3   14.50    9.65
  10  14  -3    6.64    4.28
  10 -14  -2    1.47    4.41
  10 -14  -1   73.53   23.25
  10 -14   0    2.47    7.06
  10 -14   1    3.25    6.71
  10 -14   2  190.76   39.33
 -10 -14  -2  156.86   35.11
 -10 -14  -3    7.17    8.07
  10 -14   3   23.93   16.08
 -10 -14  -4   -9.01   17.35
  10 -14   4    8.15    7.23
 -10 -14  -5   -9.58   11.62
  10 -14   5    1.36    0.63
  10 -14   6    8.17    8.92
 -10 -14  -6   21.24   13.27
  10 -14   7    0.21    1.43
 -10 -14  -7    5.21   12.99
  10 -14   8    3.38    2.80
 -10 -14  -8   12.44   13.19
  10 -14   9   16.18   14.15
 -10 -14  -9   16.56   12.74
  10 -15 -20  -12.32   15.12
 -10  15  19   -0.12    5.53
  10 -15 -19   -7.75   12.61
 -10  15  18    0.27   11.11
  10 -15 -18   13.83   14.43
  10 -15 -18    1.39    4.99
 -10  15  17   10.21    9.14
  10 -15 -17    7.64    6.47
  10 -15 -17   -7.32   13.80
 -10  15  16    1.82    4.24
  10 -15 -16   -1.55   11.93
  10 -15 -16  -17.08   18.45
 -10  15  15   60.44   25.48
  10 -15 -15   21.33    8.09
 -10  15  14   55.53   23.68
  10 -15 -14   36.75   13.15
 -10  15  13   88.47   29.02
  10 -15 -13   73.20   23.01
 -10  15  12    0.75    7.49
  10 -15 -12   -6.70   10.15
 -10  15  11   47.37   19.39
  10 -15 -11   48.29   15.79
  10 -15 -11   43.74   17.48
  10 -15 -10   15.39    8.07
  10 -15 -10   21.26   14.07
  10 -15  -9    1.36    3.31
  10 -15  -9    3.40    6.07
  10 -15  -8   36.08   17.87
  10 -15  -8    3.05    3.82
  10 -15  -7   21.71   10.94
  10 -15  -7   60.39   23.11
  10 -15  -6   49.07   22.08
  10 -15  -6   -0.78    3.91
  10 -15  -5  143.64   29.84
  10 -15  -4   -2.08    6.48
  10 -15  -3   -2.08    3.65
  10 -15  -2    1.77    0.92
  10 -15  -1   32.73   15.44
  10 -15   0   -4.15    9.07
  10 -15   1   39.89   16.80
 -10 -15  -2  -17.40   18.31
  10 -15   2   -2.68    3.67
 -10 -15  -3    1.69   15.71
  10 -15   3    7.89    8.98
 -10 -15  -4   -9.95   14.22
  10 -15   4    4.10    4.72
 -10 -15  -5   28.48   15.46
  10 -15   5   40.61   18.85
 -10 -15  -6   13.53    8.99
  10 -15   6    9.98    9.29
  10 -15   7   63.55   24.49
 -10 -15  -7   66.94   26.35
  10 -15   8   18.39   15.60
 -10 -15  -8   24.85   16.15
  10 -15   9   39.17   20.03
 -10 -15  -9   41.77   24.47
 -10  16  19   19.74   13.53
  10 -16 -19    9.32    9.96
 -10  16  18   -9.25   12.87
  10 -16 -18  -12.25   16.41
 -10  16  17    9.29    7.76
  10 -16 -17    8.26    6.46
  10 -16 -17   -3.98   13.56
 -10  16  16    2.99    7.95
  10 -16 -16  -14.39   16.23
 -10  16  15   14.02   11.29
  10 -16 -15   16.36   10.18
 -10  16  14   12.80    9.10
  10 -16 -14  -10.98   14.45
 -10  16  13   -5.60    8.51
  10 -16 -13   -6.22   12.11
 -10  16  12    0.23    8.08
  10 -16 -12   -8.02   10.12
 -10  16  11   -3.30   11.87
  10 -16 -11    5.26    4.35
  10 -16 -11    8.49    7.44
 -10  16  10    0.50    7.01
  10 -16 -10    3.71    5.40
  10 -16 -10    7.22    5.75
  10 -16  -9   30.75   15.41
  10 -16  -9   25.04   11.52
  10 -16  -8   56.22   22.26
  10 -16  -8   26.74   12.34
  10 -16  -7   46.44   20.53
  10 -16  -7   10.42    8.37
  10 -16  -6  120.57   30.32
  10 -16  -6   31.19   13.88
  10 -16  -5   57.25   18.94
  10 -16  -4    3.09    2.56
  10 -16  -3   25.36   12.63
  10 -16  -2   12.43    9.60
  10 -16  -1   12.46    9.60
  10 -16   0   -3.66    8.49
  10 -16   1   10.22    9.28
 -10 -16  -2    2.76   15.45
  10 -16   2   25.63   13.94
 -10 -16  -3   -3.40   14.94
  10 -16   3   15.94    8.99
 -10 -16  -4  -32.47   17.45
  10 -16   4    0.33    1.83
 -10 -16  -5   -1.85    8.45
  10 -16   5    4.26    2.09
 -10 -16  -6  -11.12   10.52
  10 -16   6    3.80    4.37
  10 -16   7   17.73   14.44
 -10 -16  -7   14.39   13.64
  10 -16   8    4.09    6.70
 -10 -16  -8    1.09   11.50
  10 -17 -19  -18.90   19.77
 -10  17  18    4.31    4.41
  10 -17 -18   -7.50   15.15
 -10  17  17   -2.14   11.08
  10 -17 -17   -9.18   12.93
  10 -17 -17  -18.04   17.13
 -10  17  16   -2.08    8.57
  10 -17 -16  -20.57   17.31
 -10  17  15   -6.13   11.18
  10 -17 -15   -2.35    3.87
 -10  17  14    0.90    5.15
  10 -17 -14   -3.77    2.95
 -10  17  13    8.75    8.07
  10 -17 -13    4.15    3.69
 -10  17  12   -1.54    7.31
  10 -17 -12    0.43    3.90
 -10  17  11    1.03    9.10
  10 -17 -11    6.40    6.10
  10 -17 -11   22.27   14.18
  10 -17 -10   44.49   18.82
 -10  17  10   13.99    9.23
  10 -17 -10   17.33    9.45
  10 -17  -9   19.87   14.93
 -10  17   9   -6.47    9.94
  10 -17  -9    3.16    7.10
  10 -17  -8   97.81   24.40
  10 -17  -8  155.69   33.93
  10 -17  -7   18.34   10.95
  10 -17  -7   91.96   28.36
  10 -17  -6    7.21    7.55
  10 -17  -5   56.05   19.52
  10 -17  -4    3.87    6.67
  10 -17  -3   -3.69    7.62
  10 -17  -2   11.33    8.77
  10 -17  -1    8.53    9.44
  10 -17   0   44.90   18.02
  10 -17   1   11.61    8.28
  10 -17   2   62.29   22.80
 -10 -17  -3  -13.72   17.99
  10 -17   3    1.69    5.45
 -10 -17  -4  -14.92   13.53
  10 -17   4   10.64   10.66
 -10 -17  -5   -4.72   12.16
  10 -17   5   -2.26    0.83
 -10 -17  -6  -23.20   15.32
  10 -17   6   -0.86    3.91
 -10 -17  -7   32.42   17.21
  10 -17   7   40.88   20.25
  10 -17   8   23.40   15.65
 -10 -17  -8   23.67   19.10
  10 -18 -19  -14.36   15.50
  10 -18 -18  -21.70   19.32
 -10  18  17   -0.79    4.88
  10 -18 -17  -17.96   15.66
 -10  18  16   -3.55   10.47
  10 -18 -16  -10.25   11.42
 -10  18  15   -6.00   12.23
  10 -18 -15   -1.54    7.76
 -10  18  14    2.61    4.52
  10 -18 -14    5.28    8.82
 -10  18  13    0.15    6.30
  10 -18 -13    1.06    3.75
 -10  18  12   10.22    4.63
  10 -18 -12   21.50   13.47
  10 -18 -11   52.86   21.73
 -10  18  11   20.81   15.48
  10 -18 -11   23.44   11.92
 -10  18  10   94.60   30.40
  10 -18 -10   80.44   22.30
  10 -18 -10  109.16   29.16
 -10  18   9   -5.52    7.60
  10 -18  -9    0.73    3.43
 -10  18   8   -3.77    7.15
  10 -18  -8   11.65    9.55
  10 -18  -7    4.72    6.31
  10 -18  -6    6.93    8.61
  10 -18  -5    9.39    7.22
  10 -18  -4   29.55   15.31
  10 -18  -3    1.98    3.69
  10 -18  -2    0.83    5.92
  10 -18  -1    2.74    4.36
  10 -18   0    3.94    5.70
  10 -18   1   -2.47    5.15
  10 -18   2    9.51    6.99
 -10 -18  -3  -13.13   18.98
  10 -18   3    0.43    4.18
 -10 -18  -4  -12.33   17.39
  10 -18   4   14.38   13.98
 -10 -18  -5  -15.05   15.94
  10 -18   5    7.81   10.42
 -10 -18  -6   10.71    7.97
  10 -18   6   33.29   18.93
 -10 -18  -7    2.36    2.58
  10 -18   7    9.39   14.24
  10 -19 -18    5.01    3.61
  10 -19 -17   -3.67    7.75
 -10  19  16   -8.05    9.79
  10 -19 -16   -2.53    6.09
 -10  19  15   -1.63    7.34
  10 -19 -15   19.92   14.23
 -10  19  14   55.49   24.30
  10 -19 -14   53.36   22.00
 -10  19  13   -3.67    9.72
  10 -19 -13   13.00   12.40
  10 -19 -12   39.88   18.85
 -10  19  12    3.46    2.89
  10 -19 -11   64.20   23.06
 -10  19  11   37.67   19.05
  10 -19 -11   35.55   14.64
 -10  19  10    3.31    6.47
  10 -19 -10   14.74   10.44
 -10  19   9   -3.94   11.89
  10 -19  -9   -0.17    2.66
 -10  19   8   26.49   13.82
  10 -19  -8   30.55   15.11
  10 -19  -7    4.71    6.42
  10 -19  -6   74.33   23.18
  10 -19  -5    8.03    5.79
  10 -19  -4   12.96   10.39
  10 -19  -3   10.18   11.51
  10 -19  -2   68.30   23.68
  10 -19  -1    7.09    7.65
  10 -19   0   55.05   21.12
  10 -19   1    5.62    6.10
  10 -19   2   39.97   18.72
  10 -19   3   -0.04    5.78
 -10 -19  -3  -30.90   22.43
 -10 -19  -4  -20.84   19.77
  10 -19   4   -4.54    6.16
 -10 -19  -5    3.49    9.60
  10 -19   5   24.82   15.47
 -10 -19  -6   -0.71    9.10
  10 -19   6   -1.18    6.28
 -10 -19  -7   12.19    8.45
  10 -20 -18   22.58   14.65
  10 -20 -17    4.08    5.94
  10 -20 -16   45.55   19.51
 -10  20  15   -5.37    9.81
  10 -20 -15    9.21   12.71
  10 -20 -14   14.51   12.44
 -10  20  14    1.66    6.17
  10 -20 -13   10.35   11.37
 -10  20  13   -3.58   10.98
  10 -20 -12   33.52   17.78
 -10  20  12   -1.86    3.25
 -10  20  11    6.83    7.61
  10 -20 -11   15.90   10.81
 -10  20  10   22.05   14.46
  10 -20 -10   50.18   18.77
 -10  20   9    1.57    7.22
  10 -20  -9    1.84    6.44
 -10  20   8   -7.55   11.56
  10 -20  -8    8.81    8.77
 -10  20   7   15.98   12.10
  10 -20  -7   21.79   12.52
  10 -20  -6    0.57    3.04
  10 -20  -5   40.90   17.18
  10 -20  -4   -0.25    1.92
  10 -20  -3   19.85   13.64
  10 -20  -2   15.14   12.02
  10 -20  -1   24.93   15.68
  10 -20   0   -1.24    5.50
  10 -20   1   20.45   10.62
  10 -20   2   15.72   10.34
  10 -20   3    7.86    5.30
 -10 -20  -4  -22.33   22.78
  10 -20   4    8.90    8.90
 -10 -20  -5  -12.73   16.27
  10 -20   5   11.89    8.60
 -10 -20  -6   -5.76   14.69
  10 -21 -17    1.94    3.41
  10 -21 -16   21.83   14.91
  10 -21 -15   56.42   23.94
  10 -21 -14   25.57   16.74
 -10  21  14    5.70    8.59
 -10  21  13   68.00   28.79
  10 -21 -13  105.08   30.76
  10 -21 -12   38.06   18.58
 -10  21  12   -9.17   11.16
 -10  21  11   10.45   10.79
  10 -21 -11   78.69   26.21
 -10  21  10    3.76    5.22
  10 -21 -10   16.79   11.54
 -10  21   9    8.26    7.95
  10 -21  -9   13.78   10.41
 -10  21   8    9.61   10.21
  10 -21  -8    0.71    6.74
 -10  21   7   18.41   12.22
  10 -21  -7   39.55   17.44
  10 -21  -6    0.62    0.89
  10 -21  -5   41.19   18.87
  10 -21  -4    7.95    5.30
  10 -21  -3    4.90    6.75
  10 -21  -2   19.58   13.61
  10 -21  -1   17.56   12.60
  10 -21   0    8.62    7.82
  10 -21   1   -4.56   10.12
  10 -21   2   -0.68    7.32
  10 -21   3   -0.26    4.14
  10 -21   4    8.66   11.65
 -10 -21  -4  -18.90   19.66
 -10 -21  -5  -22.93   23.11
 -10 -21  -6  -17.32   16.86
  10 -22 -16   20.34   15.02
  10 -22 -15   59.75   24.62
  10 -22 -14   34.55   19.08
  10 -22 -13   42.96   21.96
  10 -22 -12   52.83   23.34
 -10  22  12  -12.17   15.21
  10 -22 -11   88.64   27.70
 -10  22  11   -0.37    3.19
 -10  22  10  -17.09   15.90
  10 -22 -10   -0.47    3.48
 -10  22   9    2.44    6.15
  10 -22  -9   -0.74    1.26
 -10  22   8   11.16    8.90
  10 -22  -8    6.95    5.33
 -10  22   7   11.55    9.92
  10 -22  -7   18.77   13.76
 -10  22   6   33.20   16.87
  10 -22  -6   21.90   13.50
  10 -22  -5   25.52   14.37
  10 -22  -4    9.73   10.18
  10 -22  -3   42.85   20.83
  10 -22  -2    5.09    5.61
  10 -22  -1   53.59   22.03
  10 -22   0   -2.16    6.44
  10 -22   1   -3.27    4.76
  10 -22   2    8.56   10.90
  10 -22   3   13.49   11.36
 -10 -22  -5  -32.34   24.36
  10 -23 -16   92.32   30.09
  10 -23 -15   57.73   24.40
  10 -23 -14   53.62   24.41
  10 -23 -13   47.02   23.25
 -10  23  11   -2.87    6.67
  10 -23 -10    0.68    4.85
 -10  23  10    6.55    7.54
  10 -23  -9   12.82    8.14
 -10  23   9   12.56    9.61
 -10  23   8    2.24    1.21
  10 -23  -8    1.25    3.18
  10 -23  -7   65.45   24.12
 -10  23   7   79.40   29.52
 -10  23   6   -2.10   10.16
  10 -23  -6    4.92    6.55
  10 -23  -5   15.69   10.95
  10 -23  -4   11.79   10.43
  10 -23  -3   12.90   13.94
  10 -23  -2    3.28    8.09
  10 -23  -1   29.06   17.35
  10 -23   0   27.61   17.22
  10 -23   1   16.58   12.64
  10 -23   2   41.96   20.95
  10 -24 -15   60.86   25.87
  10 -24 -14   70.44   26.86
 -10  24  10    4.69    8.94
  10 -24 -10   11.02    8.78
 -10  24   9    4.55    7.83
  10 -24  -9   17.47   11.94
  10 -24  -8    9.14    8.57
 -10  24   8    4.44    3.91
 -10  24   7   -4.88   10.20
  10 -24  -7   -1.72    4.61
 -10  24   6    0.46    5.00
  10 -24  -6    6.69    9.10
  10 -24  -5    7.70    9.33
  10 -24  -4    4.23    6.12
  10 -24  -3    7.07    3.54
  10 -24  -2    7.02    9.89
  10 -24  -1   24.90   15.24
  10 -24   0   31.21   19.05
  10 -25 -10   12.52   11.47
  10 -25  -9    1.95    7.26
  10 -25  -8    4.59    7.34
 -10  25   8    2.98    1.61
  10 -25  -7   35.62   18.19
 -10  25   7   20.06   12.52
 -10  25   6   -7.26   12.25
  10 -25  -6    6.37   10.55
  10 -25  -5    8.87   10.80
  10 -25  -4    3.44    7.14
  10 -25  -3   -0.03    4.13
  10 -25  -2   12.21   12.04
  10 -25  -1    4.28    9.11
  10 -26  -9    8.29    9.10
  10 -26  -8   24.11   14.95
  10 -26  -7   15.90   12.35
 -10  26   6   22.04   16.02
  10 -26  -6   34.77   18.92
 -10  26   5   -8.60    8.17
  10 -26  -5    3.53    5.65
  10 -26  -4    6.95    9.53
  10 -26  -3    7.09   10.44
  10 -27  -9   12.98   11.98
  10 -27  -8    6.73   10.71
  10 -27  -7   15.47   13.24
  10 -27  -6   23.89   15.66
  11   0 -21   11.94   12.30
  11   0 -20    0.50    6.95
  11   0 -19   -1.45    5.27
  11   0 -18    5.47   10.18
  11   0 -17  184.25   37.06
  11   0 -16    0.80    5.36
  11   0 -15   95.99   25.42
  11   0 -14    1.60    4.47
  11   0 -13   61.02   17.60
  11   0 -12   -1.43    5.00
  11   0 -11   11.72    7.23
  11   0 -10    1.85    3.27
  11   0  -9   18.25    8.72
  11   0  -9    9.85    6.28
  11   0  -8    3.81    4.79
  11   0  -8    2.75    3.90
  11   0  -8  -14.43   16.76
  11   0  -7  147.28   25.02
  11   0  -7  151.57   22.29
  11   0  -7  133.48   28.25
  11   0  -6    3.92    3.41
  11   0  -6    7.82    7.22
  11   0  -5   15.56    7.43
  11   0  -5   25.26    9.08
  11   0  -4   -4.59    6.54
  11   0  -4  -16.58    9.58
  11   0  -3   92.18   21.97
  11   0  -3   96.62   21.27
  11   0  -2   44.85   17.80
  11   0  -2   -2.03    2.01
  11   0  -1  189.02   33.88
  11   0  -1  308.18   39.30
  11   0   0   -6.45    9.07
  11   0   1    2.50    5.02
 -11   0  -2  -12.11   17.01
  11   0   2   -2.74    5.38
 -11   0  -3   34.81   12.36
  11   0   3   36.69   17.02
 -11   0  -4   -7.36    9.02
  11   0   4   -1.01    3.06
  11   0   5   27.32   16.08
 -11   0  -5   31.06   13.90
  11   0   6    1.92    3.16
 -11   0  -6   -0.48    1.69
  11   0   7   60.88   23.41
 -11   0  -7   71.97   24.55
  11   0   8    1.56    3.10
 -11   0  -8    7.02   12.70
  11   0   9    6.63   10.35
 -11   0  -9   25.40   18.53
  11   0  10   -1.31    4.98
 -11   0 -10   25.49   19.22
  11   0  11   13.49   15.63
 -11   0 -11   43.49   23.52
  11  -1 -21   -4.55    3.26
  11   1 -21   24.62   19.76
  11  -1 -20   10.94   11.28
  11   1 -20   28.82   18.00
  11  -1 -19    0.11    7.29
  11   1 -19   23.19   17.68
  11  -1 -18    1.86    2.45
  11   1 -18    3.28    6.53
  11  -1 -17   31.78   13.94
  11   1 -17   36.30   18.21
  11  -1 -16    7.69    9.21
  11   1 -16   17.46   14.02
  11  -1 -15   -2.15    4.19
  11   1 -15   -2.17    5.83
  11  -1 -14    0.20    5.38
  11   1 -14    7.03    8.15
  11  -1 -13    9.65    5.96
  11   1 -13   11.52    7.93
  11  -1 -12    3.05    2.02
  11   1 -12    7.28    4.73
  11  -1 -11    9.45    5.72
  11   1 -11   13.67    9.25
  11  -1 -10   45.88   12.97
  11  -1 -10   32.83   10.98
  11   1 -10   47.59   15.50
  11  -1  -9    8.56    6.02
  11  -1  -9    5.17    2.47
  11   1  -9   16.46    9.86
  11  -1  -8    2.86    4.86
  11  -1  -8    0.07    1.81
  11   1  -8   10.39    9.02
  11   1  -8  -11.85   15.35
  11  -1  -8   -6.64   11.51
  11   1  -7   37.47   13.44
  11  -1  -7   41.86   13.26
  11   1  -7   51.35   13.73
  11  -1  -7   38.10   10.77
  11   1  -7   25.37    8.65
  11  -1  -7   24.15    9.27
  11   1  -6    4.74    6.13
  11  -1  -6    0.81    1.87
  11  -1  -6    3.31    3.13
  11   1  -6   -2.55    9.07
  11   1  -5  112.04   23.19
  11  -1  -5  113.44   24.03
  11  -1  -5  118.73   16.75
  11   1  -5   98.40   20.34
  11  -1  -5   90.63   18.87
  11   1  -4   25.67   11.84
  11  -1  -4   11.08    6.81
  11  -1  -4   22.14    7.10
  11   1  -4   -3.16   10.86
  11  -1  -4    7.82    4.11
  11   1  -3   26.05   13.25
  11  -1  -3   28.84   12.00
  11   1  -3   18.63    6.83
  11   1  -2   34.46   12.56
  11  -1  -2   44.47   15.34
  11   1  -2   93.15   21.87
  11  -1  -2   74.04   22.51
  11  -1  -1  119.81   27.09
  11   1  -1   90.51   22.74
  11   1   0  104.77   24.75
  11  -1   0   98.24   23.39
 -11  -1  -1   -7.88   16.23
  11   1   1    8.27    4.92
  11  -1   1    8.22    4.65
 -11   1  -2  -13.38   16.65
 -11  -1  -2  -11.82   16.25
  11   1   2    7.39    6.73
  11  -1   2    6.13    6.34
  11   1   3   25.33   14.25
 -11   1  -3   18.74    6.44
 -11  -1  -3   26.57   10.47
  11  -1   3   24.49   12.52
  11   1   4   -1.05    0.98
 -11   1  -4   -4.22    9.66
 -11  -1  -4    1.80    5.34
  11  -1   4   -6.91    9.35
  11   1   5   23.42   13.73
 -11   1  -5   17.67    9.87
 -11  -1  -5   30.72   13.65
  11  -1   5   16.65   11.77
  11   1   6    3.96    1.71
  11  -1   6    0.02    1.34
 -11   1  -6   -0.91    3.03
  11   1   7   37.52   18.48
 -11   1  -7   58.29   23.57
 -11  -1  -7   49.89   20.45
  11  -1   7   36.54   17.80
  11   1   8   13.65   11.81
  11  -1   8    7.77    8.50
 -11   1  -8   33.01   18.77
 -11  -1  -8   29.54   17.08
  11   1   9   15.51   11.10
  11  -1   9   18.60   12.93
 -11   1  -9   36.14   20.93
 -11  -1  -9   34.91   20.41
  11   1  10   15.63   14.04
  11  -1  10    7.39   11.14
 -11   1 -10   33.52   19.56
 -11  -1 -10   40.58   23.33
  11   1  11    6.60   12.17
  11  -1  11   -0.19    6.24
 -11   1 -11   23.26   19.58
 -11  -1 -11   36.69   24.46
 -11   1 -12   36.78   22.53
  11  -2 -21    5.87   10.17
  11   2 -21   23.66   18.12
  11  -2 -20   19.20   14.06
  11   2 -20   24.90   16.69
  11  -2 -19    6.87    6.57
  11   2 -19   13.82   16.58
  11  -2 -18   14.24   10.61
  11   2 -18   32.31   19.71
  11  -2 -17   44.89   17.47
  11   2 -17   65.09   24.68
  11  -2 -16  104.37   27.16
  11   2 -16  125.66   31.30
  11  -2 -15   -4.42   10.98
  11   2 -15   11.45   10.96
  11  -2 -14   20.74    8.72
  11   2 -14   37.09   17.09
  11  -2 -13   30.44   13.10
  11   2 -13   46.09   16.86
  11  -2 -12   -4.72    6.84
  11   2 -12   15.96   10.50
  11  -2 -11   27.66    9.16
  11  -2 -11   25.78    9.61
  11   2 -11   35.19   13.75
  11  -2 -10   85.98   16.84
  11  -2 -10   85.66   19.85
  11   2 -10   98.64   21.90
  11  -2  -9    1.49    2.89
  11  -2  -9   -3.89    7.61
  11   2  -9   10.23    8.91
  11  -2  -9   -5.23   13.95
  11  -2  -8  104.86   20.53
  11  -2  -8  101.57   19.57
  11   2  -8  119.25   21.25
  11  -2  -8   78.20   21.87
  11  -2  -7   -1.01    3.76
  11  -2  -7   -3.88    6.21
  11   2  -7  -10.88   14.82
  11  -2  -7   -3.79   12.75
  11   2  -6    3.30    5.74
  11  -2  -6   -4.46    4.26
  11  -2  -6   -1.81    4.51
  11   2  -6  -14.31   14.13
  11  -2  -6  -17.86   14.38
  11   2  -5    2.28    4.61
  11  -2  -5   -2.27    5.82
  11  -2  -5   -2.43    3.61
  11  -2  -5   -8.49   11.52
  11   2  -4  190.28   31.01
  11  -2  -4  177.25   30.23
  11  -2  -4  195.59   19.31
  11   2  -4  189.54   29.57
  11  -2  -4  187.85   30.76
  11  -2  -3   55.05   20.47
  11   2  -3   31.52   12.58
  11  -2  -3   31.08   11.50
  11   2  -3   30.29   10.51
  11   2  -2   25.66   13.41
  11  -2  -2   19.64    9.82
  11   2  -2   74.88   19.81
  11  -2  -2   69.89   24.26
  11  -2  -1  178.56   31.84
  11   2  -1   66.45   19.79
  11  -2  -1   57.62   17.86
  11   2  -1  134.70   26.23
  11   2   0   -5.18    5.04
  11  -2   0   -8.13    7.79
  11   2   1    2.67    5.89
  11  -2   1    0.35    3.28
  11   2   2    5.99    9.94
 -11   2  -2   -7.87   11.17
  11  -2   2   -1.62    6.07
 -11  -2  -2   -8.42   14.07
  11   2   3   82.16   24.44
  11  -2   3   86.90   24.30
 -11   2  -3   83.96   23.21
 -11  -2  -3   92.48   25.14
  11   2   4   36.53   17.36
 -11   2  -4   21.76    6.68
 -11  -2  -4   32.59   12.51
  11  -2   4   33.85   16.05
  11   2   5    9.83    8.98
 -11   2  -5   11.07    8.63
 -11  -2  -5    5.36    3.22
  11  -2   5   10.17    9.34
  11   2   6   -3.42    4.86
 -11   2  -6    5.64   10.00
 -11  -2  -6   13.74   10.54
  11  -2   6   -1.62    6.15
  11   2   7    3.18    6.51
 -11   2  -7    8.51   10.84
 -11  -2  -7   14.42   12.83
  11  -2   7    1.96    1.03
  11   2   8   27.92   15.74
  11  -2   8   21.39   15.06
 -11   2  -8   44.67   20.15
 -11  -2  -8   37.09   19.51
  11   2   9    8.09    8.77
  11  -2   9    0.48    8.54
 -11   2  -9   17.29   15.89
 -11  -2  -9   23.58   18.05
  11   2  10   49.62   22.49
  11  -2  10   49.94   22.60
 -11   2 -10   73.28   27.48
 -11  -2 -10   67.19   27.87
  11  -2  11   14.93   10.88
 -11   2 -11   56.24   28.03
 -11  -2 -11   45.18   24.85
 -11   2 -12   36.30   22.61
  11   3 -21   31.45   21.57
  11  -3 -20   47.76   21.30
  11   3 -20   57.63   25.74
  11  -3 -19   -6.54    7.66
  11   3 -19   38.39   23.16
  11  -3 -18   -2.55    8.23
  11   3 -18   16.55   16.85
  11  -3 -17    7.28    3.88
  11   3 -17   47.54   21.32
  11  -3 -16   -4.40    8.89
  11   3 -16    1.69    9.45
  11  -3 -15  -12.42   13.25
  11   3 -15    7.60    9.55
  11  -3 -14   10.28    8.16
  11   3 -14   21.88   13.94
  11  -3 -13   16.05    8.58
  11   3 -13   29.91   16.03
  11  -3 -12  258.14   38.20
  11   3 -12  240.87   36.32
  11  -3 -11   14.72    6.35
  11  -3 -11   10.11    2.33
  11   3 -11   25.76   12.76
  11  -3 -10   29.94   10.08
  11  -3 -10   20.08    7.96
  11   3 -10   46.65   17.08
  11  -3 -10    9.26   10.82
  11  -3  -9   13.90    7.30
  11  -3  -9    6.18    4.64
  11  -3  -8    0.48    2.46
  11  -3  -8   -9.50   10.75
  11  -3  -8  -11.83   12.07
  11  -3  -7    1.55    2.56
  11  -3  -7   -1.20    7.14
  11   3  -7  -17.14   17.31
  11  -3  -6   -2.39    5.14
  11  -3  -6   -7.40    8.15
  11   3  -6   -7.16   10.06
  11  -3  -6  -13.78   14.89
  11  -3  -5   -3.69    6.28
  11  -3  -5    3.42    1.92
  11   3  -5   -1.26   15.18
  11  -3  -5    1.79    5.09
  11   3  -4   88.37   21.59
  11  -3  -4   79.60   20.05
  11  -3  -4   85.11   12.85
  11  -3  -4  118.81   25.49
  11   3  -4   83.84   17.18
  11   3  -3   -0.24    7.38
  11  -3  -3    0.61    1.09
  11  -3  -3    1.62    1.74
  11   3  -3   -4.07    6.01
  11   3  -2   63.60   19.36
  11  -3  -2   57.84   17.89
  11   3  -2  109.03   23.08
  11  -3  -2  109.89   28.00
  11   3  -1   31.49   14.14
  11  -3  -1   27.78   13.05
  11   3   0  452.19   53.24
  11  -3   0  509.59   56.65
  11   3   1    7.43    8.42
 -11  -3  -1  -13.31   18.81
  11  -3   1    9.78    8.05
  11   3   2   27.37   14.45
 -11   3  -2    7.07   11.21
 -11  -3  -2   -4.30   15.61
  11  -3   2   13.00    7.92
  11   3   3   21.25   13.43
 -11   3  -3   12.44    5.88
 -11  -3  -3   19.57    8.12
  11  -3   3   17.35   10.12
  11   3   4    6.35    7.70
 -11   3  -4  -10.31   11.45
 -11  -3  -4   11.77    8.12
  11  -3   4   -1.09    9.10
  11   3   5   -0.15    3.05
 -11   3  -5    1.15    0.72
 -11  -3  -5    4.94    4.78
  11  -3   5   -5.00    9.20
  11   3   6    3.79    7.68
 -11   3  -6    1.80    6.00
 -11  -3  -6    6.83    8.63
  11  -3   6    1.02    5.74
  11   3   7    3.90   10.42
 -11   3  -7    7.42   11.90
 -11  -3  -7    9.67   10.48
  11  -3   7   -1.65    6.17
 -11   3  -8   21.13   13.76
 -11  -3  -8   41.73   20.95
  11  -3   8   13.03   13.01
  11  -3   9   10.01    9.46
 -11   3  -9   25.21   17.56
 -11  -3  -9   26.71   19.36
  11  -3  10   20.10   14.85
 -11   3 -10   46.45   24.47
 -11  -3 -10   24.17   17.69
  11  -3  11   11.89   10.29
 -11   3 -11   16.93   15.37
 -11  -3 -11   21.28   18.26
 -11   3 -12   38.70   22.74
  11  -4 -20   -6.76   11.48
  11   4 -20   32.87   20.40
  11  -4 -19   -3.53   13.80
  11   4 -19   61.73   26.28
  11  -4 -18   34.25   14.85
  11   4 -18   72.31   26.43
  11  -4 -17   18.08    6.68
  11   4 -17   59.33   25.24
  11  -4 -16   -1.72   12.34
  11   4 -16   25.53   18.37
  11  -4 -15   11.40    1.47
  11   4 -15   31.95   17.06
  11  -4 -14  -10.44   13.85
  11   4 -14   17.95   13.20
  11  -4 -13   -5.71    9.63
  11   4 -13   16.68   13.30
  11  -4 -12    3.38    3.60
  11  -4 -11    2.68    2.97
  11  -4 -11    4.81    4.96
  11  -4 -11  -12.42   19.17
  11  -4 -10   47.89   12.51
  11  -4 -10   55.36   16.36
  11  -4 -10   43.65   15.21
  11  -4  -9    4.41    3.59
  11  -4  -9    4.46    5.60
  11  -4  -9   -5.44   11.20
  11  -4  -8   95.06   19.89
  11  -4  -8  100.68   20.45
  11  -4  -8   87.73   17.86
  11  -4  -7   -0.76    2.75
  11  -4  -7    0.16    2.14
  11  -4  -6   17.88    7.42
  11  -4  -6   15.26    8.36
  11   4  -6    5.87    8.97
  11  -4  -5    8.21    6.11
  11  -4  -5    6.84    5.47
  11   4  -5   -9.01   11.11
  11  -4  -5   10.43    9.43
  11  -4  -4   19.39    6.37
  11  -4  -4   19.26   10.00
  11  -4  -4   43.85   18.68
  11  -4  -3   -3.80    4.36
  11  -4  -3   -2.39    2.83
  11   4  -3   -3.25    5.72
  11  -4  -2   -1.19    1.86
  11   4  -2    6.12    7.48
  11  -4  -1    2.13    4.55
  11   4  -1   54.39   18.59
  11   4   0   61.46   20.20
  11  -4   0   66.25   20.79
  11   4   1    9.08    9.66
  11  -4   1   -0.40    3.27
  11   4   2   13.52   11.56
 -11   4  -2   -7.45   15.98
 -11  -4  -2   -9.28   14.02
  11  -4   2    2.49    3.50
  11   4   3   -1.54    2.13
 -11   4  -3  -11.72   13.81
 -11  -4  -3   -4.63   12.74
  11  -4   3    3.87    7.34
  11   4   4   18.56   12.77
 -11   4  -4   11.79    3.74
 -11  -4  -4    6.53    1.37
  11  -4   4    8.34    6.47
 -11   4  -5   15.93    9.19
 -11  -4  -5   34.12   15.54
  11  -4   5   24.39   13.30
 -11   4  -6   33.57   15.43
 -11  -4  -6   34.03   17.17
  11  -4   6   23.67   13.72
 -11   4  -7    7.60    9.23
 -11  -4  -7    5.35   10.01
  11  -4   7   -1.08    6.86
 -11   4  -8   15.12   13.45
 -11  -4  -8   27.88   17.26
  11  -4   8    4.77    4.85
 -11   4  -9   29.36   17.03
 -11  -4  -9   14.33   15.44
  11  -4   9  -10.19   12.06
  11  -4  10   25.46   14.41
 -11   4 -10   67.25   25.35
 -11  -4 -10   45.20   24.10
  11  -4  11   -4.26    8.46
 -11   4 -11   21.01   17.91
 -11  -4 -11   31.92   22.92
 -11   4 -12   84.65   31.15
  11  -5 -20   -7.12   13.95
  11  -5 -19  -17.40   15.59
  11  -5 -18   -8.40   10.87
  11  -5 -17   -8.99   13.89
  11  -5 -16  -14.45   17.15
  11  -5 -15   -1.37   11.74
  11  -5 -14   58.06   18.78
  11  -5 -13   22.65   14.92
  11  -5 -12    0.15    6.48
  11  -5 -11   29.25    9.37
  11  -5 -11   33.58   14.08
  11  -5 -11   21.23    6.11
  11  -5 -10   15.61    9.21
  11  -5 -10    8.81    5.13
  11  -5 -10   -8.53   13.12
  11  -5  -9   62.75   15.56
  11  -5  -9   65.70   17.96
  11  -5  -9   62.47   19.09
  11  -5  -8   -2.94    3.27
  11  -5  -8    2.81    4.54
  11  -5  -7  141.12   25.04
  11  -5  -7  142.53   23.78
  11  -5  -7  111.13   24.38
  11  -5  -6   15.09    8.54
  11   5  -6   -8.20   12.48
  11  -5  -6   12.90    7.28
  11  -5  -6   -4.07    9.04
  11  -5  -5  119.59   24.55
  11  -5  -5  132.67   20.50
  11   5  -5  116.04   23.28
  11  -5  -5  124.70   26.99
  11  -5  -4    6.88    3.46
  11  -5  -4    3.55    4.03
  11  -5  -3  219.32   34.76
  11  -5  -3  204.81   21.17
  11   5  -3  186.47   28.87
  11  -5  -3  274.65   39.70
  11  -5  -2    3.91    5.57
  11   5  -2   21.39   10.86
  11  -5  -1   19.88    9.70
  11   5  -1   56.52   17.09
  11   5   0  167.65   27.61
  11  -5   0  106.28   25.72
 -11  -5  -1   -9.50   17.89
  11  -5   1    1.54    1.10
 -11   5  -2   55.99   16.63
  11  -5   2   63.93   20.96
 -11  -5  -2   45.29   13.63
 -11   5  -3   -1.51    8.00
 -11  -5  -3    0.78    8.61
  11  -5   3    4.48    2.52
 -11   5  -4   32.54   14.38
 -11  -5  -4   43.78   19.02
  11  -5   4   27.96   15.15
 -11   5  -5    1.45    6.63
 -11  -5  -5    2.12    6.96
  11  -5   5   -1.79    7.46
 -11   5  -6   55.45   19.62
 -11  -5  -6   74.69   25.28
  11  -5   6   57.70   21.85
 -11   5  -7   33.54   16.51
 -11  -5  -7   22.31   15.39
  11  -5   7   14.44   10.25
 -11   5  -8   37.49   18.34
 -11  -5  -8   22.29   16.44
  11  -5   8   16.66   11.82
 -11   5  -9   54.53   22.06
 -11  -5  -9   72.15   27.44
  11  -5   9   33.57   17.70
 -11   5 -10   37.14   20.36
 -11  -5 -10   25.01   18.14
  11  -5  10    5.06    6.18
 -11   5 -11   27.15   18.83
 -11   5 -12   37.17   22.35
  11  -6 -20   -8.08   12.72
  11  -6 -19   10.12    6.58
  11  -6 -18  -12.99   15.94
  11  -6 -17   67.62   22.23
  11  -6 -16   13.86   10.57
  11  -6 -15   34.56   17.47
  11  -6 -14    2.27    8.02
  11  -6 -13   -0.67    3.59
  11  -6 -12   17.77   10.22
  11  -6 -12   10.08   10.23
  11  -6 -11    6.02    4.27
  11  -6 -11    8.79    5.81
  11  -6 -11   -5.80   15.20
  11  -6 -10    5.49    3.61
  11  -6 -10    4.30    4.19
  11  -6 -10   -1.87   10.69
  11  -6  -9   -2.33    0.33
  11  -6  -9    0.52    0.37
  11  -6  -8    0.63    3.30
  11  -6  -8    2.84    2.76
  11  -6  -7   60.32   16.48
  11  -6  -7   68.66   16.50
  11  -6  -7   30.68   12.82
  11  -6  -6   20.37    7.84
  11  -6  -6   17.47    8.95
  11  -6  -6    4.12    3.87
  11  -6  -5   17.95    7.93
  11   6  -5    5.14    6.50
  11  -6  -5   24.28   11.09
  11  -6  -5   39.11   17.48
  11  -6  -4   -0.36    3.83
  11  -6  -4   -1.68    2.41
  11   6  -3   -2.38    4.78
  11  -6  -3    5.69    6.57
  11  -6  -2   15.78    9.66
  11   6  -2   24.52    8.80
  11  -6  -1   96.99   24.35
  11   6  -1  137.90   23.68
  11   6   0  109.79   22.18
  11  -6   0   39.78   16.25
 -11  -6  -1  -19.51   19.79
  11  -6   1    4.88    3.22
 -11  -6  -2  -16.36   16.15
  11  -6   2    8.20    6.14
 -11   6  -3   42.49   14.10
 -11  -6  -3   32.36   12.70
  11  -6   3   43.06   17.48
 -11   6  -4    5.66    2.53
 -11  -6  -4    3.57    3.73
  11  -6   4   14.91   10.08
 -11   6  -5   24.37   12.13
 -11  -6  -5    9.57    6.05
  11  -6   5   22.60   12.09
 -11   6  -6   14.51    9.89
 -11  -6  -6   23.85   15.87
  11  -6   6   20.90   14.11
 -11   6  -7   29.95   14.58
 -11  -6  -7   26.88   15.44
  11  -6   7   16.52   11.43
 -11   6  -8   19.54   14.49
 -11  -6  -8    8.76   11.86
  11  -6   8    7.12    8.62
 -11   6  -9   15.50   13.32
 -11  -6  -9    9.64   14.11
  11  -6   9    0.92    1.92
 -11   6 -10   24.53   18.67
 -11  -6 -10   26.50   20.19
  11  -6  10    2.93    4.62
 -11   6 -11   31.96   20.00
 -11   6 -12   28.30   20.50
  11  -7 -20   -7.50   15.47
  11  -7 -19   16.81    9.75
  11  -7 -18  -11.95   15.22
  11  -7 -17   10.11    9.89
  11  -7 -16    6.15    8.70
  11  -7 -15   -1.16    2.17
  11  -7 -14    9.53    9.55
  11  -7 -13   69.13   21.28
  11  -7 -13   40.40   14.48
  11  -7 -12   22.85   12.08
  11  -7 -12   -3.16   13.46
  11  -7 -11    8.19    7.39
  11  -7 -11   10.12    6.55
  11  -7 -11   -6.36   11.03
  11  -7 -10   42.17   12.60
  11  -7 -10   49.00   15.66
  11  -7 -10   48.13   17.47
  11  -7  -9    3.81    5.27
  11  -7  -9    8.21    6.06
  11  -7  -8    0.23    3.87
  11  -7  -8    1.25    2.51
  11  -7  -7   79.94   18.52
  11  -7  -7   86.35   20.06
  11  -7  -7   75.06   20.35
  11  -7  -6    7.08    6.08
  11  -7  -6    8.07    3.04
  11  -7  -6    1.95    5.47
  11  -7  -5   54.74   13.13
  11  -7  -5   55.16   17.28
  11   7  -5   48.81   13.82
  11  -7  -5   73.82   21.96
  11  -7  -4   18.81   11.40
  11   7  -4   13.79    6.39
  11  -7  -3  102.99   24.86
  11   7  -3  102.52   20.01
  11  -7  -3  171.76   34.25
  11  -7  -2   45.82   16.30
  11   7  -2   58.36   14.47
  11   7  -1   18.26   10.02
  11  -7  -1    7.86   10.11
  11   7   0   63.47   17.81
  11  -7   0    5.54    7.33
 -11  -7  -1   12.47    9.58
  11  -7   1   56.00   18.49
 -11  -7  -2   -4.39   14.52
  11  -7   2    4.35    4.32
 -11   7  -3   -9.32   14.05
 -11  -7  -3   -0.68    8.97
  11  -7   3    7.65    6.86
 -11   7  -4   -1.01    8.64
 -11  -7  -4    2.62    7.90
  11  -7   4    0.11    4.09
 -11   7  -5   -3.80    7.99
 -11  -7  -5    5.04    2.44
  11  -7   5    9.09    7.21
 -11   7  -6   -4.36    7.36
 -11  -7  -6  -11.37    8.72
  11  -7   6   -2.39    4.79
 -11   7  -7   30.42   14.42
 -11  -7  -7   36.18   19.29
  11  -7   7   32.42   17.49
 -11   7  -8   38.15   17.63
 -11  -7  -8   38.53   20.74
  11  -7   8   27.95   16.69
 -11   7  -9   84.32   26.82
 -11  -7  -9   86.63   31.05
  11  -7   9   53.38   22.04
 -11   7 -10   55.29   22.88
 -11  -7 -10   45.03   24.37
  11  -7  10   28.33   16.20
 -11   7 -11   17.37   15.65
 -11   7 -12   27.69   18.79
  11  -8 -20   15.81    6.99
  11  -8 -19  -23.36   20.33
  11  -8 -18    6.50   10.86
  11  -8 -17  109.90   31.21
  11  -8 -16   -0.50    0.79
  11  -8 -15   55.58   21.15
  11  -8 -15   33.68   13.88
  11  -8 -14   47.79   18.04
  11  -8 -14   31.28   12.52
  11  -8 -13   -4.03    4.19
  11  -8 -12   54.15   19.05
  11  -8 -12   25.85    5.59
  11  -8 -11   46.35   13.25
  11  -8 -11   47.33   18.19
  11  -8 -11   48.84   16.19
  11  -8 -10   62.09   17.75
  11  -8 -10   65.65   16.48
  11  -8 -10   40.36   11.57
  11  -8  -9   31.77   11.78
  11  -8  -9   31.04   12.67
  11  -8  -9   13.78    8.12
  11  -8  -8    1.10    1.12
  11  -8  -8   -2.65    6.51
  11  -8  -7   50.99   15.60
  11  -8  -7   45.57   15.90
  11  -8  -6    5.61    5.65
  11  -8  -6    8.68    6.72
  11  -8  -5    9.08   10.93
  11  -8  -5    1.28    3.55
  11   8  -5   -8.11   13.35
  11  -8  -4   20.55   10.68
  11   8  -4   18.87    6.00
  11  -8  -3   32.13   13.11
  11   8  -3   12.45    5.16
  11  -8  -2  108.11   26.30
  11   8  -2   99.12   19.29
  11   8  -1   29.76   12.00
  11  -8  -1   -0.15    0.65
  11   8   0   45.72   14.78
  11  -8   0   -0.78    3.20
  11  -8   1    7.06    7.37
 -11  -8  -2  -11.51   17.58
  11  -8   2    6.12    8.10
 -11   8  -3    2.64   10.62
 -11  -8  -3   -6.16   13.84
  11  -8   3   14.63   10.55
 -11   8  -4   -4.48   11.69
  11  -8   4    8.16   10.16
 -11  -8  -4   -0.93    8.51
 -11   8  -5   21.54    8.96
 -11  -8  -5   26.36   13.99
  11  -8   5   26.70   16.02
 -11   8  -6    2.48    1.80
 -11  -8  -6    6.19    8.75
  11  -8   6    5.93    6.96
 -11   8  -7   48.81   18.32
 -11  -8  -7   57.35   25.16
  11  -8   7   44.86   19.13
 -11   8  -8   12.83   10.64
  11  -8   8   -0.58    4.14
 -11   8  -9   21.35   15.14
 -11  -8  -9   22.03   17.58
  11  -8   9    8.72    9.40
 -11   8 -10   44.70   21.61
  11  -8  10   15.28   13.60
  11  -9 -19   13.20   12.76
  11  -9 -18   14.77   13.87
  11  -9 -17   37.81   19.46
  11  -9 -16    8.11    4.58
  11  -9 -16   -7.31   15.23
  11  -9 -15    6.28    6.70
  11  -9 -15   -7.19   13.65
  11  -9 -14   14.77   11.32
  11  -9 -14   -4.09    9.87
  11  -9 -13   -0.36    3.75
  11  -9 -13   -8.40   13.11
  11  -9 -12    1.95    2.99
  11  -9 -12   -9.15   11.53
  11  -9 -11    9.95    6.58
  11  -9 -11   17.94   11.04
  11  -9 -11   -7.33   15.87
  11  -9 -10   90.75   23.36
  11  -9 -10   99.52   20.39
  11  -9 -10   65.80   18.29
  11  -9  -9   -0.63    2.96
  11  -9  -9   -7.41    8.76
  11  -9  -8    8.28    6.25
  11  -9  -8   -6.13   10.48
  11  -9  -7   11.14    8.38
  11  -9  -7   10.85    9.75
  11  -9  -6   30.20   13.11
  11  -9  -6   27.89   14.81
  11  -9  -5    0.19    2.33
  11   9  -5  -11.60   13.39
  11  -9  -4    1.49    2.70
  11   9  -4   -1.99    7.68
  11  -9  -3    5.21    6.18
  11   9  -3   -8.02   10.33
  11  -9  -2   -3.49    5.53
  11   9  -2   -0.95    3.66
  11  -9  -1   39.33   16.81
  11   9  -1   60.29   15.61
  11   9   0   83.10   18.04
  11  -9   0   38.41   16.69
  11  -9   1    6.29    6.16
  11  -9   2   53.43   19.14
 -11  -9  -2   32.15    8.25
  11  -9   3    6.21    6.58
 -11  -9  -3    1.16   12.27
 -11   9  -4   62.06   17.58
 -11  -9  -4   43.03   16.96
  11  -9   4   73.58   25.27
 -11   9  -5   -8.85   10.76
 -11  -9  -5   -8.35   11.52
  11  -9   5    2.18    2.39
 -11   9  -6    2.73    9.47
 -11  -9  -6    4.66    5.22
  11  -9   6   14.59   11.52
 -11   9  -7   15.81    8.67
 -11  -9  -7   27.03   17.06
  11  -9   7    9.14    7.90
 -11   9  -8    0.84    2.21
 -11  -9  -8    6.65    8.31
  11  -9   8   -1.11    4.31
 -11  -9  -9   29.39   19.37
  11  -9   9   21.14   14.08
  11 -10 -19    7.82   12.48
  11 -10 -18    6.96   10.83
  11 -10 -18  -12.14   17.83
  11 -10 -17   37.88   18.10
  11 -10 -17   14.36    4.37
  11 -10 -16    9.83    8.26
  11 -10 -16   -4.21   14.14
  11 -10 -15   -5.56   10.14
  11 -10 -15  -11.90   14.59
  11 -10 -14   53.20   19.20
  11 -10 -14   40.38   16.39
  11 -10 -13   -3.33    2.16
  11 -10 -13   -7.21   11.08
  11 -10 -12    8.32    7.97
  11 -10 -11    9.88    5.51
  11 -10 -11    4.88    3.03
  11 -10 -11   -8.82   15.40
  11 -10 -10   98.79   21.04
  11 -10 -10   71.25   19.71
  11 -10  -9    6.16    5.95
  11 -10  -9  -17.81   11.35
  11 -10  -8   87.30   20.98
  11 -10  -8   83.05   22.87
  11 -10  -7    1.98    3.81
  11 -10  -7    7.15    8.67
  11 -10  -6   60.14   21.52
  11 -10  -6   48.13   16.40
  11 -10  -5   41.86   19.98
  11 -10  -5    7.45    5.38
  11 -10  -4    1.26    0.99
  11  10  -4   -2.44    9.89
  11 -10  -3    5.55    6.38
  11  10  -3   -9.24   11.16
  11 -10  -2   72.41   22.28
  11  10  -2   78.92   15.95
  11 -10  -1    6.60    5.70
  11  10  -1   26.24   10.79
  11 -10   0   43.13   17.50
  11 -10   1   26.21   14.39
  11 -10   2   12.07   10.26
 -11 -10  -2  -40.51   18.93
  11 -10   3    6.18    6.80
 -11 -10  -3  -19.74   21.37
  11 -10   4   -0.57    2.68
 -11  10  -4  -15.95   14.77
 -11 -10  -4  -11.37   16.39
 -11  10  -5   17.19    5.23
 -11 -10  -5   27.04   12.04
  11 -10   5   42.32   17.97
 -11  10  -6   -0.69    9.67
 -11 -10  -6    9.09    9.16
  11 -10   6    3.83    7.09
 -11 -10  -7    4.73    9.80
  11 -10   7    3.44    8.34
 -11 -10  -8   15.04   13.22
  11 -10   8    6.13   10.67
 -11 -10  -9   33.40   22.74
  11 -10   9   10.59   11.43
  11 -11 -19   -1.24    5.11
  11 -11 -19  -10.03   18.15
  11 -11 -18   22.32   15.03
  11 -11 -18    2.41    9.94
  11 -11 -17    6.00   10.91
  11 -11 -17   -7.63   15.36
  11 -11 -16   21.60   12.64
  11 -11 -16   12.46    4.82
  11 -11 -15   26.76   13.89
  11 -11 -15   14.77    7.46
  11 -11 -14   18.16   14.30
  11 -11 -14   26.44   10.41
  11 -11 -13    0.06    4.29
  11 -11 -13  -27.10   19.15
  11 -11 -12    0.00    6.74
  11 -11 -11   17.85    9.65
  11 -11 -11    3.42   14.61
  11 -11 -10   33.84   12.51
  11 -11 -10   23.72    9.91
  11 -11  -9    5.79    5.44
  11 -11  -9   -3.79    7.53
  11 -11  -8   12.15    8.76
  11 -11  -8    6.83    7.10
  11 -11  -7   57.42   18.06
  11 -11  -7   74.08   23.03
  11 -11  -6   18.10   10.10
  11 -11  -6   71.05   23.83
  11 -11  -5   43.27   15.84
  11 -11  -5  107.87   28.59
  11 -11  -4   -1.08    4.77
  11  11  -4   -4.13    9.44
  11 -11  -3   68.53   20.95
  11  11  -3   57.52   11.04
  11 -11  -2   24.86   12.48
  11  11  -2   21.30    7.61
  11 -11  -1   11.39    8.47
  11 -11   0    5.80    7.84
  11 -11   1    3.62    4.17
  11 -11   2   58.21   22.13
 -11 -11  -2   51.34   15.20
  11 -11   3    6.79    8.18
 -11 -11  -3  -18.25   12.97
  11 -11   4   -1.13    3.01
 -11 -11  -4  -25.84   15.60
  11 -11   5    6.89    7.70
 -11 -11  -5  -27.18   16.22
 -11 -11  -6   -5.25    8.49
  11 -11   6    9.78   10.15
 -11 -11  -7   68.11   25.62
  11 -11   7   55.03   22.83
 -11 -11  -8   20.65   15.96
  11 -11   8   21.23   14.68
  11 -11   9   62.78   25.59
  11 -12 -19   12.39   13.18
  11 -12 -19   -6.32   15.74
  11 -12 -18    8.95   10.65
  11 -12 -18  -13.24   16.22
  11 -12 -17   25.47   15.22
  11 -12 -17    8.07    6.11
  11 -12 -16   13.66   11.18
  11 -12 -16    6.42    7.61
  11 -12 -15  129.62   33.39
  11 -12 -15  145.19   35.77
  11 -12 -14    0.75    6.18
  11 -12 -14  -19.75   20.32
  11 -12 -13    9.18    7.77
  11 -12 -13  -17.26   19.94
  11 -12 -11   12.93    7.97
  11 -12 -11  -20.63   21.22
  11 -12 -10   13.69    8.78
  11 -12 -10    0.52    6.79
  11 -12  -9   12.42    7.85
  11 -12  -9   15.29   11.32
  11 -12  -8    6.12    6.48
  11 -12  -8   11.43   10.05
  11 -12  -7  171.51   34.80
  11 -12  -7  124.52   26.62
  11 -12  -6   44.51   22.27
  11 -12  -6    6.00    7.43
  11 -12  -5    2.92    3.58
  11 -12  -5   69.94   26.40
  11 -12  -4    1.92    5.70
  11  12  -4   -4.60    9.11
  11 -12  -3    6.06    7.17
  11  12  -3  -10.65   11.97
  11 -12  -2   48.07   18.26
  11 -12  -1   24.00   13.77
  11 -12   0    5.26    3.37
  11 -12   1   28.66   14.55
  11 -12   2    4.56    7.81
 -11 -12  -3   82.52   22.88
  11 -12   3   85.17   26.81
  11 -12   4    5.95    6.38
 -11 -12  -4  -14.36   15.14
 -11 -12  -5   72.95   24.68
  11 -12   5   79.84   26.57
  11 -12   6    8.17    9.57
 -11 -12  -6   -3.60    9.93
 -11 -12  -7   42.90   20.51
  11 -12   7   31.74   16.91
 -11 -12  -8    0.68    5.77
  11 -12   8    2.09    7.60
  11 -13 -19   -5.74   12.47
  11 -13 -18    9.43    9.21
  11 -13 -18   -1.79   10.73
  11 -13 -17    2.49    2.24
  11 -13 -17   -2.81   10.25
  11 -13 -16    0.43    1.78
  11 -13 -16    0.81   11.19
  11 -13 -15    1.18    5.21
  11 -13 -15  -19.66   18.74
  11 -13 -14   29.29   15.26
  11 -13 -14   18.46    4.21
  11 -13 -13  -10.49   16.62
  11 -13 -12   -3.45    8.80
  11 -13 -11   15.37    9.00
  11 -13 -11   -6.10   11.01
  11 -13 -10   33.31   12.93
  11 -13 -10   33.01   12.91
  11 -13  -9    2.89    5.52
  11 -13  -9    7.47    8.53
  11 -13  -8   32.54   16.95
  11 -13  -8   14.03    7.64
  11 -13  -7   76.61   20.88
  11 -13  -7  111.14   29.21
  11 -13  -6    5.86    5.63
  11 -13  -6   51.20   22.75
  11 -13  -5  225.50   40.71
  11 -13  -5  150.62   31.13
  11 -13  -4   25.71   13.48
  11  13  -4   16.11    4.29
  11  13  -3   69.09   15.67
  11 -13  -3   81.85   24.20
  11 -13  -2   50.66   20.12
  11 -13  -1    2.21    3.62
  11 -13   0   22.36   13.54
  11 -13   1   24.43   14.66
 -11 -13  -2   -5.14   19.37
  11 -13   2   21.61   13.36
  11 -13   3    6.21    7.30
 -11 -13  -3  -25.84   15.72
  11 -13   4   -3.84    7.50
 -11 -13  -4  -37.31   19.09
  11 -13   5   -2.52    5.80
 -11 -13  -5   -4.26   12.48
  11 -13   6    4.40    9.03
 -11 -13  -6   -7.82    9.00
  11 -13   7   41.61   21.00
 -11 -13  -7   26.50   17.74
 -11 -13  -8    9.67   10.95
  11 -13   8   -3.79    6.87
  11 -14 -19  -14.06   17.86
  11 -14 -18   -6.44   13.64
  11 -14 -18    3.35    9.40
  11 -14 -17    9.13    7.63
  11 -14 -17   -7.24   14.06
  11 -14 -16   12.36    8.03
  11 -14 -16   -9.32   17.27
  11 -14 -15   55.22   21.90
  11 -14 -15   45.95   17.03
  11 -14 -14   -4.21    8.43
  11 -14 -14  -22.30   14.21
  11 -14 -13  -14.52   15.22
  11 -14 -12   -6.76   11.83
  11 -14 -11    5.85    6.10
  11 -14 -11   10.51    9.92
  11 -14 -10   98.65   22.99
  11 -14 -10   95.81   26.84
  11 -14  -9  170.50   31.02
  11 -14  -9  161.15   34.01
  11 -14  -8   30.38   17.86
  11 -14  -8    0.65    3.26
  11 -14  -7   57.94   24.46
  11 -14  -7   11.77    7.07
  11 -14  -6   24.03   12.82
  11 -14  -6   92.26   28.93
  11 -14  -5    2.88    3.58
  11  14  -4   -1.52    9.18
  11 -14  -4    1.81    4.19
  11 -14  -3    5.55    5.55
  11 -14  -2   56.30   20.63
  11 -14  -1   15.67   11.66
  11 -14   0   16.79   12.60
  11 -14   1    6.76    6.18
 -11 -14  -2   -8.57   18.93
  11 -14   2    8.24    9.61
 -11 -14  -3  -19.78   18.92
  11 -14   3   11.15   10.31
  11 -14   4   15.27   10.31
 -11 -14  -4  -14.09   17.13
  11 -14   5    7.12    6.00
 -11 -14  -5   -5.52   11.56
  11 -14   6    6.90   11.03
 -11 -14  -6    1.98    2.61
  11 -14   7   20.72   14.89
 -11 -14  -7    4.37    6.64
  11 -15 -18   -0.84   13.96
  11 -15 -17    3.69    4.00
  11 -15 -17  -12.28   17.58
  11 -15 -16   -0.37    2.12
  11 -15 -16  -13.88   17.66
  11 -15 -15    4.35    6.32
  11 -15 -15  -14.31   17.15
  11 -15 -14   14.29    4.61
  11 -15 -13   12.45    8.29
  11 -15 -12   86.77   24.89
  11 -15 -11    6.58    6.65
  11 -15 -11    0.31    4.45
  11 -15 -10   57.42   17.97
  11 -15 -10   87.98   26.45
  11 -15  -9   31.58   18.32
  11 -15  -9    8.78    7.10
  11 -15  -8   39.68   16.05
  11 -15  -8   66.17   23.92
  11 -15  -7   43.68   16.31
  11 -15  -7  122.95   32.43
  11 -15  -6  101.01   29.60
  11 -15  -6   28.16   12.36
  11 -15  -5   15.81    7.80
  11 -15  -4    8.60    8.61
  11 -15  -3    6.94    6.67
  11 -15  -2    5.01    2.79
  11 -15  -1    5.75    6.51
  11 -15   0  102.38   29.31
  11 -15   1   57.73   23.09
  11 -15   2  151.70   35.84
 -11 -15  -3    7.81   12.08
  11 -15   3   23.82   13.17
 -11 -15  -4   -5.17   13.91
  11 -15   4    9.46    9.63
  11 -15   5   -3.00    2.70
 -11 -15  -5  -11.10   14.42
  11 -15   6   11.03   12.02
 -11 -15  -6  -21.13   15.02
  11 -15   7   12.40    9.91
 -11 -15  -7    8.30   11.62
  11 -16 -18  -13.05   18.25
  11 -16 -17   -7.71    8.90
  11 -16 -17  -32.53   18.25
  11 -16 -16    4.76    6.58
  11 -16 -16  -13.95   15.75
  11 -16 -15  -13.79   15.42
  11 -16 -14   13.43    5.93
  11 -16 -13    9.09    7.45
  11 -16 -12    4.51    6.49
  11 -16 -11   14.12   10.49
  11 -16 -10   48.35   20.38
  11 -16 -10   23.56   11.21
  11 -16  -9   47.42   21.86
  11 -16  -9    6.97    7.43
  11 -16  -8   72.57   21.28
  11 -16  -8  126.17   32.22
  11 -16  -7   58.84   25.80
  11 -16  -7   -2.49    5.43
  11 -16  -6   29.71   13.57
  11 -16  -5   48.06   19.18
  11 -16  -4   66.80   21.81
  11 -16  -3   -2.48    5.64
  11 -16  -2    1.24    4.93
  11 -16  -1    3.21    4.63
  11 -16   0  112.09   30.22
  11 -16   1   25.04   14.76
  11 -16   2   -2.21    6.18
 -11 -16  -3  -12.16   17.14
  11 -16   3   -1.51    5.75
 -11 -16  -4  -38.93   20.08
  11 -16   4    1.06    2.48
 -11 -16  -5  -15.65   15.45
  11 -16   5   -6.16    9.17
  11 -16   6    4.97    5.96
 -11 -16  -6  -12.74   15.05
  11 -17 -17   -7.36   14.52
  11 -17 -16  -15.89   15.37
  11 -17 -16   -8.38   14.08
  11 -17 -15   -4.36    5.77
  11 -17 -14   34.61   15.31
  11 -17 -13   17.39   10.83
  11 -17 -12   10.14   10.29
  11 -17 -11   16.45   12.33
  11 -17 -10   31.62   17.61
  11 -17 -10   17.06    9.33
  11 -17  -9   44.73   22.91
  11 -17  -9   -0.54    5.73
  11 -17  -8    1.53    4.13
  11 -17  -8   69.29   26.36
  11 -17  -7  110.39   32.48
  11 -17  -7    7.89    7.52
  11 -17  -6   15.00    8.62
  11 -17  -5   39.89   16.88
  11 -17  -4   50.02   19.58
  11 -17  -3   43.05   17.86
  11 -17  -2    3.82    5.28
  11 -17  -1   33.64   16.94
  11 -17   0   48.43   19.68
  11 -17   1   -1.72    6.33
  11 -17   2   25.24   15.26
 -11 -17  -3  -15.07   18.65
  11 -17   3    1.22    6.06
 -11 -17  -4  -40.04   20.53
  11 -17   4    5.24    9.39
  11 -17   5   -1.90    6.44
 -11 -17  -6   -7.52   15.35
  11 -18 -17  -10.54   12.73
  11 -18 -16    3.52    5.72
 -11  18  15    1.76    8.28
  11 -18 -15    6.29    8.92
 -11  18  14   -1.50    8.91
  11 -18 -14    6.41    7.75
  11 -18 -13   46.44   21.48
  11 -18 -12   12.38   12.07
  11 -18 -11   22.15   15.41
  11 -18 -10   48.33   22.48
  11 -18 -10   -7.33    7.55
  11 -18  -9   45.68   21.47
  11 -18  -9    6.11    7.86
  11 -18  -8   78.44   28.28
  11 -18  -8    4.51    1.71
  11 -18  -7    4.57    7.83
  11 -18  -6    6.98    7.27
  11 -18  -5   25.38   14.55
  11 -18  -4   13.43   10.62
  11 -18  -3   -2.02    4.90
  11 -18  -2   -0.50    5.69
  11 -18  -1   14.08    9.42
  11 -18   0   13.48    8.69
  11 -18   1   -2.88    6.93
  11 -18   2    3.33    0.87
  11 -18   3   16.10   12.37
 -11 -18  -4  -17.55   20.14
  11 -18   4   -3.71    7.26
 -11 -18  -5  -10.44   18.51
  11 -18   5   17.43   12.94
  11 -19 -16    0.51    4.98
  11 -19 -15   21.50   15.72
 -11  19  14    7.13    6.45
  11 -19 -14   31.93   17.30
  11 -19 -13   11.96   13.43
 -11  19  13   -5.66    8.37
  11 -19 -12   60.70   22.69
  11 -19 -11   52.12   22.00
  11 -19 -10   74.55   26.12
  11 -19 -10   13.61    9.27
  11 -19  -9   82.31   27.27
  11 -19  -9    7.18    7.12
  11 -19  -8   -3.03    6.60
  11 -19  -7   21.97   12.36
  11 -19  -6    7.30    6.07
  11 -19  -5   72.47   23.73
  11 -19  -4   10.87    6.84
  11 -19  -3    4.32    5.18
  11 -19  -2   22.68   14.52
  11 -19  -1   12.66   10.30
  11 -19   0   15.30   12.90
  11 -19   1    2.44    4.13
  11 -19   2   -1.87    6.94
  11 -19   3    4.94   10.99
 -11 -19  -4  -24.56   24.83
  11 -19   4    5.63   10.16
 -11 -19  -5  -18.02   20.83
  11 -20 -16   17.18   15.09
  11 -20 -15   47.58   21.80
  11 -20 -14   28.78   16.35
  11 -20 -13   44.82   22.23
 -11  20  13    7.57    5.92
  11 -20 -12   58.42   24.38
 -11  20  12   -1.80    8.38
  11 -20 -11   73.21   25.14
  11 -20 -10   76.49   26.77
  11 -20 -10    3.62    6.78
  11 -20  -9   14.80   12.00
  11 -20  -8   10.75    9.01
  11 -20  -7   -1.69    3.06
  11 -20  -6    6.42    7.41
  11 -20  -5    8.07    9.64
  11 -20  -4   -1.73    4.99
  11 -20  -3    2.23    2.28
  11 -20  -2    2.58    2.84
  11 -20  -1   -6.99    8.16
  11 -20   0    8.69    8.56
  11 -20   1   10.10    6.33
  11 -20   2    0.66    4.97
  11 -20   3    4.19    8.20
  11 -21 -15   21.44   17.00
  11 -21 -14   52.20   22.95
  11 -21 -13   43.03   23.10
 -11  21  12  148.40   42.67
  11 -21 -12  211.76   43.74
  11 -21 -11  100.06   30.00
 -11  21  11   -1.25    6.99
  11 -21 -10   49.53   20.28
  11 -21  -9    8.53    6.63
  11 -21  -8    6.22    6.34
  11 -21  -7    4.95    3.52
  11 -21  -6   11.96    9.54
  11 -21  -5    2.14    1.31
  11 -21  -4    1.86    5.74
  11 -21  -3   17.25   11.40
  11 -21  -2   28.53   15.33
  11 -21  -1   10.67   10.71
  11 -21   0   13.88    9.25
  11 -21   1    1.25    4.75
  11 -21   2   45.01   20.97
  11 -22 -14   65.37   25.44
  11 -22 -13   43.67   22.36
  11 -22 -12   82.21   28.60
 -11  22  10   -5.81   10.93
  11 -22 -10   -6.39    9.01
  11 -22  -9   37.11   16.95
  11 -22  -8   44.33   19.90
  11 -22  -7    2.72    5.93
  11 -22  -6   25.75   15.34
  11 -22  -5    3.61    7.48
  11 -22  -4    9.68   10.70
  11 -22  -3    3.64    6.29
  11 -22  -2   23.41   14.48
  11 -22  -1    0.68    5.46
  11 -22   0    5.70    8.72
  11 -22   1   -1.69    9.30
  11 -23 -13   63.39   28.33
  11 -23  -9    8.70    9.41
  11 -23  -8    7.28    9.42
  11 -23  -7    8.69    9.62
  11 -23  -6   11.37    9.70
  11 -23  -5   36.98   18.78
  11 -23  -4   -0.49    2.49
  11 -23  -3   20.71   13.11
  11 -23  -2    3.28    4.14
  11 -23  -1   -2.09    3.04
  11 -24  -9   11.80   10.52
  11 -24  -8   21.67   14.98
  11 -24  -7    3.98    7.86
  11 -24  -6    0.06    4.81
  11 -24  -5    2.18    9.01
  11 -24  -4   11.00   13.39
  11 -24  -3    4.42    8.85
  11 -24  -2   12.59   10.57
  11 -25  -9    2.65    4.58
  11 -25  -8   -1.22    2.39
  11 -25  -7    7.30    8.57
  11 -25  -6   25.57   15.63
  11 -25  -5   65.28   25.57
  11 -25  -4   17.85   13.24
  11 -26  -9   13.00   11.15
  11 -26  -8   -0.05    3.46
  11 -26  -7    3.37    5.30
  12   0 -20   23.29   16.08
  12   0 -19    4.40   12.88
  12   0 -18   44.11   20.54
  12   0 -17    5.78    8.72
  12   0 -16   91.30   26.05
  12   0 -15   -5.42    7.00
  12   0 -14  201.54   36.84
  12   0 -13    6.55    8.26
  12   0 -12   25.73   13.32
  12   0 -11    6.14    7.99
  12   0 -10   57.44   16.71
  12   0  -9    3.79    6.07
  12   0  -9   -6.65   12.43
  12   0  -8  193.94   29.52
  12   0  -8  202.31   27.90
  12   0  -8  191.11   36.58
  12   0  -7    1.90    3.23
  12   0  -7    8.47    6.81
  12   0  -6   72.04   19.73
  12   0  -6   56.57   14.96
  12   0  -5   -2.24    6.37
  12   0  -5   -8.05   10.05
  12   0  -4   24.03   12.42
  12   0  -4   36.00   15.34
  12   0  -3   17.26   13.06
  12   0  -3    1.45    4.27
  12   0  -2  267.06   41.78
  12   0  -2  320.81   41.89
  12   0  -1   -3.90    3.49
  12   0   0   55.02   20.04
  12   0   1   -5.24    6.67
 -12   0  -2   -6.22   14.42
  12   0   2   15.40    9.81
 -12   0  -3   -4.54   12.82
  12   0   3    1.82    7.33
  12   0   4   53.25   20.68
 -12   0  -4   42.77   16.46
  12   0   5    4.14    4.68
 -12   0  -5   -8.44   12.19
  12   0   6    3.80    5.87
 -12   0  -6   -4.36    5.44
  12   0   7    7.02    9.74
 -12   0  -7    8.20   10.92
  12   0   8   13.38   14.03
 -12   0  -8    9.11   11.24
  12   0   9    6.40   11.54
 -12   0  -9   34.30   22.92
 -12   0 -10   25.41   19.43
  12  -1 -20    2.04    6.56
  12   1 -20   16.17   14.93
  12  -1 -19   32.09   18.69
  12   1 -19   50.21   22.89
  12  -1 -18   45.84   20.23
  12   1 -18   46.30   21.19
  12  -1 -17   13.54   12.16
  12   1 -17   20.28   17.29
  12  -1 -16    1.42    4.58
  12   1 -16    6.56    8.21
  12  -1 -15   26.76   13.17
  12   1 -15   51.41   20.03
  12   1 -14  105.52   26.77
  12  -1 -14   81.94   23.07
  12  -1 -13    5.97    7.60
  12   1 -13   11.40    7.88
  12  -1 -12   58.77   17.30
  12   1 -12   55.90   18.22
  12  -1 -11   12.41    8.77
  12   1 -11   18.13   11.18
  12  -1 -10   55.43   14.89
  12  -1 -10   63.33   16.79
  12   1 -10   71.37   19.00
  12  -1 -10   17.89    5.22
  12  -1  -9    9.70    6.16
  12  -1  -9    3.38    3.09
  12   1  -9   18.48   11.07
  12   1  -9   -4.91   14.14
  12  -1  -9   -6.05   12.49
  12  -1  -8   27.23   11.88
  12  -1  -8   27.12   10.76
  12   1  -8   36.97   12.61
  12   1  -8   14.59    5.10
  12  -1  -8   19.21    9.44
  12   1  -7    2.28    5.45
  12  -1  -7   -2.05    4.21
  12  -1  -7    1.81    4.02
  12   1  -7  -12.68   12.45
  12  -1  -7  -21.23   18.01
  12   1  -6    6.12    7.31
  12  -1  -6    1.61    1.55
  12  -1  -6    7.31    6.24
  12   1  -6  -12.83   16.73
  12  -1  -6  -15.54   13.66
  12   1  -5   13.67    9.19
  12  -1  -5   18.42    9.71
  12   1  -5   13.96    3.04
  12  -1  -5   13.65    8.63
  12   1  -4   57.12   18.12
  12  -1  -4   52.43   17.06
  12   1  -4   61.00   17.61
  12  -1  -4   72.88   21.03
  12  -1  -3   27.51   14.88
  12   1  -3    9.02    8.36
  12  -1  -3    4.31    3.93
  12   1  -3   21.91   14.45
  12   1  -2   47.08   17.64
  12  -1  -2   31.48   13.04
  12   1  -2   63.84   19.49
  12   1  -1   15.14   10.80
  12  -1  -1   10.82    8.85
  12   1   0   12.97    9.56
  12  -1   0    5.77    6.16
  12   1   1   21.90   13.58
  12  -1   1   15.53   10.28
 -12   1  -2   13.65   14.03
 -12  -1  -2   22.26    8.43
  12   1   2   38.37   18.08
  12  -1   2   37.78   16.86
  12   1   3   55.56   21.70
 -12   1  -3   37.71   12.77
 -12  -1  -3   38.51   12.62
  12  -1   3   52.10   20.36
  12   1   4    1.14    4.22
 -12   1  -4   -1.66   11.71
 -12  -1  -4   -8.46   14.16
  12  -1   4    6.28   10.95
  12   1   5   -1.36    4.36
 -12   1  -5  -14.54   14.91
  12  -1   5   -0.84    3.45
 -12  -1  -5  -10.99   13.14
  12   1   6   18.55   11.38
  12  -1   6   19.05   10.92
 -12   1  -6    8.84    6.47
 -12  -1  -6    6.40    5.48
  12   1   7    3.52    7.76
  12  -1   7   -6.46    8.41
 -12   1  -7   -0.66    1.39
 -12  -1  -7   12.80   13.48
  12   1   8   94.99   31.33
  12  -1   8   94.92   29.81
 -12   1  -8   74.74   26.22
 -12  -1  -8  104.09   31.23
  12   1   9   22.34   16.54
  12  -1   9   19.51   16.01
 -12   1  -9   15.77   11.47
 -12  -1  -9   23.52   16.96
 -12   1 -10  100.25   32.32
 -12  -1 -10   91.28   30.87
  12  -2 -20    3.06    7.71
  12   2 -20   25.30   18.42
  12  -2 -19   31.20   17.03
  12   2 -19   51.77   22.79
  12  -2 -18   -4.64    6.17
  12   2 -18   14.91   14.40
  12  -2 -17   -3.93   11.76
  12   2 -17   18.57   16.39
  12  -2 -16    7.07    2.31
  12   2 -16   23.85   16.74
  12  -2 -15  107.50   27.55
  12   2 -15  128.57   30.85
  12  -2 -14   20.65    9.10
  12   2 -14   33.75   15.60
  12  -2 -13    1.98    5.00
  12   2 -13    8.47    8.54
  12  -2 -12    0.10    2.26
  12   2 -12    4.81    8.27
  12  -2 -11    4.71    6.41
  12  -2 -11   -5.31    7.03
  12   2 -11    9.28    9.67
  12  -2 -11   -9.93   17.03
  12  -2 -10    5.12    6.50
  12  -2 -10   -5.10    6.05
  12   2 -10    9.99    9.06
  12  -2 -10  -10.83   14.71
  12  -2  -9  105.75   21.40
  12  -2  -9  100.96   20.62
  12  -2  -9   84.14   22.67
  12  -2  -8   15.00    8.28
  12  -2  -8   17.11    7.73
  12   2  -8    4.99   11.39
  12  -2  -8   -4.37   13.84
  12  -2  -7   78.17   19.76
  12  -2  -7   90.48   17.33
  12   2  -7   74.76   20.86
  12  -2  -7   54.85   15.62
  12  -2  -6    2.06    2.98
  12  -2  -6    1.10    3.68
  12   2  -6  -18.35   16.13
  12  -2  -6  -15.76   14.92
  12   2  -5   18.24   10.66
  12  -2  -5    8.43    5.42
  12   2  -5   -4.02    9.97
  12  -2  -5   13.54    8.88
  12   2  -4    3.79    7.11
  12  -2  -4    1.91    1.17
  12  -2  -4    5.79    6.73
  12   2  -3   11.81    8.39
  12  -2  -3    5.99    3.62
  12   2  -3   16.61   10.21
  12   2  -2   18.65   12.28
  12  -2  -2   17.80    9.49
  12   2  -1   12.00   10.23
  12  -2  -1    6.62    3.26
  12   2   0   37.69   16.21
  12  -2   0   30.37   14.45
  12   2   1   -3.29    5.71
  12  -2   1   10.96   10.30
  12   2   2    3.01    4.99
 -12  -2  -2  -11.41   18.87
  12  -2   2   -1.63    6.63
  12   2   3    7.96    8.66
 -12   2  -3  -24.45   20.40
 -12  -2  -3  -28.54   19.43
  12  -2   3    2.50    3.81
  12   2   4    1.06    6.08
 -12   2  -4   -6.03   15.29
 -12  -2  -4  -13.17   15.31
  12  -2   4   -0.65    2.27
  12   2   5   37.85   19.84
 -12   2  -5   30.12   12.83
 -12  -2  -5   13.94    3.97
  12  -2   5   33.00   17.21
  12   2   6    0.29    9.66
 -12   2  -6   -8.59   12.93
 -12  -2  -6   -4.93    5.29
  12  -2   6    0.96    3.15
  12   2   7   38.53   18.81
  12  -2   7   29.19   16.25
 -12   2  -7   36.25   16.69
 -12  -2  -7   31.06   17.19
  12   2   8    9.47   10.75
  12  -2   8    0.16    4.27
 -12   2  -8   13.48   12.69
 -12  -2  -8    0.06    4.50
  12  -2   9   11.41   11.16
 -12   2  -9   26.83   17.62
 -12  -2  -9   19.82   15.35
 -12   2 -10   18.37   16.02
  12  -3 -20    5.83    7.39
  12   3 -20   36.04   21.01
  12  -3 -19   26.71   15.84
  12   3 -19   76.23   28.35
  12  -3 -18   -8.39    9.90
  12   3 -18   13.55   16.41
  12   3 -17   70.38   25.50
  12  -3 -17   54.12   20.21
  12  -3 -16    1.17    6.61
  12   3 -16   17.50   15.41
  12  -3 -15  201.03   37.23
  12   3 -15  211.10   37.90
  12  -3 -14   -1.14    7.91
  12   3 -14    5.41    7.78
  12  -3 -13   -4.81    7.11
  12   3 -13   14.55   11.98
  12  -3 -12    0.31    3.24
  12   3 -12   18.68   13.18
  12  -3 -11    2.46    3.55
  12  -3 -11   -1.95    6.57
  12  -3 -11  -14.44   18.33
  12  -3 -10   20.68    9.10
  12  -3 -10   18.47    8.34
  12  -3 -10    2.47    9.24
  12  -3  -9   13.57    7.55
  12  -3  -9    6.25    2.88
  12  -3  -9    1.09    9.65
  12  -3  -8   22.25    9.93
  12  -3  -8   22.79    7.81
  12   3  -8   10.76    6.54
  12  -3  -8   -3.48   15.93
  12  -3  -7   20.49   10.17
  12  -3  -7   21.46    6.84
  12   3  -7   15.27    5.71
  12  -3  -7    6.46    9.77
  12  -3  -6    6.01    6.04
  12  -3  -6   -0.28    2.44
  12   3  -6  -19.75   14.58
  12  -3  -6  -17.35   14.01
  12  -3  -5   61.74   17.87
  12   3  -5   44.90   13.74
  12  -3  -5   57.19   18.86
  12  -3  -4   -3.04    5.74
  12   3  -4  -23.59   13.85
  12   3  -3   11.25    9.77
  12  -3  -3    3.87    2.24
  12   3  -3   16.78   11.40
  12   3  -2    1.11    1.99
  12  -3  -2   -1.59    5.00
  12   3  -1    8.69    8.22
  12  -3  -1   -2.57    7.71
  12   3   0    4.58    7.53
  12  -3   0    6.99    6.34
  12   3   1   12.14   10.77
  12  -3   1    8.18    6.34
  12   3   2   10.07   11.90
 -12  -3  -2   -5.07   14.99
  12  -3   2    3.67    4.00
  12   3   3   56.90   21.51
 -12   3  -3   35.11   12.31
 -12  -3  -3   34.84    9.06
  12  -3   3   55.39   21.32
  12   3   4   12.31   11.92
 -12   3  -4  -11.30   14.92
 -12  -3  -4  -11.84   15.62
  12  -3   4   -3.30    6.25
  12   3   5   73.35   25.73
  12  -3   5   73.47   25.61
 -12   3  -5   80.20   23.45
 -12  -3  -5   83.58   26.09
  12   3   6   24.91   15.55
 -12   3  -6    1.30    4.31
 -12  -3  -6    8.67    4.16
  12  -3   6   26.37   15.56
 -12   3  -7   14.85   13.36
 -12  -3  -7   18.84   15.06
  12  -3   7    8.45    8.42
  12  -3   8   -3.92    6.20
 -12   3  -8    1.92    6.51
 -12  -3  -8    6.17    9.13
  12  -3   9    2.96    6.73
 -12   3  -9   14.08   13.77
 -12  -3  -9   10.19   12.48
 -12   3 -10    6.94   12.35
 -12   3 -11   14.90   17.15
  12  -4 -20   -0.20    7.05
  12  -4 -19   -8.41   12.14
  12  -4 -18   15.24    9.94
  12  -4 -17   20.18   10.12
  12  -4 -16   -2.82    8.22
  12  -4 -15   24.48   10.55
  12  -4 -14   -5.78   12.19
  12  -4 -13   64.29   19.25
  12  -4 -12   -4.76    8.95
  12  -4 -12  -24.05   20.13
  12  -4 -11   19.49    7.88
  12  -4 -11    3.57   10.92
  12  -4 -10   66.33   16.44
  12  -4 -10   61.57   16.79
  12  -4 -10   58.68   19.80
  12  -4  -9   60.45   16.13
  12  -4  -9   52.47   12.96
  12  -4  -9   31.87    9.97
  12  -4  -8   15.10    6.65
  12  -4  -8    6.88    2.82
  12   4  -8   -2.54   14.33
  12  -4  -8   -9.79   13.77
  12  -4  -7  164.96   28.90
  12  -4  -7  155.83   23.69
  12   4  -7  144.11   29.76
  12  -4  -7  141.34   29.02
  12  -4  -6   -3.29    5.14
  12  -4  -6   -2.79    4.87
  12   4  -6   -6.93   10.11
  12  -4  -6    1.47    2.97
  12  -4  -5   57.92   18.02
  12   4  -5   46.11   11.98
  12  -4  -5   56.12   18.18
  12  -4  -4   24.71   14.31
  12  -4  -4    3.33    4.87
  12  -4  -3  120.51   27.50
  12   4  -3  133.55   25.49
  12  -4  -3  186.55   34.27
  12   4  -2   34.85   16.19
  12  -4  -2   11.16    7.77
  12  -4  -1    9.56    6.75
  12   4  -1   53.75   18.17
  12  -4   0    2.67    2.94
  12  -4   1   21.65   12.83
 -12  -4  -2   14.35    4.59
  12  -4   2   27.94   14.19
 -12   4  -3  -16.59   15.57
 -12  -4  -3  -12.02   14.55
  12  -4   3    0.63    4.69
 -12   4  -4   -8.07   15.63
 -12  -4  -4   -1.97   14.46
  12  -4   4    3.92    6.44
 -12   4  -5    8.18    3.25
 -12  -4  -5   13.32    3.68
  12  -4   5   10.91   10.59
 -12   4  -6   -4.45   11.36
 -12  -4  -6    0.49    4.85
  12  -4   6    3.40    7.69
 -12   4  -7   51.76   21.75
 -12  -4  -7   61.24   25.47
  12  -4   7   48.50   21.57
 -12   4  -8    8.03   12.42
 -12  -4  -8   -1.53    1.08
  12  -4   8   -6.38    7.70
 -12   4  -9   13.19   11.90
 -12  -4  -9    9.35   11.89
  12  -4   9    2.93    3.21
 -12   4 -10   29.10   18.56
 -12   4 -11   27.17   19.24
  12  -5 -20    8.95    9.36
  12  -5 -19   -7.80    9.84
  12  -5 -18    1.53    6.58
  12  -5 -17   42.24   15.41
  12  -5 -16  -14.30   14.66
  12  -5 -15   -8.39   11.35
  12  -5 -14   -9.41   13.43
  12  -5 -13  -17.40   14.91
  12  -5 -13   -7.93   15.70
  12  -5 -12   95.14   24.16
  12  -5 -12   76.16   21.79
  12  -5 -11   22.36   11.86
  12  -5 -11   12.86    9.16
  12  -5 -10   39.68   12.14
  12  -5 -10   44.84   15.70
  12  -5 -10   32.05   13.13
  12  -5  -9   17.60    8.73
  12  -5  -9   17.51    8.39
  12  -5  -8   37.17   13.00
  12  -5  -8   32.18   13.01
  12  -5  -8   20.41    8.25
  12  -5  -7   46.19   15.44
  12  -5  -7   52.54   14.84
  12   5  -7   31.75   10.77
  12  -5  -7   31.69   11.93
  12  -5  -6    6.26    4.96
  12  -5  -6    3.23    4.52
  12   5  -6    3.35    7.44
  12  -5  -6   -1.95    7.47
  12  -5  -5   48.24   16.77
  12   5  -5   25.81    2.72
  12  -5  -5   64.87   20.67
  12  -5  -4   12.66    7.85
  12   5  -4   -4.19   10.16
  12  -5  -3    6.42    6.25
  12   5  -3   10.98    8.05
  12   5  -2   21.32   12.02
  12  -5  -2    8.60    6.89
  12  -5  -1   25.48   12.17
  12   5  -1   57.69   17.53
  12  -5   0    2.85    6.02
  12  -5   1   13.13    9.03
 -12  -5  -2   -7.29   15.39
  12  -5   2   10.41    7.69
 -12   5  -3  -11.04   17.59
 -12  -5  -3  -12.60   16.97
  12  -5   3   12.37    8.61
 -12   5  -4  -17.69   16.13
 -12  -5  -4   -9.95   15.47
  12  -5   4    0.50    5.95
 -12   5  -5   41.54   16.18
 -12  -5  -5   44.66   18.28
  12  -5   5   48.87   21.17
 -12   5  -6    6.57    2.21
 -12  -5  -6    8.82    8.30
  12  -5   6   15.56   12.73
 -12   5  -7    5.35    2.79
 -12  -5  -7    9.95   10.59
  12  -5   7    6.46    4.24
 -12   5  -8   25.55   14.22
 -12  -5  -8   51.93   24.33
  12  -5   8   31.23   18.20
 -12   5  -9    6.74   10.11
 -12  -5  -9    8.96   12.78
 -12   5 -10   39.69   19.77
 -12   5 -11   25.33   17.19
  12  -6 -20   29.48   13.71
  12  -6 -19    4.49    4.27
  12  -6 -18   -9.07   13.16
  12  -6 -17    2.24    9.42
  12  -6 -16   -8.75   14.15
  12  -6 -15  -11.36   16.07
  12  -6 -14   10.65    7.67
  12  -6 -14   -2.86   14.70
  12  -6 -13   22.98   13.78
  12  -6 -13   13.81    5.78
  12  -6 -12    0.94    5.36
  12  -6 -12   -9.54   14.64
  12  -6 -11   47.81   16.42
  12  -6 -11   33.52   15.27
  12  -6 -10   74.96   17.83
  12  -6 -10   81.47   21.35
  12  -6 -10   47.21   10.05
  12  -6  -9    6.25    7.02
  12  -6  -9   -0.15    3.39
  12  -6  -8    1.33    3.91
  12  -6  -8   -1.07    2.23
  12  -6  -7   15.50    7.13
  12   6  -7   12.48    6.90
  12  -6  -7   21.81   10.80
  12  -6  -7    0.22    6.04
  12  -6  -6    1.96    3.61
  12  -6  -6    6.03    6.93
  12   6  -6   -7.56   12.74
  12  -6  -6    5.44    7.80
  12  -6  -5   81.31   23.06
  12  -6  -5   62.66   19.27
  12   6  -5   45.99   10.94
  12  -6  -4    2.54    3.29
  12   6  -4  -10.47   11.10
  12  -6  -3   55.94   19.29
  12   6  -3   60.55   17.41
  12  -6  -2   94.60   25.84
  12   6  -2  114.63   22.80
  12   6  -1   39.95   15.73
  12  -6  -1   -3.80    6.61
  12  -6   0   32.72   15.75
  12  -6   1    5.86    6.05
 -12  -6  -2   26.21    4.14
  12  -6   2   30.43   14.11
 -12  -6  -3  -43.36   20.15
  12  -6   3    4.68    0.20
 -12   6  -4   12.98    4.02
 -12  -6  -4   22.21    7.27
  12  -6   4   34.14   17.57
 -12   6  -5  -11.43   14.54
 -12  -6  -5  -16.40   12.71
 -12   6  -6   -2.55    9.43
 -12  -6  -6   -5.07   11.62
  12  -6   6    5.93    8.04
 -12   6  -7   35.11   15.22
 -12  -6  -7   28.88   16.92
  12  -6   7   21.90   13.29
 -12   6  -8    2.88    8.05
 -12  -6  -8    2.42    4.25
  12  -6   8    2.69    2.72
 -12   6  -9    4.68    8.05
 -12   6 -10    9.67   12.86
 -12   6 -11   34.05   19.68
  12  -7 -19   31.65   15.40
  12  -7 -18   -6.37   15.15
  12  -7 -17   -8.76   14.21
  12  -7 -16    2.91   10.14
  12  -7 -15   42.05   17.48
  12  -7 -15   24.19    3.93
  12  -7 -14    9.95   10.98
  12  -7 -14   -1.19   12.74
  12  -7 -13   -0.80    2.16
  12  -7 -13  -22.49   18.26
  12  -7 -12    4.61    4.04
  12  -7 -12   -7.82   12.38
  12  -7 -11   -0.11    4.45
  12  -7 -11  -22.82   17.60
  12  -7 -10    1.53    2.34
  12  -7 -10    0.53    2.50
  12  -7  -9   -1.80    1.35
  12  -7  -9   -2.85    4.51
  12  -7  -8   14.21    8.12
  12  -7  -8   16.42    8.52
  12  -7  -8    8.86    4.58
  12  -7  -7   55.53   17.36
  12  -7  -7   66.40   16.76
  12  -7  -7   59.91   19.44
  12  -7  -6    8.03    1.20
  12   7  -6   -0.09    8.49
  12  -7  -6   10.00    8.79
  12  -7  -6   16.67   12.53
  12   7  -5   21.73    2.04
  12  -7  -5   27.08   12.37
  12   7  -4  -15.23   13.64
  12  -7  -4    3.28    5.59
  12  -7  -3  248.58   41.95
  12  -7  -3  163.18   32.49
  12   7  -3  161.56   26.83
  12  -7  -2  127.70   30.05
  12   7  -2  150.74   26.82
  12  -7  -1   12.85    9.03
  12   7  -1   59.00   17.94
  12  -7   0    1.05    2.78
  12  -7   1   11.35    9.50
 -12  -7  -2   -4.30   17.51
  12  -7   2    5.08    4.05
 -12  -7  -3   11.06    6.66
  12  -7   3   29.34   15.98
 -12   7  -4  -11.95   15.95
 -12  -7  -4  -10.38   10.05
  12  -7   4    0.62    7.09
 -12   7  -5  -14.22   16.12
 -12  -7  -5   -7.19   14.34
  12  -7   5    0.44    1.70
 -12   7  -6   -9.35   13.67
 -12  -7  -6  -10.66   13.43
  12  -7   6   10.27    8.04
 -12   7  -7   -5.90    6.41
 -12  -7  -7   -3.48    5.14
  12  -7   7   -5.10    7.40
 -12   7  -8   -2.81   10.93
 -12  -7  -8   -0.02    8.10
  12  -7   8    7.50   10.92
 -12   7  -9   -0.97    3.68
  12  -8 -19   21.99    7.68
  12  -8 -18   -4.60   14.25
  12  -8 -17   -3.67    7.94
  12  -8 -17  -18.73   19.71
  12  -8 -16   14.83   10.53
  12  -8 -16   -8.18   17.94
  12  -8 -15   58.70   20.93
  12  -8 -15   57.31   21.85
  12  -8 -14    5.39    7.06
  12  -8 -14  -14.63   15.01
  12  -8 -13   -2.14    5.25
  12  -8 -13   -8.98   12.11
  12  -8 -12   33.40   14.54
  12  -8 -12   31.53   11.52
  12  -8 -11   27.15   12.42
  12  -8 -11   11.28    6.29
  12  -8 -10   31.05   12.54
  12  -8 -10   28.63   10.91
  12  -8 -10    8.75    7.63
  12  -8  -9   30.49   11.20
  12  -8  -9   29.12   12.02
  12  -8  -9   25.31   10.10
  12  -8  -8    2.41    1.09
  12  -8  -8   -1.99    5.33
  12  -8  -8    4.98    7.26
  12  -8  -7    5.75    3.47
  12  -8  -7   11.49   10.52
  12  -8  -7    9.83    7.85
  12  -8  -6   18.73    7.16
  12   8  -6   12.80    4.49
  12  -8  -6   24.31   11.89
  12  -8  -6   39.75   17.01
  12  -8  -5   73.70   23.40
  12   8  -5   33.49   12.24
  12  -8  -5   34.07   14.52
  12   8  -4  -15.18   16.46
  12  -8  -4    7.95    8.40
  12   8  -3   -0.03    7.97
  12  -8  -3    1.71    3.64
  12  -8  -2    2.41    2.05
  12   8  -2   12.42    8.63
  12   8  -1   88.88   19.98
  12  -8  -1   59.40   20.69
  12  -8   0   12.98    7.96
  12  -8   1   -0.47    5.26
 -12  -8  -2   -7.50   18.12
  12  -8   2   24.08   12.93
 -12  -8  -3   -2.75   16.18
  12  -8   3    0.15    6.44
 -12   8  -4    8.43    7.17
 -12  -8  -4   18.42    8.16
  12  -8   4   16.09   10.82
  12  -8   5   64.92   25.23
 -12   8  -5   48.62   13.76
 -12  -8  -5   53.87   20.69
 -12   8  -6  -10.32   12.37
 -12  -8  -6   -4.81   13.29
  12  -8   6   -5.31   10.93
 -12   8  -7    2.01    2.41
 -12  -8  -7   12.44   11.91
  12  -8   7    0.37    2.14
 -12  -8  -8   21.82   14.69
  12  -8   8    7.49   10.39
  12  -9 -19   -0.43    8.46
  12  -9 -19    4.93    9.14
  12  -9 -18    4.57    5.17
  12  -9 -18  -14.46   19.08
  12  -9 -17   45.54   19.76
  12  -9 -17   17.28    7.63
  12  -9 -16   16.68   13.41
  12  -9 -16    6.78    6.58
  12  -9 -15  165.54   36.56
  12  -9 -15  188.22   42.29
  12  -9 -14   11.46   10.02
  12  -9 -14   -4.81   11.49
  12  -9 -13   14.54    9.66
  12  -9 -13   19.05   14.15
  12  -9 -12    3.48    5.80
  12  -9 -11   -3.69    8.51
  12  -9 -11  -20.54   17.60
  12  -9 -10    0.06    5.76
  12  -9 -10   -5.82   12.41
  12  -9 -10    2.26    4.70
  12  -9  -9   27.82   11.39
  12  -9  -9   21.81    8.90
  12  -9  -9   14.72   10.13
  12  -9  -8   -2.49    5.07
  12  -9  -8   -6.02    6.37
  12  -9  -8   -3.81    7.26
  12  -9  -7   -2.93    5.39
  12  -9  -7   -2.85    5.70
  12  -9  -7    6.69    9.88
  12  -9  -6   16.57   14.41
  12  -9  -6    2.68    2.78
  12   9  -6   -5.63   11.05
  12  -9  -5   55.09   18.86
  12   9  -5   52.96   16.59
  12  -9  -5   92.02   26.89
  12  -9  -4    7.73    8.77
  12   9  -4  -11.24   15.71
  12  -9  -3   45.32   16.84
  12   9  -3   38.71   12.14
  12  -9  -2   53.97   19.36
  12   9  -2   67.09   17.89
  12  -9  -1   11.84    9.27
  12   9  -1   38.01   14.59
  12  -9   0   -0.53    5.63
  12  -9   1   22.48   13.68
  12  -9   2   -4.91    4.78
 -12  -9  -3   54.02   17.16
  12  -9   3   89.11   28.27
 -12  -9  -4   -5.37   14.81
  12  -9   4    9.12    9.62
 -12   9  -5   42.44   13.04
 -12  -9  -5   51.87   20.04
  12  -9   5   62.91   25.44
 -12  -9  -6    1.21    2.70
  12  -9   6   10.27   11.95
 -12  -9  -7   -7.95   14.33
  12  -9   7    2.49    6.29
  12 -10 -19   13.60   15.08
  12 -10 -18    3.44    5.87
  12 -10 -18  -30.54   25.49
  12 -10 -17    6.76    7.31
  12 -10 -17   -2.77   11.83
  12 -10 -16    4.39    8.58
  12 -10 -16   -2.35    8.34
  12 -10 -15   14.75   14.68
  12 -10 -15    7.91    5.63
  12 -10 -14   44.16   19.87
  12 -10 -14   21.61   11.59
  12 -10 -13    8.84    9.79
  12 -10 -13  -33.92   22.45
  12 -10 -12    9.83    3.47
  12 -10 -11    1.66    3.61
  12 -10 -11  -18.76   16.40
  12 -10 -10   10.85    7.82
  12 -10 -10    0.37    4.67
  12 -10 -10   -3.68   10.41
  12 -10  -9   46.84   16.04
  12 -10  -9   56.27   17.28
  12 -10  -9   50.44   17.65
  12 -10  -8    0.04    4.10
  12 -10  -8   -2.79    5.83
  12 -10  -7   62.13   21.05
  12 -10  -7   43.40   15.42
  12 -10  -6    5.81    6.25
  12  10  -6   -4.33   12.69
  12 -10  -5   16.50    9.84
  12  10  -5   21.31    8.63
  12 -10  -4    5.96    4.17
  12  10  -4  -12.35   13.28
  12 -10  -3   16.44   11.10
  12  10  -3   10.89    1.13
  12 -10  -2   -2.87    6.88
  12  10  -2    0.96    3.47
  12 -10  -1    1.68    4.29
  12 -10   0    2.20    5.27
  12 -10   1   12.95   10.92
 -12 -10  -2    0.96   14.48
  12 -10   2   22.49   13.90
 -12 -10  -3  -12.49   17.86
  12 -10   3    8.67    9.74
 -12 -10  -4   13.31    0.78
  12 -10   4   27.39   16.68
 -12 -10  -5   18.65    7.79
  12 -10   5   42.86   21.12
 -12 -10  -6   -3.91   13.80
  12 -10   6    6.86    9.81
 -12 -10  -7   20.25   14.79
  12 -10   7   12.46   13.24
  12 -11 -18    1.80    3.10
  12 -11 -18  -19.62   18.82
  12 -11 -17   72.99   26.37
  12 -11 -17   70.95   25.34
  12 -11 -16   24.09   15.35
  12 -11 -16   11.76    5.87
  12 -11 -15    0.54    5.28
  12 -11 -15   -9.89   13.44
  12 -11 -14   -5.62    3.36
  12 -11 -13   18.98   11.63
  12 -11 -13    4.42   14.66
  12 -11 -12   35.11   14.60
  12 -11 -12   11.28    9.29
  12 -11 -11   14.12    8.23
  12 -11 -11    4.21    7.10
  12 -11 -10  144.84   30.19
  12 -11 -10  124.23   25.60
  12 -11 -10  130.66   31.12
  12 -11  -9    2.09    4.38
  12 -11  -9    2.81    4.66
  12 -11  -8   34.38   13.88
  12 -11  -8   37.40   17.90
  12 -11  -7   19.95   14.47
  12 -11  -7    3.95    6.01
  12 -11  -6   46.81   21.56
  12 -11  -6   -0.18    2.48
  12 -11  -5   33.70   14.63
  12  11  -5   21.59    9.31
  12 -11  -4    3.14    3.95
  12  11  -4  -15.48   14.38
  12 -11  -3    3.60    3.86
  12  11  -3   -4.44    7.68
  12 -11  -2    0.34    3.09
  12 -11  -1    8.96   10.79
  12 -11   0   11.42    9.02
  12 -11   1    7.71    6.98
  12 -11   2    8.78   10.42
  12 -11   3   21.44   14.25
 -12 -11  -3    2.63   13.71
 -12 -11  -4  -16.35   17.73
  12 -11   4    5.27    9.70
 -12 -11  -5   -9.16   15.39
  12 -11   5    4.70    9.79
 -12 -11  -6  -21.27   15.30
  12 -11   6   -1.49    4.05
 -12 -11  -7    2.64    8.80
  12 -11   7    6.92   10.42
  12 -12 -18    4.35    6.55
  12 -12 -18   -2.59    6.96
  12 -12 -17    7.97    9.65
  12 -12 -17   -2.12    9.37
  12 -12 -16   26.88   15.79
  12 -12 -16   -6.91   16.15
  12 -12 -15   51.38   21.21
  12 -12 -15   37.80   11.29
  12 -12 -14   20.26   11.34
  12 -12 -14   -2.88   16.21
  12 -12 -13    4.91    6.11
  12 -12 -13  -11.42   14.27
  12 -12 -12   33.07   14.08
  12 -12 -12   13.62    5.81
  12 -12 -11   -0.28    8.82
  12 -12 -10    4.83    4.28
  12 -12 -10   -2.58    4.85
  12 -12  -9    7.44    5.72
  12 -12  -9    4.17    6.65
  12 -12  -8   14.39   13.33
  12 -12  -8   12.73    8.22
  12 -12  -7   42.64   21.36
  12 -12  -7   16.34   11.06
  12 -12  -6   23.05   13.13
  12 -12  -6   67.38   24.84
  12 -12  -5   13.93    9.09
  12  12  -5   12.17    3.09
  12 -12  -4    5.48    6.36
  12  12  -4  -12.92   13.32
  12 -12  -3    0.88    3.87
  12 -12  -2   99.49   27.61
  12 -12  -1   44.58   19.55
  12 -12   0   60.02   22.53
  12 -12   1   13.01   10.60
  12 -12   2  137.83   35.40
  12 -12   3    1.11    3.03
  12 -12   4   40.45   19.43
 -12 -12  -4   16.76    4.94
 -12 -12  -5   -7.62   15.93
  12 -12   5   -0.08    5.71
 -12 -12  -6   15.74    8.31
  12 -12   6   30.62   17.40
  12 -13 -18    1.87    2.09
  12 -13 -18   -7.03   10.69
  12 -13 -17   -0.96    2.11
  12 -13 -17  -19.38   16.82
  12 -13 -16   35.35   19.76
  12 -13 -16    7.88   11.14
  12 -13 -15   10.53   11.18
  12 -13 -15  -19.76   19.15
  12 -13 -14   -1.05    6.14
  12 -13 -14  -18.61   17.15
  12 -13 -13    0.84    4.74
  12 -13 -13   -3.13   10.29
  12 -13 -12   51.76   20.04
  12 -13 -11   13.45   12.18
  12 -13 -10  113.99   30.79
  12 -13 -10   84.33   22.01
  12 -13  -9   22.86   11.77
  12 -13  -9   28.52   15.59
  12 -13  -8   53.29   21.63
  12 -13  -8   36.86   15.48
  12 -13  -7   31.27   18.39
  12 -13  -7    5.64    5.78
  12 -13  -6   25.14   14.06
  12 -13  -6  109.87   31.33
  12 -13  -5    5.29    6.19
  12  13  -5   -1.50    8.71
  12 -13  -4   15.18    9.99
  12 -13  -3    3.10    5.24
  12 -13  -2   28.27   15.01
  12 -13  -1    6.86    7.53
  12 -13   0    7.29   10.51
  12 -13   1    1.46    5.75
  12 -13   2   81.89   26.39
  12 -13   3    3.90    7.18
 -12 -13  -3  -18.38   21.10
  12 -13   4    6.31    9.76
 -12 -13  -4   -9.63   16.04
  12 -13   5    4.03    7.16
 -12 -13  -5   -2.77   12.34
 -12 -13  -6   -1.88   14.77
  12 -13   6   17.81   15.79
  12 -14 -17   -2.87    4.82
  12 -14 -16  -10.41   11.91
  12 -14 -16   -2.09    8.55
  12 -14 -15    1.78    3.26
  12 -14 -15  -14.13   17.32
  12 -14 -14   94.57   29.05
  12 -14 -14   67.60   23.47
  12 -14 -13    6.80    1.53
  12 -14 -13   -9.48   10.91
  12 -14 -12    7.55    7.12
  12 -14 -11    5.55    5.59
  12 -14 -10   -1.70    6.15
  12 -14 -10    4.64    7.41
  12 -14  -9   39.11   19.21
  12 -14  -9    8.92    7.44
  12 -14  -8   54.78   21.71
  12 -14  -8   29.13   14.27
  12 -14  -7   27.20   13.35
  12 -14  -7   79.35   27.09
  12 -14  -6   97.72   29.94
  12 -14  -6   26.73   14.31
  12 -14  -5   70.95   22.89
  12 -14  -4    3.80    6.67
  12 -14  -3    8.74    8.68
  12 -14  -2   63.80   22.93
  12 -14  -1   31.58   16.96
  12 -14   0  100.63   29.68
  12 -14   1   22.13   14.68
  12 -14   2   10.01    8.87
  12 -14   3    5.14    7.47
  12 -14   4   16.01   12.95
 -12 -14  -4  -39.16   20.74
  12 -14   5   13.57   12.72
 -12 -14  -5  -31.75   18.92
  12 -15 -17   70.41   27.02
  12 -15 -17   36.87   17.24
  12 -15 -16    8.04    9.59
  12 -15 -16   -4.53   11.97
  12 -15 -15   33.27   17.53
  12 -15 -15   13.62    6.61
  12 -15 -14    6.59   11.21
  12 -15 -14   -9.53   13.39
  12 -15 -13    4.46    1.50
  12 -15 -12   -1.57    8.33
  12 -15 -11    9.07   11.14
  12 -15 -10   33.38   17.35
  12 -15 -10   11.18    7.38
  12 -15  -9   40.90   21.36
  12 -15  -9   13.16    8.11
  12 -15  -8   70.54   26.55
  12 -15  -8    3.18    4.34
  12 -15  -7   58.59   24.98
  12 -15  -7    2.62    0.68
  12 -15  -6   37.68   17.72
  12 -15  -5    0.81    6.70
  12 -15  -4    3.61    5.68
  12 -15  -3    8.27    9.08
  12 -15  -2    6.88   10.29
  12 -15  -1    0.31    5.61
  12 -15   0   18.13   14.33
  12 -15   1   61.78   24.19
  12 -15   2   11.83   10.35
  12 -15   3    0.53    5.15
  12 -15   4    5.53    6.24
  12 -15   5    6.46   10.81
 -12 -15  -5  -24.33   21.80
  12 -16 -16   -1.88    9.69
  12 -16 -16   -9.62   15.40
  12 -16 -15    5.86    6.65
  12 -16 -15    3.59    6.26
  12 -16 -14   -2.16    7.57
  12 -16 -13    2.26    1.69
  12 -16 -12    8.10    7.39
  12 -16 -11   33.04   19.60
  12 -16 -10   20.30   17.15
  12 -16 -10   -2.95    6.44
  12 -16  -9   52.20   23.51
  12 -16  -9   18.74   10.84
  12 -16  -8   53.97   23.91
  12 -16  -8    2.37    2.88
  12 -16  -7  142.04   35.10
  12 -16  -7   37.51   15.68
  12 -16  -6   17.97   10.84
  12 -16  -5   11.05   10.20
  12 -16  -4    9.50    9.82
  12 -16  -3    6.39    7.38
  12 -16  -2   64.03   23.09
  12 -16  -1    6.48    8.15
  12 -16   0   25.41   15.70
  12 -16   1   -3.03    6.99
  12 -16   2    6.47    7.27
  12 -16   3    6.55    8.10
  12 -16   4    0.63    5.61
 -12 -16  -4  -42.38   21.90
  12 -17 -16   30.85   16.60
  12 -17 -16   25.03   15.38
  12 -17 -15    3.22    7.09
  12 -17 -14    2.75    7.88
  12 -17 -13    4.61    8.70
  12 -17 -12   14.73   13.04
  12 -17 -11   31.28   18.06
  12 -17 -10   72.73   26.66
  12 -17 -10    6.15    5.69
  12 -17  -9   96.78   30.63
  12 -17  -9    4.93    2.62
  12 -17  -8   84.01   30.27
  12 -17  -8    4.01    2.12
  12 -17  -7    7.50    4.91
  12 -17  -6   12.01    7.69
  12 -17  -5   18.08   11.55
  12 -17  -4   34.35   16.27
  12 -17  -3    4.14    6.07
  12 -17  -2   -1.27    5.36
  12 -17  -1    2.03    9.21
  12 -17   0    0.52    3.27
  12 -17   1   10.34    8.89
  12 -17   2    0.92    0.57
  12 -17   3    9.57    9.50
  12 -18 -15   18.04   13.33
  12 -18 -14    1.25   11.69
  12 -18 -13   20.81   13.59
  12 -18 -12   68.09   26.18
  12 -18 -11   38.73   22.27
  12 -18 -10   43.08   23.25
  12 -18 -10   -1.72    4.74
  12 -18  -9   57.32   26.93
  12 -18  -9    9.79    7.81
  12 -18  -8   -0.15    0.70
  12 -18  -7   30.77   15.26
  12 -18  -6    2.76    3.92
  12 -18  -5   -3.32    4.79
  12 -18  -4    0.09    6.01
  12 -18  -3    1.19    1.90
  12 -18  -2    4.83    9.74
  12 -18  -1    8.66    9.77
  12 -18   0   34.51   18.40
  12 -18   1    8.32    8.11
  12 -18   2   23.36   17.10
  12 -19 -14   22.34   18.12
  12 -19 -13   41.95   21.66
  12 -19 -12   40.38   24.02
  12 -19 -11   38.52   22.05
  12 -19 -10   94.52   30.97
  12 -19  -9   85.39   29.90
  12 -19  -9   -3.39    1.93
  12 -19  -8   70.18   23.31
  12 -19  -7    5.48    7.74
  12 -19  -6    2.02    1.93
  12 -19  -5    1.32    4.89
  12 -19  -4    5.01    2.19
  12 -19  -3    1.39    3.77
  12 -19  -2    5.22    6.06
  12 -19  -1    4.69    5.13
  12 -19   0   -3.96    9.60
  12 -19   1    2.64    5.43
  12 -20 -13   50.55   24.44
  12 -20 -12   68.52   27.93
  12 -20 -11   83.73   28.85
  12 -20 -10  128.08   34.55
  12 -20  -9   33.65   16.18
  12 -20  -8    0.00    5.28
  12 -20  -7   43.99   18.81
  12 -20  -6   12.42   11.23
  12 -20  -5    8.73    6.55
  12 -20  -4   -0.75    5.61
  12 -20  -3   -1.50    3.01
  12 -20  -2   24.25   16.52
  12 -20  -1   -3.93    6.82
  12 -20   0   43.64   19.02
  12 -21 -11  121.33   34.67
  12 -21  -9   -3.23    8.27
  12 -21  -8   -4.69    5.71
  12 -21  -7   12.32   11.83
  12 -21  -6    2.02    5.27
  12 -21  -5    6.43    7.18
  12 -21  -4    2.81    3.89
  12 -21  -3   18.38   13.41
  12 -21  -2    1.22    4.69
  12 -21  -1   -3.87   10.47
  12 -22  -9   20.98   12.86
  12 -22  -8   12.59    9.83
  12 -22  -7   81.17   26.97
  12 -22  -6    3.13    3.90
  12 -22  -5   21.53   13.91
  12 -22  -4   -3.96    8.43
  12 -22  -3    1.46    2.03
  12 -22  -2   -0.75    3.48
  12 -23  -9    9.50    9.70
  12 -23  -8    7.26    8.26
  12 -23  -7    8.56    9.01
  12 -23  -6    6.27    9.58
  12 -23  -5    3.09    1.03
  12 -23  -4   -2.51    8.78
  12 -24  -8    4.68    7.69
  12 -24  -7    8.75    8.51
  12 -24  -6    4.28    3.05
  12 -25  -8    2.22    1.21
  13   0 -20   21.27   16.76
  13   0 -19   35.36   19.48
  13   0 -18   19.47   16.30
  13   0 -17   25.08   17.72
  13   0 -16    5.89    7.51
  13   0 -15   31.25   16.08
  13   0 -14    6.04    9.72
  13   0 -13    5.83    7.51
  13   0 -12    3.20    5.60
  13   0 -11   15.56    9.50
  13   0 -11   -4.08   13.36
  13   0 -10   -0.56    3.05
  13   0 -10   -8.11   15.02
  13   0  -9   85.55   18.99
  13   0  -9   53.43   17.45
  13   0  -8    3.03    6.39
  13   0  -8  -25.34   19.63
  13   0  -7   92.38   23.03
  13   0  -7   91.37   23.16
  13   0  -6    5.61    7.23
  13   0  -6   -8.43   11.57
  13   0  -5   34.89   14.99
  13   0  -5   40.10   16.83
  13   0  -4   -0.91    4.43
  13   0  -4   13.39   10.89
  13   0  -3   36.19   17.40
  13   0  -3   10.64    9.04
  13   0  -2   57.17   22.46
  13   0  -2   -1.69    4.11
  13   0  -1    4.72    6.55
  13   0   0    2.60    7.17
  13   0   1   87.10   26.25
  13   0   2    2.64    8.21
 -13   0  -3  -13.76   16.76
  13   0   3   10.56   11.64
  13   0   4    8.64    9.50
 -13   0  -4  -22.17   19.85
  13   0   5    7.42    8.41
 -13   0  -5  -12.17   15.42
  13   0   6    5.31    8.01
 -13   0  -6  -24.19   18.11
  13   0   7   18.77   15.41
 -13   0  -7   25.14   14.28
 -13   0  -8    2.67    7.32
  13  -1 -20   15.24   13.10
  13   1 -20   15.47   15.51
  13  -1 -19    1.31    7.81
  13   1 -19   23.40   18.14
  13  -1 -18   19.05   16.85
  13   1 -18   30.55   19.31
  13  -1 -17  168.88   37.09
  13   1 -17  169.76   37.89
  13  -1 -16    5.82    4.72
  13   1 -16   19.05   13.28
  13  -1 -15   17.30   11.40
  13   1 -15   17.64   10.77
  13  -1 -14   -0.93    5.16
  13   1 -14    9.99   10.71
  13  -1 -13    6.31    6.06
  13   1 -13   18.21   13.31
  13  -1 -12   16.76   10.35
  13   1 -12   31.98   16.25
  13  -1 -12   -1.92   15.09
  13  -1 -11    5.31    6.62
  13   1 -11    8.31    9.32
  13   1 -11   -9.23   15.21
  13  -1 -11   -6.60   15.38
  13  -1 -10   28.63   11.02
  13   1 -10   35.08   13.48
  13   1 -10   10.74    7.44
  13  -1 -10   13.27    6.59
  13  -1  -9   93.91   21.37
  13  -1  -9   96.11   20.25
  13   1  -9   85.46   24.51
  13  -1  -9   89.36   24.50
  13  -1  -8   13.85    8.83
  13   1  -8    4.53    8.99
  13  -1  -8  -10.80   16.44
  13  -1  -7   88.15   22.18
  13   1  -7   68.05   17.70
  13  -1  -7   80.24   22.50
  13   1  -6    4.85    6.00
  13  -1  -6    8.67    7.27
  13   1  -6  -14.71   13.48
  13  -1  -6   -4.81   10.01
  13   1  -5   14.87   10.01
  13  -1  -5   16.86    9.80
  13   1  -5   11.07    6.91
  13  -1  -5   22.63   13.50
  13  -1  -4   23.60   14.19
  13   1  -4   14.82   10.59
  13  -1  -4    8.22    5.58
  13   1  -4   14.98    9.29
  13   1  -3   71.84   20.73
  13   1  -3   61.59   20.43
  13  -1  -3   43.47   17.03
  13  -1  -3  104.92   27.50
  13  -1  -2   70.58   24.70
  13   1  -2   16.12   11.26
  13  -1  -2   11.66    7.76
  13   1  -2   70.30   22.14
  13   1  -1    7.27    7.15
  13  -1  -1    7.81    7.53
  13   1   0   17.36   10.97
  13  -1   0   28.80   14.25
  13   1   1    1.63    6.96
  13  -1   1   -1.67    0.69
  13   1   2    2.75    7.98
  13  -1   2    2.04    6.14
  13   1   3   74.26   25.06
 -13  -1  -3   49.52   17.21
  13  -1   3   59.65   23.21
  13   1   4   -0.10    3.61
 -13   1  -4  -14.05   18.36
 -13  -1  -4   -9.43   14.78
  13  -1   4    4.61    5.59
  13   1   5   40.70   20.62
  13  -1   5   42.49   20.28
 -13   1  -5   26.10   10.43
 -13  -1  -5   26.84   10.77
  13   1   6    5.64   10.75
  13  -1   6    4.89    6.42
 -13   1  -6  -10.13   13.94
 -13  -1  -6  -14.33   14.89
  13   1   7   17.82   14.45
  13  -1   7   20.02   15.36
 -13   1  -7   -3.84   10.12
 -13  -1  -7   -2.63   11.51
 -13   1  -8    5.22    2.76
 -13  -1  -8    9.77   11.64
 -13   1  -9    5.50   11.88
  13  -2 -20    2.46    7.85
  13   2 -20   32.25   22.90
  13  -2 -19    1.21    5.57
  13   2 -19   18.27   15.72
  13  -2 -18    6.77   10.96
  13   2 -18   26.86   19.66
  13  -2 -17   10.74    8.51
  13   2 -17   47.94   22.39
  13  -2 -16   51.05   19.53
  13   2 -16   60.18   23.16
  13  -2 -15   16.88   10.85
  13   2 -15   32.20   15.28
  13  -2 -14  105.55   26.55
  13   2 -14  128.08   28.84
  13  -2 -13   18.16   11.27
  13   2 -13   25.22   15.41
  13  -2 -13   -4.66   15.98
  13  -2 -12   53.34   18.20
  13   2 -12   56.89   18.72
  13  -2 -12   35.86   13.37
  13  -2 -11    4.52    7.39
  13  -2 -11   -7.66   14.39
  13  -2 -10   59.72   16.59
  13  -2 -10   61.95   16.18
  13   2 -10   44.70   13.43
  13  -2 -10   56.91   19.99
  13  -2  -9    4.53    5.84
  13  -2  -9    1.69    4.40
  13   2  -9   -5.49   14.06
  13  -2  -9  -21.41   19.96
  13  -2  -8    4.61    4.79
  13   2  -8    5.60    6.59
  13  -2  -8   -8.76   16.27
  13   2  -7  -17.99   17.78
  13  -2  -7   -9.13   13.09
  13  -2  -6   17.57   10.21
  13   2  -6   -3.82    9.52
  13  -2  -6   11.76    6.23
  13  -2  -5   50.05   17.84
  13   2  -5   53.61   17.08
  13  -2  -5   67.72   21.25
  13   2  -4    7.51    7.58
  13  -2  -4    2.93    4.46
  13   2  -4   11.64    9.89
  13   2  -3   69.69   20.65
  13   2  -3   45.36   17.68
  13  -2  -3   46.58   18.49
  13  -2  -3   94.72   26.68
  13   2  -2    8.13    7.98
  13  -2  -2    1.59    3.58
  13   2  -1   24.88   13.40
  13  -2  -1   20.80   12.60
  13   2   0   13.23   10.82
  13  -2   0   12.38    8.55
  13   2   1   16.77   14.43
  13  -2   1   15.20   10.79
  13   2   2   48.08   20.39
  13  -2   2   37.97   18.14
  13   2   3   11.78   11.40
 -13  -2  -3   -4.50   18.45
  13  -2   3   12.39    9.87
  13   2   4   -1.05    3.39
 -13   2  -4  -15.08   20.25
 -13  -2  -4  -10.35   17.42
  13  -2   4   -0.30    4.71
  13   2   5   10.76   11.18
 -13   2  -5   -4.68   14.70
 -13  -2  -5   -1.48   12.79
  13  -2   5    4.42    6.87
  13   2   6    1.93    5.01
  13  -2   6    8.38   10.69
 -13   2  -6  -12.73   17.00
 -13  -2  -6   -0.06    8.68
  13   2   7    5.33   12.03
  13  -2   7    8.81   10.81
 -13   2  -7  -16.24   15.98
 -13  -2  -7   -2.66   11.82
 -13   2  -8   26.40   15.02
 -13  -2  -8   18.43   12.84
 -13   2  -9    7.78    4.63
  13  -3 -20    9.37   11.37
  13  -3 -19   -5.25    6.77
  13  -3 -18    6.98    9.38
  13   3 -18   18.11   17.21
  13  -3 -17   16.64    9.13
  13   3 -17   46.89   21.61
  13   3 -16  100.81   28.28
  13  -3 -16   88.33   25.15
  13  -3 -15   -5.69    6.87
  13  -3 -14   73.91   21.13
  13  -3 -13   -2.09    4.88
  13  -3 -13  -23.21   20.09
  13  -3 -12   12.22    6.46
  13  -3 -12   -1.80   12.42
  13  -3 -11   12.90    6.39
  13  -3 -11  -12.58   15.39
  13  -3 -10   41.77   14.07
  13  -3 -10   31.64   11.26
  13  -3 -10   34.86   15.06
  13  -3  -9    2.29    2.81
  13  -3  -9    5.64    1.65
  13  -3  -8    7.60    7.31
  13   3  -8   -3.29   10.68
  13  -3  -8  -18.51   17.90
  13  -3  -7    4.33    1.90
  13   3  -7  -11.11   14.04
  13  -3  -7   -9.17   10.43
  13  -3  -6    1.88    2.80
  13  -3  -6    6.07    6.39
  13  -3  -5   23.29   10.94
  13   3  -5   19.16    7.51
  13  -3  -5   47.70   18.18
  13  -3  -4   51.51   18.36
  13  -3  -4   70.08   22.93
  13   3  -4   53.36   17.38
  13   3  -3   15.58   11.34
  13  -3  -3    0.53    7.30
  13  -3  -2   27.74   13.57
  13   3  -2   82.89   23.77
  13   3  -1   48.13   18.87
  13  -3  -1   41.08   17.85
  13   3   0  133.61   31.96
  13  -3   0  120.53   30.88
  13   3   1   16.21   12.02
  13  -3   1   10.21    8.51
  13   3   2   11.93   10.68
  13  -3   2   -0.84    5.66
  13   3   3   17.98   13.32
 -13  -3  -3    3.93   10.48
  13  -3   3   -3.94    9.92
 -13   3  -4  -23.39   19.85
 -13  -3  -4   -6.42   16.32
  13  -3   4    0.01    4.69
 -13   3  -5  -16.10   19.21
 -13  -3  -5   -8.71   16.10
  13  -3   5   -1.60    4.12
 -13   3  -6  -22.62   16.04
 -13  -3  -6  -10.41   13.81
  13  -3   6    7.26    5.69
 -13   3  -7   -9.63   12.22
 -13  -3  -7   -4.73    7.20
 -13   3  -8   -3.44    7.27
 -13   3  -9    6.56    2.07
  13  -4 -19    2.20    3.04
  13  -4 -18   -1.78    9.72
  13  -4 -17   -7.16    9.94
  13  -4 -16   -2.14    7.08
  13  -4 -15   12.69    9.71
  13  -4 -14   14.99   10.86
  13  -4 -14    5.67    9.30
  13  -4 -13    7.34    6.71
  13  -4 -13   -2.69   12.05
  13  -4 -12   11.04    7.99
  13  -4 -12    3.04   11.69
  13  -4 -11   -6.66   10.51
  13  -4 -11   -1.85    9.64
  13  -4 -10   66.77   17.88
  13  -4 -10   65.28   17.17
  13  -4 -10   39.29    9.02
  13  -4  -9   11.20    7.18
  13  -4  -9    5.31    4.25
  13   4  -9   -4.06   11.56
  13  -4  -8    1.29    1.74
  13   4  -8   -2.74    8.40
  13  -4  -8  -17.25   14.63
  13  -4  -7   61.86   17.94
  13   4  -7   71.03   20.02
  13  -4  -7   48.68   17.91
  13  -4  -6   -0.27    4.68
  13  -4  -6    5.82    7.75
  13  -4  -5    2.15    2.98
  13   4  -5   -3.92   12.11
  13  -4  -4   13.74    9.39
  13   4  -4   17.84   10.21
  13   4  -3   24.86   13.70
  13  -4  -3    3.40    2.21
  13   4  -2   40.30   16.92
  13  -4  -2   22.44   12.98
  13  -4  -1    8.90    7.52
  13  -4   0   74.12   23.99
  13  -4   1   47.74   18.56
  13  -4   2   -1.03    5.04
 -13  -4  -3  -10.39   17.40
  13  -4   3   -2.96    8.11
 -13   4  -4  -12.39   16.89
 -13  -4  -4   -9.17   15.08
  13  -4   4    4.99    8.07
 -13   4  -5   -4.57   15.70
 -13  -4  -5   -9.01   15.92
  13  -4   5   -1.54    9.92
 -13   4  -6   -7.81   14.65
 -13  -4  -6   -7.20   12.01
  13  -4   6   -0.20    3.14
 -13   4  -7  -25.92   20.52
 -13  -4  -7  -15.83   17.10
 -13   4  -8    7.50    6.51
 -13   4  -9   -2.12    4.04
  13  -5 -19    7.28    3.66
  13  -5 -18    6.01    7.75
  13  -5 -17   11.05    4.26
  13  -5 -16   -8.76    9.05
  13  -5 -15   39.54   16.34
  13  -5 -15   39.66   16.81
  13  -5 -14  -12.89   11.55
  13  -5 -14  -10.27   16.55
  13  -5 -13   -1.23    9.88
  13  -5 -13  -13.62   16.62
  13  -5 -12   -6.66    9.89
  13  -5 -12   -4.49   10.01
  13  -5 -11    2.55    8.05
  13  -5 -11   -1.51   13.44
  13  -5 -10   11.72    8.49
  13  -5 -10    2.18    5.05
  13  -5 -10   -9.59   17.77
  13  -5  -9   62.10   18.44
  13  -5  -9   67.26   17.04
  13   5  -9   42.09   13.92
  13  -5  -9   51.01   15.47
  13  -5  -8   -0.38    3.11
  13   5  -8  -13.97   15.37
  13  -5  -8   -7.52   14.02
  13  -5  -7   22.96   10.51
  13   5  -7   17.31    9.46
  13  -5  -7   15.61    9.57
  13  -5  -6   19.56    9.75
  13  -5  -6   21.36   10.20
  13  -5  -5   50.71   17.92
  13  -5  -5   78.58   25.70
  13   5  -5   35.16   11.14
  13  -5  -4    9.64    8.23
  13   5  -4    8.61    5.38
  13  -5  -3   41.47   15.48
  13   5  -3   56.95   17.37
  13   5  -2   42.03   16.46
  13  -5  -2   18.02   10.52
  13  -5  -1    1.40    4.39
  13  -5   0   -1.03    5.87
  13  -5   1    6.44    5.99
  13  -5   2    0.86    4.34
 -13  -5  -3   23.97    8.89
  13  -5   3   38.82   18.21
 -13   5  -4  -13.17   18.48
 -13  -5  -4  -11.55   17.34
  13  -5   4    9.50   11.68
 -13   5  -5   -0.85   12.77
 -13  -5  -5   30.32   10.97
  13  -5   5   31.81   18.44
 -13   5  -6   -1.41   11.31
 -13  -5  -6   -7.72   13.49
  13  -5   6   20.05   13.65
 -13   5  -7   12.67    3.50
 -13  -5  -7   16.43    8.81
 -13   5  -8   -4.81   13.01
 -13   5  -9   -0.27    8.36
  13  -6 -19   -8.94   12.97
  13  -6 -18   -0.60    8.38
  13  -6 -17   35.51   14.04
  13  -6 -16   -8.97   12.41
  13  -6 -16   -3.50   13.51
  13  -6 -15   14.99    7.33
  13  -6 -15    9.58    2.45
  13  -6 -14   -3.03    8.56
  13  -6 -14   -2.17   10.19
  13  -6 -13   -8.06   13.68
  13  -6 -13   -6.22   12.91
  13  -6 -12   -2.05    5.74
  13  -6 -12   -6.34    8.24
  13  -6 -11    0.90    6.65
  13  -6 -10   -0.14    2.53
  13  -6 -10   -1.40    4.57
  13  -6  -9    6.14    7.58
  13  -6  -9   -0.96    5.93
  13  -6  -8   14.36    8.33
  13   6  -8    9.72    3.19
  13  -6  -8    2.13    8.09
  13  -6  -7  161.83   31.02
  13   6  -7  149.97   31.74
  13  -6  -7  152.74   33.36
  13  -6  -6   24.14   12.62
  13   6  -6   -8.93   14.41
  13  -6  -6   40.88   17.90
  13  -6  -5   20.09   11.87
  13   6  -5    3.59    3.98
  13  -6  -4   86.05   24.90
  13   6  -4   92.65   22.23
  13  -6  -4  156.86   35.12
  13  -6  -3   47.78   18.27
  13   6  -3   53.26   18.33
  13   6  -2   34.30   15.98
  13  -6  -2    1.87    4.17
  13  -6  -1    0.05    5.56
  13  -6   0    0.86    4.87
  13  -6   1   33.04   16.51
  13  -6   2    3.37    2.70
 -13  -6  -3   17.78    4.65
  13  -6   3   31.43   16.41
 -13  -6  -4  -22.29   20.32
  13  -6   4   -2.01    2.86
 -13   6  -5   -7.08   17.48
 -13  -6  -5   -8.86   18.18
  13  -6   5   18.13   11.89
 -13   6  -6   -1.61   12.54
 -13  -6  -6   -9.15   15.78
  13  -6   6   10.51   12.16
 -13   6  -7   -0.45    9.44
 -13  -6  -7    4.77    7.91
 -13   6  -8  -17.17   18.66
  13  -7 -19   -2.06   10.63
  13  -7 -18  -13.43   15.96
  13  -7 -18  -33.76   26.22
  13  -7 -17  -10.92   13.76
  13  -7 -17  -13.59   17.94
  13  -7 -16   -5.59   10.66
  13  -7 -16   -6.57   16.95
  13  -7 -15   -6.00   11.79
  13  -7 -15   -8.66   12.68
  13  -7 -14    4.80    5.90
  13  -7 -14   -2.17    9.92
  13  -7 -13    8.11   10.51
  13  -7 -13   -0.86    6.66
  13  -7 -12    2.45    2.31
  13  -7 -11    3.97    6.56
  13  -7 -10    7.88    8.74
  13  -7 -10   -0.70    3.02
  13  -7  -9   62.45   18.13
  13  -7  -9   79.29   20.44
  13  -7  -9   73.05   23.31
  13  -7  -8    2.90    5.48
  13   7  -8  -20.38   17.59
  13  -7  -8   -7.96    7.93
  13  -7  -7   27.61   13.06
  13   7  -7   18.94    7.28
  13  -7  -7   19.53   12.56
  13  -7  -6   23.85   15.43
  13  -7  -6   21.56   11.70
  13   7  -6   -7.48   11.46
  13  -7  -5    7.76    6.62
  13   7  -5  -13.56   14.11
  13  -7  -4   36.90   15.55
  13   7  -4   29.83    9.20
  13  -7  -3    1.75    6.10
  13   7  -3    7.45    7.99
  13  -7  -2   57.20   21.10
  13   7  -2   93.28   21.66
  13   7  -1   55.19   18.62
  13  -7  -1   -7.10    7.72
  13  -7   0   -4.06    5.58
  13  -7   1   -0.15    2.53
  13  -7   2    9.84    9.70
 -13  -7  -3   12.03    8.50
  13  -7   3   38.43   18.75
 -13  -7  -4  -14.06   19.86
  13  -7   4    2.46    4.49
 -13   7  -5   31.47   11.55
 -13  -7  -5   22.51   11.23
  13  -7   5   37.16   19.61
 -13   7  -6  -15.51   19.09
 -13  -7  -6   -7.50   13.65
  13  -7   6    3.09    5.21
 -13   7  -7   -2.80   13.79
  13  -8 -19   -5.71   12.48
  13  -8 -18   -5.10    9.14
  13  -8 -17  -17.32   17.57
  13  -8 -17  -10.99   16.11
  13  -8 -16   -7.96   12.01
  13  -8 -16   -7.61   12.89
  13  -8 -15   11.19   12.06
  13  -8 -15   -0.85   11.74
  13  -8 -14   49.52   20.91
  13  -8 -14   47.43   21.51
  13  -8 -13    0.17    3.34
  13  -8 -12    0.61    2.05
  13  -8 -12  -23.37   21.92
  13  -8 -11    6.50    6.67
  13  -8 -11  -12.91   18.18
  13  -8 -10   21.51   11.37
  13  -8 -10   19.96    9.70
  13  -8 -10   11.92    6.66
  13  -8  -9    2.89    1.72
  13  -8  -9    4.80    5.39
  13  -8  -9   -3.79    7.37
  13   8  -8  -12.40   13.82
  13  -8  -8    3.71    4.55
  13  -8  -8   -2.62    5.08
  13   8  -7    0.24    9.08
  13  -8  -7   13.78   10.00
  13  -8  -7   27.01   15.34
  13  -8  -6    1.31    0.43
  13   8  -6   -2.08    6.54
  13  -8  -5   16.95    9.57
  13   8  -5   -4.66   13.31
  13  -8  -4    3.85    0.61
  13   8  -4    0.39    4.40
  13  -8  -3    7.31   10.07
  13   8  -3   12.04    9.19
  13   8  -2   31.43   13.92
  13  -8  -2    8.90    9.27
  13  -8  -1    4.52    7.44
  13  -8   0   -0.59    5.18
  13  -8   1    2.60    3.14
  13  -8   2   25.25   13.50
 -13  -8  -3  -26.49   23.28
  13  -8   3    1.45    6.02
 -13  -8  -4  -23.29   19.38
  13  -8   4    0.09    2.02
 -13  -8  -5  -38.11   20.71
  13  -8   5    0.27    5.75
 -13  -8  -6  -16.51   20.01
  13  -9 -18   -0.26    5.76
  13  -9 -17    3.62    3.59
  13  -9 -17  -19.59   18.08
  13  -9 -16   28.23   16.43
  13  -9 -16   10.89    5.71
  13  -9 -15   13.49   13.60
  13  -9 -15   -4.19    7.83
  13  -9 -14   62.83   23.04
  13  -9 -14   34.18   14.43
  13  -9 -13    2.66    2.94
  13  -9 -12    4.60    6.40
  13  -9 -11    3.88    4.51
  13  -9 -11  -38.79   18.59
  13  -9 -10   16.41    8.60
  13  -9 -10   17.61    9.43
  13  -9 -10   -1.68    8.49
  13  -9  -9    8.43    8.17
  13  -9  -9    0.27    4.79
  13  -9  -9    0.55    3.98
  13  -9  -8    5.38    0.85
  13  -9  -8   15.37   12.36
  13   9  -7   -7.81   12.73
  13  -9  -7   -0.86    4.19
  13   9  -6   -1.92    7.38
  13  -9  -6   -4.76    6.42
  13   9  -5  -15.18   15.33
  13  -9  -5   -0.90    3.58
  13   9  -4   16.31    8.54
  13  -9  -4   19.95   12.73
  13  -9  -3   23.62   12.83
  13   9  -3   32.60   12.62
  13  -9  -2  143.19   33.61
  13  -9  -1    6.44    7.90
  13  -9   0    8.35    8.64
  13  -9   1    4.15    5.81
  13  -9   2    8.26    8.34
  13  -9   3    5.14    8.19
 -13  -9  -4  -15.27   20.18
  13  -9   4    5.58    8.00
 -13  -9  -5   -2.56   13.30
  13  -9   5   14.99   12.78
  13 -10 -18   19.88   15.51
  13 -10 -17    3.24    4.93
  13 -10 -17  -12.01   16.08
  13 -10 -16    2.04    3.05
  13 -10 -16   -2.66    4.64
  13 -10 -15   13.99   11.22
  13 -10 -15  -12.38   16.87
  13 -10 -14   11.74    9.01
  13 -10 -14  -12.87   18.93
  13 -10 -13   11.40    8.95
  13 -10 -13  -14.02   17.14
  13 -10 -12   24.94   12.63
  13 -10 -12   16.46    5.49
  13 -10 -11    7.99    8.19
  13 -10 -11  -13.09   15.44
  13 -10 -10   59.00   17.98
  13 -10 -10   53.08   18.02
  13 -10 -10   51.21   19.71
  13 -10  -9    0.89    3.03
  13 -10  -9   -0.54    3.47
  13 -10  -9    2.86    5.66
  13 -10  -8    8.44    8.59
  13 -10  -8    6.67   11.38
  13 -10  -7   -0.63    5.01
  13  10  -7   -8.96   12.61
  13 -10  -6    6.69    6.43
  13  10  -6   -0.92    9.37
  13 -10  -5   -1.79    5.07
  13  10  -5  -14.55   13.56
  13 -10  -4   33.20   14.95
  13  10  -4   15.43    2.93
  13 -10  -3   30.32   14.29
  13 -10  -2    5.68    4.66
  13 -10  -1    5.00    8.24
  13 -10   0   35.21   16.61
  13 -10   1   -4.06    5.15
  13 -10   2   59.54   23.25
 -13 -10  -3   16.54    5.50
  13 -10   3   49.11   21.92
 -13 -10  -4  -15.71   18.53
  13 -10   4    7.59   11.57
 -13 -10  -5  -31.30   24.88
  13 -10   5    7.66   11.71
  13 -11 -18    0.87    6.90
  13 -11 -17   -3.14    5.62
  13 -11 -17   -2.82    8.61
  13 -11 -16   53.55   23.29
  13 -11 -16   20.24    3.74
  13 -11 -15   12.45   12.86
  13 -11 -15  -25.32   20.17
  13 -11 -14    2.50    8.32
  13 -11 -14  -21.84   20.17
  13 -11 -13    4.48    6.63
  13 -11 -13  -23.07   20.76
  13 -11 -12    0.18    2.62
  13 -11 -12  -24.00   14.98
  13 -11 -11    3.75    3.36
  13 -11 -11   -4.57    6.33
  13 -11 -10   15.30    9.19
  13 -11 -10   29.06   14.46
  13 -11 -10   10.24    9.74
  13 -11  -9   43.38   16.47
  13 -11  -9   49.15   17.03
  13 -11  -9   38.21   18.12
  13 -11  -8   26.79   12.78
  13 -11  -8   30.55   13.38
  13 -11  -7   78.52   22.76
  13  11  -7   70.29   20.36
  13 -11  -7  115.07   32.01
  13 -11  -6    7.83    8.63
  13  11  -6   -7.73   10.72
  13 -11  -5   26.86   12.90
  13  11  -5   14.74    7.86
  13 -11  -4   16.54   11.27
  13 -11  -3   13.21    9.74
  13 -11  -2   17.72   12.04
  13 -11  -1   -3.54    6.64
  13 -11   0   41.56   19.23
  13 -11   1   24.23   15.46
  13 -11   2   -1.68    3.72
  13 -11   3   33.16   17.65
 -13 -11  -4  -32.58   26.00
  13 -11   4    5.84    8.02
  13 -12 -18    0.58    3.94
  13 -12 -17    3.72    3.44
  13 -12 -16    4.28    5.03
  13 -12 -15   -2.63    6.53
  13 -12 -15  -14.46   17.45
  13 -12 -14   -1.82    4.00
  13 -12 -14  -22.94   17.71
  13 -12 -13   -1.83    6.12
  13 -12 -13   -5.17   10.65
  13 -12 -12    3.87    4.61
  13 -12 -12   -4.30   11.62
  13 -12 -11    4.60    4.55
  13 -12 -11    8.77    9.41
  13 -12 -10   16.50    9.45
  13 -12 -10   31.87   18.08
  13 -12  -9   30.36   18.09
  13 -12  -9    3.14    4.59
  13 -12  -8   25.32   18.98
  13 -12  -8   10.99    9.84
  13 -12  -7   77.65   23.18
  13  12  -7   66.03   19.92
  13 -12  -7  106.14   31.62
  13 -12  -6    5.98    7.15
  13  12  -6   -0.16    9.76
  13 -12  -5    1.95    3.59
  13 -12  -4   23.09   13.60
  13 -12  -3   27.35   13.97
  13 -12  -2   10.42    9.15
  13 -12  -1    6.47   10.55
  13 -12   0   39.97   18.63
  13 -12   1   35.99   19.04
  13 -12   2    7.00    8.52
  13 -12   3   10.17    9.15
 -13 -12  -4  -28.69   18.25
  13 -12   4    7.51    9.46
  13 -13 -17   16.81   13.54
  13 -13 -16    8.56   10.97
  13 -13 -15   11.90    9.81
  13 -13 -15  -18.45   20.26
  13 -13 -14   15.31   11.01
  13 -13 -14   -6.99   11.45
  13 -13 -13   -2.11    6.72
  13 -13 -13   -9.58   12.11
  13 -13 -12   -0.34    4.72
  13 -13 -12    2.20    1.96
  13 -13 -11   47.35   17.77
  13 -13 -11   45.21   20.67
  13 -13 -10   13.66   13.07
  13 -13  -9   42.40   20.96
  13 -13  -9   21.95   12.31
  13 -13  -8   55.36   23.94
  13 -13  -8   18.23   12.71
  13 -13  -7   74.72   27.03
  13 -13  -7   26.56   13.83
  13 -13  -6   84.62   30.13
  13 -13  -6   -0.79    5.61
  13 -13  -5   10.77    7.80
  13 -13  -4   -2.43    5.12
  13 -13  -3    0.62    1.76
  13 -13  -2   23.96   14.19
  13 -13  -1   11.10   11.43
  13 -13   0    5.98    8.53
  13 -13   1   25.52   15.64
  13 -13   2    2.18    7.92
  13 -13   3    9.83   10.11
  13 -14 -17   27.36   19.20
  13 -14 -16   16.46   13.54
  13 -14 -15    3.72    7.21
  13 -14 -15  -13.19   17.46
  13 -14 -14   13.50   10.48
  13 -14 -14  -10.76   13.49
  13 -14 -13    1.64    4.41
  13 -14 -13   -4.62   10.15
  13 -14 -12    6.19    6.94
  13 -14 -12   19.82   12.59
  13 -14 -11   11.05   10.63
  13 -14 -10   32.96   18.54
  13 -14  -9   40.00   21.35
  13 -14  -9    3.44    5.41
  13 -14  -8   56.46   25.53
  13 -14  -8    1.92    3.29
  13 -14  -7  116.84   32.43
  13 -14  -7   80.97   25.22
  13 -14  -6   14.11   10.32
  13 -14  -5    7.69    8.76
  13 -14  -4   10.20    9.88
  13 -14  -3   11.61   11.34
  13 -14  -2   24.49   14.73
  13 -14  -1    7.97    8.73
  13 -14   0   15.08   11.36
  13 -14   1   37.84   19.76
  13 -14   2   23.02   16.12
  13 -14   3   14.78   12.97
  13 -15 -16   10.53   10.06
  13 -15 -15   19.81   13.91
  13 -15 -14   10.40   10.46
  13 -15 -14   17.48   14.07
  13 -15 -13   -3.96   10.50
  13 -15 -13    2.77    4.46
  13 -15 -12   24.40   14.69
  13 -15 -11   15.90   14.18
  13 -15 -10   32.86   21.52
  13 -15  -9   59.33   24.44
  13 -15  -9   16.06    9.98
  13 -15  -8   20.93   12.71
  13 -15  -8   79.73   30.33
  13 -15  -7   93.30   30.66
  13 -15  -7    9.29   10.47
  13 -15  -6    6.61    8.62
  13 -15  -5   11.86   11.39
  13 -15  -4   22.70   13.98
  13 -15  -3    8.76    9.97
  13 -15  -2   47.78   21.66
  13 -15  -1    8.79    9.81
  13 -15   0   39.71   19.13
  13 -15   1   -0.80    0.95
  13 -15   2    5.63   10.54
  13 -16 -16   -6.03    0.18
  13 -16 -15    4.95    9.54
  13 -16 -14   28.49   15.00
  13 -16 -14   32.27   19.41
  13 -16 -13    5.81    6.32
  13 -16 -12   50.99   23.19
  13 -16 -11   41.09   21.35
  13 -16 -10   65.76   26.19
  13 -16  -9   24.38   13.79
  13 -16  -9  103.20   32.07
  13 -16  -8   97.51   31.09
  13 -16  -8   11.19   10.45
  13 -16  -7    6.05    7.25
  13 -16  -6   18.76   10.52
  13 -16  -5   22.17   14.30
  13 -16  -4   -3.00    4.94
  13 -16  -3    7.95    7.57
  13 -16  -2    4.59    8.61
  13 -16  -1    5.56   10.15
  13 -16   0   35.77   19.77
  13 -16   1   14.33   12.40
  13 -17 -15    5.41    8.57
  13 -17 -14    1.68    2.69
  13 -17 -13   33.71   19.02
  13 -17 -12   35.25   20.18
  13 -17 -11   30.55   19.74
  13 -17 -10   51.13   25.19
  13 -17  -9   54.90   26.34
  13 -17  -9    0.78    3.17
  13 -17  -8   14.40   11.28
  13 -17  -7   41.26   18.15
  13 -17  -6   -3.91    2.58
  13 -17  -5    1.09    1.87
  13 -17  -4    2.14    3.11
  13 -17  -3    5.97    8.88
  13 -17  -2   34.79   18.25
  13 -17  -1   -0.20    6.86
  13 -17   0   18.11   12.92
  13 -17   1    3.44    3.74
  13 -18 -12   32.41   19.94
  13 -18 -11   86.37   30.54
  13 -18 -10  101.79   31.70
  13 -18  -9  147.20   37.87
  13 -18  -9   26.71   15.39
  13 -18  -8   -0.66    5.65
  13 -18  -7   17.29   12.10
  13 -18  -6   22.54   15.93
  13 -18  -5   43.04   20.42
  13 -18  -4   14.57   13.34
  13 -18  -3   34.38   17.97
  13 -18  -2    5.55    9.02
  13 -18  -1    3.75    7.52
  13 -18   0    9.99    9.39
  13 -19 -10   66.27   30.30
  13 -19  -9   31.05   16.93
  13 -19  -8   10.79    9.82
  13 -19  -7   43.78   19.46
  13 -19  -6   -1.71    4.34
  13 -19  -5    0.90    6.41
  13 -19  -4   18.14   14.93
  13 -19  -3   -3.08    6.21
  13 -19  -2    3.18    4.21
  13 -19  -1    2.00    5.40
  13 -20  -8    7.14    7.26
  13 -20  -7   27.02   14.89
  13 -20  -6    2.99    4.34
  13 -20  -5   16.51   11.08
  13 -20  -4    5.54    6.14
  13 -20  -3    2.85    4.28
  13 -20  -2    2.60    3.40
  13 -21  -8    2.10    7.75
  13 -21  -7   -5.86    8.06
  13 -21  -6    1.24    4.13
  13 -21  -5   -5.21    8.76
  13 -21  -4    4.24    6.76
  13 -22  -8   -0.13    4.18
  13 -22  -7   -0.05    1.89
  13 -22  -6   15.49   11.65
  13 -22  -5   -0.58    2.74
  13 -23  -8   44.81   20.66
  13 -23  -7    3.75    3.38
  14   0 -19   16.08   16.00
  14   0 -18   35.08   18.83
  14   0 -17   11.71   13.44
  14   0 -16    3.06    7.00
  14   0 -15    1.72    7.84
  14   0 -14   27.39   15.98
  14   0 -13    6.27    9.30
  14   0 -13  -10.03   14.45
  14   0 -12   11.92    7.13
  14   0 -11  -15.22   16.66
  14   0 -10   28.01   14.52
  14   0  -9  -19.03   18.64
  14   0  -8  -10.38   16.80
  14   0  -7    4.75    8.88
  14   0  -7  -11.56   12.97
  14   0  -6   22.43   12.83
  14   0  -6   25.51   14.27
  14   0  -5    2.06    5.98
  14   0  -5    4.65    7.57
  14   0  -4   31.85   18.08
  14   0  -4   12.74    9.65
  14   0  -3   54.35   22.27
  14   0  -3    3.20    7.41
  14   0  -2  249.75   44.06
  14   0  -1    6.10    9.01
  14   0   0   80.39   26.20
  14   0   1    5.67    8.44
  14   0   2   32.04   18.30
  14   0   3    1.77    7.07
  14   0   4    2.14    8.83
 -14   0  -5  -24.77   23.25
 -14   0  -6  -31.74   24.87
  14  -1 -19   32.97   19.62
  14   1 -19   27.99   19.08
  14  -1 -18    5.36    8.56
  14   1 -18    9.37   14.09
  14  -1 -17    2.40    7.57
  14   1 -17    5.46    9.43
  14  -1 -16   23.71   14.28
  14   1 -16   30.82   15.96
  14  -1 -15    2.81    6.84
  14   1 -15    8.91   11.72
  14   1 -14   75.15   22.11
  14  -1 -14   72.90   22.66
  14  -1 -14   41.76   16.92
  14  -1 -13    7.62    9.86
  14   1 -13   18.10   13.67
  14  -1 -13   -6.54   15.60
  14   1 -12   -3.81   15.09
  14  -1 -12    3.39   13.36
  14   1 -11   -5.55   10.05
  14  -1 -11   -7.15   11.83
  14   1 -10   -6.64    9.38
  14  -1 -10  -11.10   14.77
  14  -1  -9   19.19   10.53
  14   1  -9   -3.97   11.31
  14  -1  -9   -2.68   12.66
  14  -1  -8   10.01   10.37
  14   1  -8  -11.34   16.58
  14  -1  -8   -4.03   13.43
  14  -1  -7   82.95   22.68
  14   1  -7   66.50   19.13
  14  -1  -7   72.89   21.08
  14   1  -6   65.17   20.93
  14  -1  -6   56.39   19.89
  14   1  -6   56.29   18.26
  14  -1  -6   60.40   21.81
  14  -1  -5   20.20   14.64
  14   1  -5    9.05   10.19
  14  -1  -5    6.14    7.92
  14   1  -5   13.98   12.07
  14   1  -4   37.26   18.39
  14  -1  -4   49.73   20.45
  14   1  -4   12.98    9.50
  14  -1  -4    7.81    6.81
  14   1  -3   52.56   21.59
  14   1  -3    2.34    6.87
  14  -1  -3   80.91   26.02
  14   1  -2   47.64   20.29
  14  -1  -2   39.42   17.91
  14   1  -1    3.81    8.93
  14  -1  -1    1.71    6.49
  14   1   0   29.76   16.23
  14  -1   0   28.10   14.67
  14   1   1   15.20   12.85
  14  -1   1   11.33   11.17
  14   1   2   14.81   13.32
  14  -1   2   10.78    9.93
  14   1   3    9.15   12.41
  14  -1   3   13.23   11.41
  14   1   4    3.72    4.51
  14  -1   4    5.71    8.73
 -14   1  -5  -22.35   21.24
 -14  -1  -5  -14.53   20.97
 -14   1  -6   -9.03   16.98
 -14  -1  -6   -8.68   18.00
 -14   1  -7  -20.49   18.16
  14  -2 -19   14.82   13.11
  14   2 -19   55.29   25.85
  14  -2 -18   30.87   17.83
  14   2 -18   42.84   21.94
  14  -2 -17    7.32    8.10
  14   2 -17   31.43   19.05
  14  -2 -16    3.54    7.39
  14   2 -16   17.47   14.92
  14  -2 -15   45.79   17.54
  14  -2 -15   19.79    4.86
  14  -2 -14    5.01    8.67
  14  -2 -14  -10.38   13.28
  14  -2 -13    6.66   10.01
  14  -2 -13  -15.40   18.35
  14   2 -12  -17.10   18.50
  14  -2 -12   -2.49   12.12
  14   2 -11   -4.65   14.65
  14  -2 -11   -1.77    9.24
  14   2 -10  -12.28   16.74
  14  -2  -9   24.26   12.74
  14   2  -9   11.69    8.73
  14  -2  -9   -8.36   12.39
  14  -2  -8   -1.02    3.52
  14  -2  -8   -9.51   12.40
  14  -2  -7    8.48    9.53
  14  -2  -7    5.70    7.82
  14  -2  -6    0.15    5.74
  14   2  -6   -4.76    5.64
  14  -2  -6    8.03    9.35
  14  -2  -5   29.67   16.09
  14  -2  -5    5.29    7.20
  14   2  -5    9.85    9.32
  14   2  -4   67.93   22.98
  14  -2  -4   41.40   16.35
  14  -2  -4   86.22   26.23
  14  -2  -3   77.68   26.26
  14   2  -3   54.68   21.03
  14   2  -3    4.99    7.58
  14   2  -2  117.84   30.38
  14   2  -2   60.29   22.17
  14  -2  -2   48.72   19.59
  14   2  -1   48.40   20.26
  14  -2  -1   41.45   19.14
  14   2   0   14.42    9.67
  14  -2   0    5.95    6.51
  14   2   1   51.22   20.55
  14  -2   1   52.62   22.34
  14   2   2   -0.95    4.55
  14  -2   2    0.92    8.44
  14   2   3   28.60   17.04
  14  -2   3   20.96   13.77
  14   2   4   15.47   14.63
 -14  -2  -4  -19.02   21.47
  14  -2   4   12.67   14.04
 -14   2  -5   29.22    8.61
 -14  -2  -5   24.35    9.29
 -14   2  -6  -28.54   27.00
 -14  -2  -6  -25.88   23.46
 -14   2  -7  -14.00   18.03
  14  -3 -19   98.21   30.59
  14  -3 -18    3.49    3.01
  14  -3 -17   -3.68    5.18
  14  -3 -16   -1.48    7.42
  14  -3 -15   15.75   10.46
  14  -3 -15   -1.57   14.79
  14  -3 -14   10.38    8.40
  14  -3 -14    3.02   10.77
  14  -3 -13    2.31    5.45
  14  -3 -13   -2.64   10.31
  14  -3 -12    3.23    5.78
  14  -3 -12  -15.09   17.57
  14   3 -11  -18.23   18.49
  14   3 -10   -8.54   13.31
  14  -3  -9   92.64   23.41
  14   3  -9  104.89   28.14
  14  -3  -9   90.72   25.98
  14  -3  -8   -2.28    5.60
  14   3  -8  -18.80   19.99
  14  -3  -8   -8.64   10.30
  14  -3  -7   54.96   18.91
  14   3  -7   35.49   11.69
  14  -3  -7   45.69   19.21
  14  -3  -6   -0.99    4.09
  14   3  -6   -3.85    5.46
  14  -3  -5   -0.46    2.70
  14   3  -5    4.00    0.87
  14   3  -4   31.47   14.76
  14  -3  -4   54.31   21.36
  14  -3  -4   16.70    9.58
  14   3  -3   41.41   19.81
  14  -3  -3    6.48    6.50
  14   3  -2   77.84   24.20
  14  -3  -2   10.51    8.26
  14  -3  -1   29.17   15.33
  14  -3   0    5.96    9.21
  14  -3   1   10.83    6.69
  14  -3   2    3.16    5.40
  14  -3   3    6.87   10.20
 -14  -3  -4  -10.54   19.64
  14  -3   4   18.01   15.05
 -14   3  -5  -22.04   19.71
 -14  -3  -5  -12.56   18.15
 -14   3  -6  -16.49   19.84
 -14   3  -7  -12.29   18.60
  14  -4 -19   -3.12    8.40
  14  -4 -18    5.56    4.63
  14  -4 -17   15.01   13.78
  14  -4 -17   -5.14   16.73
  14  -4 -16    2.14    5.72
  14  -4 -16  -18.15   19.13
  14  -4 -15   21.15   11.69
  14  -4 -15    6.62    9.64
  14  -4 -14   -2.85    6.11
  14  -4 -14   -9.72   15.84
  14  -4 -13   -5.48    8.81
  14  -4 -13   -5.78   11.94
  14  -4 -12    5.11    5.55
  14  -4 -12   -5.67   13.45
  14   4 -11  -15.51   18.68
  14  -4 -11  -35.71   17.94
  14   4 -10   -7.04   13.14
  14  -4 -10  -24.22   19.64
  14  -4  -9   63.97   19.23
  14   4  -9   48.59   18.27
  14  -4  -9   55.96   19.44
  14  -4  -8    1.58    4.94
  14   4  -8  -14.97   16.26
  14  -4  -8  -14.10   13.11
  14  -4  -7   -4.69    5.73
  14   4  -7  -15.44   14.03
  14  -4  -7    4.44    8.15
  14  -4  -6    5.89    3.38
  14   4  -6   -2.31    5.64
  14  -4  -6   12.38   12.16
  14  -4  -5    2.64    5.36
  14   4  -5    1.59    3.24
  14  -4  -4    1.61    3.37
  14   4  -4   15.78   12.47
  14   4  -3   35.58   17.53
  14  -4  -3    6.71    7.80
  14   4  -2   86.09   25.24
  14  -4  -2   31.62   14.77
  14  -4  -1   13.69    9.15
  14  -4   0   19.65   12.09
  14  -4   1   22.61   13.93
  14  -4   2    1.37    2.23
  14  -4   3   23.01   13.34
 -14  -4  -4  -35.51   25.32
  14  -4   4    4.49    7.57
 -14  -4  -5   68.15   23.73
 -14   4  -6  -17.27   21.67
 -14   4  -7   -5.94   14.54
  14  -5 -19   -4.06    7.35
  14  -5 -18    3.00    6.48
  14  -5 -17    3.02    6.85
  14  -5 -17  -19.24   18.20
  14  -5 -16   10.34    9.89
  14  -5 -16   -7.93   17.02
  14  -5 -15   -4.82    9.02
  14  -5 -15  -12.49   15.44
  14  -5 -14   59.78   20.37
  14  -5 -14   50.30   19.42
  14  -5 -13   -4.52    7.81
  14  -5 -13   -9.93   11.29
  14  -5 -12   11.06    5.56
  14   5 -10   -0.96   13.31
  14  -5 -10   -1.60   11.54
  14  -5  -9   14.04    7.47
  14   5  -9    0.68   11.84
  14  -5  -9    5.58    4.73
  14  -5  -8   14.96    9.50
  14   5  -8   14.18    8.93
  14  -5  -8   -4.97   10.74
  14  -5  -7    9.96    4.61
  14   5  -7    3.71   11.43
  14  -5  -7    6.37    7.24
  14  -5  -6    5.05    7.35
  14   5  -6   -7.78   11.20
  14  -5  -5    5.73    7.04
  14   5  -5   13.38    9.99
  14  -5  -4    8.27    5.86
  14   5  -4   15.05   12.20
  14   5  -3   28.70   15.58
  14  -5  -3   -2.05    2.46
  14   5  -2   62.73   21.50
  14  -5  -2    0.89    6.43
  14  -5  -1   28.89   15.59
  14  -5   0   11.57   10.00
  14  -5   1    1.03    4.90
  14  -5   2   20.03   12.89
  14  -5   3    5.67    8.41
 -14  -5  -4  -37.61   25.28
  14  -5   4   -7.48    9.73
 -14  -5  -5  -17.39   21.14
 -14   5  -6  -11.59   16.56
 -14   5  -7   -3.46   15.06
  14  -6 -19   -1.44    4.84
  14  -6 -18   -4.96   10.08
  14  -6 -17   -6.96    9.68
  14  -6 -16   19.24   11.39
  14  -6 -16   21.87    8.77
  14  -6 -15   44.88   18.82
  14  -6 -15   31.52   15.07
  14  -6 -14   -4.77    8.70
  14  -6 -14   -4.25    9.02
  14  -6 -13   -5.96    7.74
  14  -6 -13  -23.35   15.10
  14  -6 -12   -7.41    9.89
  14  -6 -12  -19.63   22.79
  14   6 -10   -7.16   12.91
  14  -6 -10   -2.25    9.48
  14  -6  -9    1.15    3.06
  14   6  -9   -5.45   12.97
  14  -6  -9  -15.11   11.49
  14  -6  -8    1.99    4.61
  14   6  -8   -3.73    9.46
  14  -6  -8    3.54    4.77
  14  -6  -7    0.86    2.43
  14   6  -7  -13.46   17.46
  14  -6  -7   18.91   13.78
  14  -6  -6   -3.35    6.95
  14   6  -6  -13.93   14.41
  14  -6  -5    7.17    7.28
  14   6  -5   -0.35    3.66
  14  -6  -4   52.13   19.53
  14   6  -4   68.85   20.54
  14  -6  -3   30.82   15.83
  14   6  -3   62.26   20.34
  14  -6  -2   50.89   19.43
  14   6  -2  116.20   27.45
  14  -6  -1   -4.47    5.88
  14  -6   0    5.93    8.27
  14  -6   1   -0.04    3.38
  14  -6   2   -5.71   11.65
  14  -6   3    4.27    7.58
 -14  -6  -4  -32.57   24.07
  14  -6   4    5.33    3.77
 -14   6  -6  -24.61   21.76
  14  -7 -18   -7.79   13.04
  14  -7 -17   -9.20    8.51
  14  -7 -16   10.25    8.51
  14  -7 -16    7.53    5.42
  14  -7 -15   -7.12   10.18
  14  -7 -15   -3.84   12.18
  14  -7 -14   28.58   10.99
  14  -7 -14   -3.54   15.68
  14  -7 -13    3.42    7.95
  14  -7 -12   49.62   16.42
  14  -7 -12   31.92   10.41
  14  -7 -10   18.70    7.80
  14  -7  -9    2.31    2.86
  14   7  -9   -4.38   12.30
  14  -7  -9   10.50   10.68
  14  -7  -8    8.10    6.90
  14   7  -8   -1.82   11.32
  14  -7  -8    4.80    8.33
  14  -7  -7   38.11   19.32
  14  -7  -7   24.81   12.41
  14   7  -7    3.28   12.27
  14  -7  -6    0.56    5.31
  14   7  -6  -16.11   15.34
  14  -7  -5   10.45    8.76
  14   7  -5   -2.74   10.90
  14  -7  -4    7.78    9.06
  14   7  -4    6.74    8.93
  14  -7  -3   30.48   16.31
  14   7  -3   72.21   21.84
  14  -7  -2   18.76   13.71
  14  -7  -1    8.05    8.24
  14  -7   0   20.84   12.79
  14  -7   1   -0.75    6.76
  14  -7   2   21.92   13.81
  14  -7   3   -3.37    7.94
 -14  -7  -4  -42.22   22.33
  14  -8 -18   -3.71   12.18
  14  -8 -17   26.72   11.96
  14  -8 -16   -6.65   11.94
  14  -8 -16   -2.26    9.30
  14  -8 -15   37.03   16.24
  14  -8 -15   35.40   14.15
  14  -8 -14  -11.85   12.59
  14  -8 -14  -27.48   21.76
  14  -8 -13   19.04   11.25
  14  -8 -13  -16.81   20.41
  14  -8 -12    4.23    8.82
  14  -8 -12  -22.57   18.35
  14  -8 -11   -8.23   14.45
  14  -8 -10  -10.20   15.74
  14  -8  -9   30.82   12.81
  14   8  -9   32.65   12.87
  14  -8  -9   32.79   14.68
  14  -8  -8   -4.84    3.12
  14   8  -8   -2.97   10.98
  14  -8  -7   20.55   16.40
  14  -8  -7    3.31    5.61
  14   8  -7  -16.99   14.56
  14  -8  -6    0.13    3.52
  14   8  -6  -17.45   16.70
  14  -8  -5    0.59    3.87
  14   8  -5  -10.00   11.18
  14  -8  -4    8.81    9.69
  14   8  -4    8.98    7.69
  14  -8  -3   43.77   19.36
  14  -8  -2   16.75   10.39
  14  -8  -1    2.81    3.99
  14  -8   0   -1.66    5.95
  14  -8   1    6.99    6.33
  14  -8   2   -4.45    8.33
  14  -8   3   27.12   16.28
  14  -9 -18   -3.75   12.34
  14  -9 -17    5.25    7.55
  14  -9 -16  -11.37   13.40
  14  -9 -15    4.71    6.06
  14  -9 -15   -9.36   19.85
  14  -9 -14   12.67   11.23
  14  -9 -14   -8.90   15.76
  14  -9 -13    8.00    7.89
  14  -9 -13   -6.00   14.71
  14  -9 -12    8.08    9.61
  14  -9 -12   -2.27   11.66
  14  -9 -11    5.51    3.61
  14  -9 -10    0.38    2.19
  14  -9  -9   70.10   20.58
  14   9  -9   48.90   17.21
  14  -9  -9   66.19   24.36
  14  -9  -8   15.83   13.49
  14  -9  -8   21.96   12.48
  14   9  -8    5.37    7.75
  14  -9  -7   83.50   27.83
  14  -9  -7   38.83   16.79
  14   9  -7   44.71   16.57
  14  -9  -6    5.41    6.54
  14   9  -6  -17.06   14.37
  14  -9  -5   41.94   18.70
  14   9  -5   22.27    9.54
  14  -9  -4    3.58    6.03
  14  -9  -3    2.31    7.16
  14  -9  -2   14.05   11.47
  14  -9  -1   -1.15    2.95
  14  -9   0   28.77   16.64
  14  -9   1   -0.75    3.88
  14  -9   2   -1.59    5.77
  14  -9   3    4.57    8.65
  14 -10 -18   -3.84   10.43
  14 -10 -17   21.00   11.23
  14 -10 -16    7.26    8.28
  14 -10 -15    5.36    7.94
  14 -10 -14    1.65    1.42
  14 -10 -13   10.03   10.30
  14 -10 -13  -20.07   17.92
  14 -10 -12    4.26    6.81
  14 -10 -12  -13.70   14.37
  14 -10 -11   10.79    6.45
  14 -10 -10    6.43    8.17
  14  10  -9  -11.57   15.32
  14 -10  -9    9.13    6.99
  14 -10  -9    9.20   10.91
  14  10  -8    1.22    6.66
  14 -10  -8    0.12    2.81
  14  10  -7   -0.94    6.54
  14 -10  -7   -0.98    3.47
  14 -10  -6    4.18    5.75
  14  10  -6  -10.80   14.30
  14 -10  -5   11.40    9.41
  14 -10  -4    0.57    0.98
  14 -10  -3    3.11    6.45
  14 -10  -2   24.05   15.52
  14 -10  -1    0.08    5.44
  14 -10   0    7.63    9.29
  14 -10   1   47.02   20.95
  14 -10   2    1.87    5.02
  14 -11 -17   31.23   17.53
  14 -11 -16   34.38   15.99
  14 -11 -15    7.21   10.05
  14 -11 -14   21.80   13.20
  14 -11 -14    2.25   11.38
  14 -11 -13    4.17    6.53
  14 -11 -13  -30.68   17.68
  14 -11 -12   29.26   15.15
  14 -11 -12   21.99   12.54
  14 -11 -11    3.81    5.47
  14 -11 -10    2.46    6.88
  14 -11  -9   40.67   19.57
  14 -11  -9   32.44   15.17
  14  11  -8   -4.84   11.90
  14 -11  -8    2.52    4.36
  14  11  -7    0.52    6.87
  14 -11  -7   15.93    9.79
  14 -11  -6   81.12   28.53
  14 -11  -6    3.06    5.33
  14 -11  -5   21.16   13.06
  14 -11  -4    0.26    3.35
  14 -11  -3    6.50   10.71
  14 -11  -2    7.42    8.24
  14 -11  -1    6.15    5.22
  14 -11   0   29.06   14.50
  14 -11   1    0.98    2.06
  14 -11   2   12.50   11.80
  14 -12 -17   11.07   12.90
  14 -12 -16    3.25    2.57
  14 -12 -15    7.90    7.98
  14 -12 -14    2.59    4.62
  14 -12 -14   -8.98   14.54
  14 -12 -13    8.25    8.45
  14 -12 -13   -1.24    7.21
  14 -12 -12   37.83   16.65
  14 -12 -12   48.42   22.03
  14 -12 -11   -0.07    6.27
  14 -12 -10   19.34   14.80
  14 -12  -9   39.34   21.22
  14 -12  -9   -0.69    1.23
  14 -12  -8    4.01    6.74
  14  12  -8   -6.09   11.25
  14 -12  -7    7.38    7.23
  14 -12  -7   59.96   24.94
  14 -12  -6    8.61    7.63
  14 -12  -6   85.81   30.71
  14 -12  -5   -0.13    3.49
  14 -12  -4   14.38    8.74
  14 -12  -3   -1.03    3.83
  14 -12  -2   33.37   16.77
  14 -12  -1   -3.98    7.38
  14 -12   0   -1.74    4.98
  14 -12   1    0.02    1.36
  14 -13 -16   12.43   10.29
  14 -13 -15   -1.57    8.12
  14 -13 -14   38.29   19.54
  14 -13 -13   13.70   10.60
  14 -13 -13   11.08    9.36
  14 -13 -12   39.87   17.30
  14 -13 -12   59.68   25.43
  14 -13 -11   21.68   15.77
  14 -13 -10   28.47   16.62
  14 -13  -9   38.73   20.58
  14 -13  -9    3.01    2.14
  14 -13  -8   46.39   24.24
  14 -13  -8    4.79    5.29
  14 -13  -7  111.67   33.56
  14 -13  -7   19.62   11.52
  14 -13  -6   -2.19    5.38
  14 -13  -5    3.72    7.07
  14 -13  -4    9.76    8.71
  14 -13  -3   -2.66    4.93
  14 -13  -2   -0.87    5.44
  14 -13  -1    3.56    3.81
  14 -13   0   36.09   19.89
  14 -13   1   10.73   10.86
  14 -14 -16   30.71   18.57
  14 -14 -15   -3.06   11.00
  14 -14 -14    4.04    5.23
  14 -14 -13    0.26    2.93
  14 -14 -12   -0.17    4.72
  14 -14 -12   16.49   14.79
  14 -14 -11   26.94   18.02
  14 -14 -10   55.99   25.14
  14 -14  -9   70.64   27.49
  14 -14  -9    1.95    3.25
  14 -14  -8   73.35   27.91
  14 -14  -8    1.97    2.30
  14 -14  -7   63.86   29.29
  14 -14  -7    8.17    9.75
  14 -14  -6   21.44   13.62
  14 -14  -5    5.53    7.67
  14 -14  -4    3.44    3.32
  14 -14  -3   19.19   13.13
  14 -14  -2   -2.10    7.27
  14 -14  -1   13.72   11.98
  14 -14   0   23.53   15.61
  14 -15 -15    3.83    6.64
  14 -15 -14   29.97   16.32
  14 -15 -13    4.66    6.58
  14 -15 -12    7.36    7.50
  14 -15 -11   27.76   20.57
  14 -15 -10   39.66   21.70
  14 -15  -9   63.51   27.10
  14 -15  -8   80.09   29.18
  14 -15  -8   16.66   10.87
  14 -15  -7  106.05   29.23
  14 -15  -6   -1.08    4.49
  14 -15  -5   37.61   18.38
  14 -15  -4    4.77    4.79
  14 -15  -3   -2.67    0.56
  14 -15  -2    4.39    4.22
  14 -15  -1   30.16   18.40
  14 -16 -15    5.87    5.23
  14 -16 -14   -0.83    6.05
  14 -16 -13   -6.85   10.33
  14 -16 -12   -2.12    5.11
  14 -16 -10   64.31   28.02
  14 -16  -9   63.21   28.54
  14 -16  -8    0.27    5.39
  14 -16  -7    9.28    9.80
  14 -16  -6    3.01    1.12
  14 -16  -5    5.74    5.46
  14 -16  -4   -3.09    7.74
  14 -16  -3   22.48   15.20
  14 -16  -2    6.65    8.02
  14 -16  -1   -0.88    7.05
  14 -17 -14   10.40   11.95
  14 -17 -13   -5.71    9.79
  14 -17  -8   40.08   17.91
  14 -17  -7   45.38   20.85
  14 -17  -6    3.17    4.84
  14 -17  -5   12.80   11.96
  14 -17  -4    5.98    7.81
  14 -17  -3   24.60   15.91
  14 -17  -2    0.52    8.03
  14 -18 -14   -5.05    8.91
  14 -18  -8    5.10    9.59
  14 -18  -7   18.84   13.50
  14 -18  -6   15.80   12.45
  14 -18  -5    9.59   10.79
  14 -18  -4    6.53    7.55
  14 -18  -3    3.55    5.80
  14 -19  -8    0.51    7.09
  14 -19  -7    6.01    6.12
  14 -19  -6    1.48    3.25
  14 -19  -5   24.21   15.01
  14 -19  -4   -3.72    1.40
  14 -20  -8    5.35    7.38
  14 -20  -7    5.30    3.82
  14 -20  -6    9.40   12.92
  14 -21  -7   31.17   16.86
  15   0 -19   19.26   16.17
  15   0 -18   11.97   14.11
  15   0 -17   36.90   18.06
  15   0 -15    2.66   11.72
  15   0 -14  -13.89   15.49
  15   0 -13  -15.77   16.99
  15   0 -12   -6.10   10.74
  15   0 -11   20.55   11.28
  15   0 -10  -15.80   18.84
  15   0  -9  -28.48   15.86
  15   0  -8   -9.23   12.38
  15   0  -7   31.23   15.32
  15   0  -6    5.39    8.31
  15   0  -6    8.60   10.80
  15   0  -5   73.25   24.77
  15   0  -5   52.51   19.37
  15   0  -4   31.43   19.20
  15   0  -4    5.99   10.61
  15   0  -3   51.30   22.84
  15   0  -3   12.85   11.61
  15   0  -2    5.42    7.71
  15   0  -1   11.30   11.25
  15   0   0    2.74    8.36
  15   0   1    9.36   11.49
  15   0   2    4.88   11.71
  15  -1 -19   31.61   19.03
  15   1 -19   40.00   22.07
  15  -1 -18    3.50    9.67
  15   1 -18   17.50   14.73
  15  -1 -17   23.87   15.01
  15   1 -17   51.16   22.49
  15  -1 -16  -16.67   20.75
  15  -1 -15  -12.97   16.41
  15   1 -14  -17.51   18.21
  15  -1 -14    0.68   11.00
  15   1 -13    0.98   10.50
  15  -1 -13    3.73    6.40
  15   1 -12  -13.22   15.72
  15  -1 -12  -11.31   14.51
  15   1 -11   -8.36   12.28
  15   1 -10  -29.20   23.48
  15  -1 -10  -24.85   19.41
  15   1  -9  -12.53   14.75
  15  -1  -9  -32.51   16.96
  15  -1  -8    9.42    7.96
  15   1  -8   -7.80   13.46
  15  -1  -8    0.75    6.81
  15  -1  -7    4.59    5.87
  15   1  -7    5.31    7.27
  15  -1  -7    4.66    8.19
  15  -1  -6   -0.85    2.41
  15   1  -6    3.36    5.13
  15  -1  -6   10.77   13.41
  15   1  -5   18.58   13.42
  15  -1  -5   48.21   20.82
  15  -1  -5   10.51   10.29
  15   1  -4   41.08   18.94
  15  -1  -4   39.78   20.28
  15   1  -4    7.07    8.80
  15  -1  -4    4.99    7.48
  15   1  -3   27.00   16.12
  15  -1  -3   15.31   11.64
  15   1  -2   20.78   14.90
  15  -1  -2    2.50    2.10
  15   1  -1   13.21   10.89
  15  -1  -1   17.96   12.44
  15   1   0    7.96   13.53
  15  -1   0    3.45    8.05
  15   1   1   16.49   15.29
  15  -1   1   15.94   11.36
  15   1   2   11.10   14.50
  15  -1   2   12.64   12.42
  15  -2 -19    8.49   10.90
  15  -2 -18   23.02   16.47
  15  -2 -17   37.29   19.50
  15  -2 -15  -10.06   15.19
  15   2 -14   58.73   23.61
  15  -2 -14   56.02   22.16
  15   2 -13  -10.33   13.98
  15  -2 -13   -6.82   11.07
  15   2 -12   18.52    9.53
  15  -2 -12   11.87    6.42
  15   2 -11  -10.40   13.11
  15   2 -10  -18.71   17.92
  15  -2 -10   -7.16   13.06
  15   2  -9   -4.08   13.49
  15  -2  -9   13.10    6.82
  15  -2  -8    4.02    6.44
  15   2  -8   -7.63   13.09
  15  -2  -8   -8.06   10.11
  15  -2  -7   69.40   21.92
  15   2  -7   65.24   21.93
  15  -2  -7   73.23   24.67
  15  -2  -6   34.43   20.48
  15  -2  -6   19.76   12.43
  15   2  -6   21.90   13.91
  15   2  -5   11.95   11.38
  15  -2  -5    4.01    8.58
  15   2  -4   34.81   18.88
  15  -2  -4    5.04    6.36
  15   2  -3   78.04   26.03
  15  -2  -3   22.93   14.80
  15  -2  -2   23.39   14.29
  15  -2  -1    3.24    8.15
  15  -2   0   16.82   12.75
  15  -2   1    1.76    7.28
  15  -2   2    6.34    7.92
  15  -3 -19   65.44   26.48
  15  -3 -18   13.33   11.99
  15  -3 -17    8.75   12.15
  15  -3 -15  -13.08   18.12
  15  -3 -14   15.87   11.04
  15   3 -13   -8.90   15.89
  15  -3 -13  -13.64   16.77
  15   3 -12   20.24    7.61
  15  -3 -12   12.59    8.48
  15   3 -11  -13.65   13.65
  15  -3 -11  -18.62   18.35
  15   3 -10   10.01    5.86
  15  -3 -10  -10.06   16.58
  15  -3  -9   -7.32    8.14
  15  -3  -8    9.49    7.90
  15  -3  -8   -5.33    8.24
  15  -3  -7    4.44    8.49
  15   3  -7  -15.34   14.05
  15  -3  -7   10.28   12.57
  15  -3  -6   70.85   25.29
  15  -3  -6   61.93   21.75
  15   3  -6   63.55   21.25
  15  -3  -5   53.67   23.92
  15  -3  -5   12.63   10.39
  15   3  -5   30.91   16.06
  15   3  -4   53.25   20.56
  15  -3  -4   26.21   14.06
  15   3  -3   51.30   22.36
  15  -3  -3   -1.24    6.21
  15  -3  -2    9.24   11.15
  15  -3  -1   26.27   16.15
  15  -3   0    8.29    9.10
  15  -3   1    5.34    8.39
  15  -3   2    0.62    5.08
  15  -4 -18    8.38    4.42
  15  -4 -17    0.57    1.82
  15  -4 -15    3.83    6.61
  15  -4 -14   23.19   13.28
  15   4 -13   10.47    5.07
  15  -4 -13    2.08   12.61
  15   4 -12   48.96   18.02
  15  -4 -12   35.52   11.19
  15   4 -11   -7.90   14.87
  15  -4 -11  -38.22   19.25
  15   4 -10    1.59    5.25
  15  -4 -10   -5.96   13.10
  15  -4  -9  -10.18   12.12
  15  -4  -8   12.78    7.84
  15   4  -8  -10.35   14.90
  15  -4  -8   14.11   11.82
  15  -4  -7   18.05   11.43
  15   4  -7   -4.02   11.01
  15  -4  -7   35.85   19.14
  15  -4  -6   26.92   18.68
  15  -4  -6    6.95    9.57
  15   4  -6    5.24    7.93
  15  -4  -5   55.48   24.12
  15  -4  -5   27.08   13.45
  15   4  -5   37.54   17.85
  15   4  -4   56.52   21.64
  15  -4  -4   76.13   28.64
  15  -4  -4    4.56    6.03
  15   4  -3   48.20   20.57
  15  -4  -3    1.82    5.66
  15  -4  -2   49.46   20.41
  15  -4  -1    4.81    8.05
  15  -4   0   15.96   10.45
  15  -4   1   -0.97    4.83
  15  -4   2    3.60    2.61
  15  -5 -18    8.91   10.24
  15  -5 -17   -0.01    2.41
  15  -5 -16    3.10    6.07
  15  -5 -15    3.00    3.90
  15  -5 -13  -23.63   20.90
  15   5 -12   16.11    2.34
  15  -5 -12   10.60    9.63
  15   5 -11  -10.18   14.16
  15  -5 -11  -16.36   17.59
  15   5 -10    1.33   11.37
  15  -5 -10  -11.35   15.37
  15   5  -9   -8.11   10.21
  15  -5  -9   -3.41    6.28
  15  -5  -8   -0.49    4.80
  15  -5  -8   10.79   11.08
  15  -5  -7   -0.13    3.00
  15   5  -7  -10.60   13.65
  15  -5  -6    4.51    3.07
  15   5  -6    6.84    5.46
  15  -5  -5   46.19   23.70
  15  -5  -5   -1.61    1.90
  15   5  -5   23.15   14.05
  15   5  -4   32.64   16.36
  15  -5  -4    3.38    5.11
  15   5  -3   53.90   20.87
  15  -5  -3   -8.14   11.35
  15  -5  -2   -3.03    6.17
  15  -5  -1    6.29    6.83
  15  -5   0   -0.07    8.61
  15  -5   1   28.14   16.92
  15  -6 -18   -1.10    5.95
  15  -6 -17   -7.06   12.48
  15  -6 -16   -2.11    2.52
  15  -6 -14  -22.97   20.60
  15   6 -12  -17.54   17.85
  15  -6 -12  -25.16   18.39
  15   6 -11   -1.11   13.85
  15  -6 -11   -9.29   15.41
  15   6 -10   -3.65    7.28
  15  -6 -10  -10.34   11.14
  15   6  -9   10.60    3.64
  15  -6  -9   24.26   16.94
  15  -6  -8    7.27    7.04
  15   6  -8  -16.74   18.70
  15  -6  -8   15.12   13.03
  15  -6  -7   43.92   21.98
  15  -6  -7   23.39   12.29
  15   6  -7    8.86    7.35
  15  -6  -6    4.13    1.54
  15   6  -6   -1.02    7.34
  15  -6  -5  101.21   31.96
  15  -6  -5   53.90   20.26
  15   6  -5   56.13   20.58
  15   6  -4   43.84   19.74
  15  -6  -4   34.69   16.15
  15  -6  -3    3.40    2.67
  15  -6  -2    3.22    4.00
  15  -6  -1    0.92    5.85
  15  -6   0    4.60    2.76
  15  -6   1   -1.59    7.61
  15  -7 -18   -0.21    4.41
  15  -7 -17   10.34    8.52
  15  -7 -16  -10.95   13.24
  15  -7 -13  -20.75   19.22
  15  -7 -12   -5.37   11.89
  15   7 -11    9.25    6.93
  15  -7 -11    2.79    3.92
  15   7 -10    2.67    7.65
  15  -7 -10   18.96   11.04
  15   7  -9   -4.07    9.05
  15  -7  -9   12.86   13.26
  15  -7  -8   11.15   12.55
  15  -7  -8    7.43    7.45
  15   7  -8  -21.39   18.09
  15  -7  -7   38.62   17.26
  15   7  -7   29.30   13.08
  15  -7  -6   -1.72    5.69
  15   7  -6   -3.14    8.19
  15  -7  -5    6.78    6.01
  15   7  -5   11.47   10.00
  15  -7  -4   13.01    6.76
  15  -7  -3    1.30    4.16
  15  -7  -2   -5.80    6.97
  15  -7  -1    6.82    8.52
  15  -7   0   17.61   13.99
  15  -7   1   28.68   16.95
  15  -8 -18   -1.26    5.38
  15  -8 -17   -5.31    9.68
  15  -8 -16   36.48   17.57
  15  -8 -13  -33.14   18.80
  15  -8 -12   16.79   15.02
  15   8 -11   -8.27   16.73
  15  -8 -11    0.07    4.04
  15   8 -10    8.39    3.07
  15  -8 -10   42.60   19.03
  15   8  -9  -14.88   13.51
  15  -8  -9   11.33   11.30
  15  -8  -8   23.10   16.89
  15  -8  -8    2.56    6.06
  15  -8  -7   33.38   16.60
  15   8  -7   11.18    6.48
  15  -8  -6   22.29   12.64
  15   8  -6    2.33    5.78
  15  -8  -5    3.29    7.95
  15  -8  -4   53.03   22.38
  15  -8  -3   15.81   12.32
  15  -8  -2   39.62   18.45
  15  -8  -1   10.32   10.52
  15  -8   0   15.57   12.40
  15  -8   1   13.00   11.19
  15  -9 -17   -2.34   10.52
  15  -9 -16    3.14    4.43
  15  -9 -13  -19.42   14.36
  15  -9 -12   12.22    8.64
  15   9 -11  -11.73   15.11
  15  -9 -11  -12.64   11.28
  15   9 -10  -11.76   18.25
  15  -9 -10    7.41    9.26
  15  -9  -9   30.31   17.37
  15   9  -9    4.07    7.77
  15  -9  -8   -0.87    2.57
  15   9  -8  -19.63   16.39
  15  -9  -7    6.25    7.33
  15   9  -7  -11.51   11.98
  15  -9  -6  111.85   34.27
  15  -9  -6   22.91   12.56
  15  -9  -5    8.07    9.30
  15  -9  -4   94.37   28.74
  15  -9  -3   24.44   15.66
  15  -9  -2    4.78    8.07
  15  -9  -1   29.66   16.94
  15  -9   0    3.88    6.03
  15 -10 -17   -8.72   10.36
  15 -10 -16   26.61    9.54
  15 -10 -12   -1.17    4.24
  15 -10 -11   19.06   13.52
  15  10 -10   -8.18   13.27
  15 -10 -10    9.54   12.11
  15 -10  -9   39.67   20.65
  15  10  -9    3.04    9.79
  15 -10  -8    7.33    9.25
  15  10  -8   -5.29   13.64
  15 -10  -7   53.29   24.00
  15 -10  -7   25.90   13.55
  15 -10  -6   98.62   32.26
  15 -10  -6    3.38    4.01
  15 -10  -5   38.88   18.53
  15 -10  -4    9.90   10.07
  15 -10  -3    9.82   10.38
  15 -10  -2   68.90   25.65
  15 -10  -1    3.53    6.66
  15 -10   0    7.46    9.03
  15 -11 -17  -14.56   15.47
  15 -11 -16    9.85   10.36
  15 -11 -11   41.33   21.82
  15 -11 -10   18.80   16.11
  15  11 -10   -8.71   14.07
  15 -11  -9   57.79   25.10
  15  11  -9   -4.26   10.62
  15 -11  -8   45.60   24.97
  15 -11  -8   -1.21    5.33
  15 -11  -7   82.75   30.41
  15 -11  -7   27.46   14.02
  15 -11  -6   32.30   15.66
  15 -11  -5    5.41    7.65
  15 -11  -4   25.75   15.24
  15 -11  -3    2.55    4.48
  15 -11  -2    5.08    7.90
  15 -11  -1    2.98    8.49
  15 -12 -16    5.87    9.54
  15 -12 -10   35.54   21.90
  15  12 -10   -4.81   16.16
  15 -12  -9   90.35   31.64
  15 -12  -8   52.32   25.41
  15 -12  -8   -3.33    5.80
  15 -12  -7  130.59   37.28
  15 -12  -7   39.41   17.47
  15 -12  -6    3.34    2.07
  15 -12  -5   16.42   11.77
  15 -12  -4    5.68    8.55
  15 -12  -3    1.35    3.65
  15 -12  -2    8.18   10.48
  15 -12  -1   23.54   16.17
  15 -13  -8   78.49   29.75
  15 -13  -8   16.87   10.15
  15 -13  -7   43.10   19.25
  15 -13  -6    3.84    8.14
  15 -13  -5   13.96   11.23
  15 -13  -4    5.12    8.45
  15 -13  -3   -0.54    1.63
  15 -13  -2    8.30    9.39
  15 -14  -8    0.40    3.84
  15 -14  -7    3.46    4.41
  15 -14  -6   16.06   11.53
  15 -14  -5   -4.35    7.14
  15 -14  -4    5.29    6.00
  15 -14  -3    1.37    1.93
  15 -15  -8    6.08    4.79
  15 -15  -7   -3.37    7.59
  15 -15  -6    9.40    7.54
  15 -15  -5   -0.55    1.52
  15 -15  -4    2.67    4.15
  15 -15  -3    4.85    9.12
  15 -16  -7    3.47    3.74
  15 -16  -6    4.15    8.93
  15 -16  -5   -3.56    8.01
  15 -16  -4   12.22   12.16
  15 -17  -7   -1.32    1.88
  15 -17  -6   33.90   18.34
  15 -17  -5   -2.76    7.78
  15 -18  -7   29.97   16.46
  15 -18  -6    6.42    8.03
  16   0 -14   -4.75   12.25
  16   0 -13    2.38    7.78
  16   0 -11  -15.15   16.30
  16   0 -10  -32.76   17.81
  16   0  -9   -7.32   11.63
  16   0  -8   17.12    8.66
  16   0  -7   14.95   12.58
  16   0  -6   45.28   21.52
  16   0  -5   41.98   21.08
  16   0  -5    3.93    7.86
  16   0  -4   66.24   27.07
  16   0  -4    6.99   10.19
  16   0  -3   -1.73    4.87
  16   0  -2    7.86   12.10
  16   0  -1   10.27   13.45
  16   1 -14   -2.06   14.61
  16   1 -13   -6.17   11.81
  16  -1 -13  -25.44   21.35
  16   1 -12  -32.17   18.02
  16   1 -11  -17.74   16.60
  16  -1 -11  -15.23   17.54
  16   1 -10   -7.81   14.27
  16  -1 -10    2.27    6.45
  16   1  -9    7.54    3.19
  16  -1  -9   11.56    7.57
  16   1  -8   -0.21    6.03
  16  -1  -8   16.37   12.93
  16  -1  -7    3.11    7.78
  16   1  -7    0.47    4.32
  16  -1  -7    6.13   10.29
  16   1  -6   25.40   16.13
  16  -1  -6   29.98   18.18
  16  -1  -6    9.92   11.28
  16   1  -5   40.55   20.90
  16  -1  -5   64.69   24.72
  16  -1  -5    0.38    5.12
  16   1  -4  125.26   32.65
  16  -1  -4  123.56   34.00
  16  -1  -4   45.10   21.06
  16  -1  -3    7.37    9.28
  16  -1  -2   38.22   19.75
  16  -1  -1   20.94   16.17
  16   2 -14   -5.95   15.53
  16   2 -13    7.41    3.09
  16  -2 -13  -13.96   19.42
  16   2 -12   13.31    2.41
  16  -2 -12  -17.97   19.48
  16   2 -11  -19.02   18.71
  16  -2 -11  -12.95   16.50
  16   2 -10  -12.97   14.44
  16  -2 -10  -11.00   11.46
  16   2  -9   -8.34   12.67
  16  -2  -9    6.47    7.08
  16  -2  -8   -0.84    4.47
  16   2  -8  -10.46    8.89
  16  -2  -8    4.23    8.99
  16  -2  -7   21.48   18.01
  16  -2  -7    6.57    7.89
  16   2  -7    9.15   10.18
  16   2  -6   19.47   14.44
  16  -2  -6   38.16   21.88
  16  -2  -6    7.97    4.97
  16   2  -5   49.84   21.24
  16  -2  -5   49.35   23.90
  16  -2  -5    9.15    8.90
  16   2  -4   58.84   24.05
  16  -2  -4    0.03    6.03
  16  -2  -3    3.22    6.89
  16  -2  -2    6.74   10.23
  16  -2  -1   25.91   18.14
  16   3 -14  -19.55   19.96
  16   3 -13  -10.20   15.38
  16   3 -12   -1.46    8.02
  16  -3 -12  -15.91   17.05
  16   3 -11   35.74   11.67
  16  -3 -11   29.54   12.13
  16   3 -10  -35.64   18.32
  16  -3 -10    0.20    5.19
  16   3  -9   -9.17   14.56
  16  -3  -9   10.99    9.83
  16  -3  -8    5.42    8.85
  16   3  -8   -4.89    6.18
  16  -3  -7   35.36   20.43
  16  -3  -7   15.08   11.45
  16   3  -7   18.45   13.11
  16  -3  -6    5.84    9.06
  16   3  -6    5.88    8.12
  16   3  -5   29.61   18.71
  16  -3  -5   12.32   10.98
  16   3  -4   60.75   22.77
  16  -3  -4    6.04    5.37
  16  -3  -3    3.73    8.48
  16  -3  -2   -2.01    5.99
  16  -3  -1   11.23   12.06
  16   4 -14  -14.09   19.84
  16   4 -13  -11.95   15.46
  16   4 -12   -7.72   12.27
  16   4 -11   -9.98   15.49
  16  -4 -11  -11.32   13.11
  16   4 -10  -19.63   20.70
  16  -4 -10    4.62    6.31
  16   4  -9   -4.70   12.57
  16  -4  -9   31.04   16.42
  16  -4  -8   -1.36    2.66
  16  -4  -8   26.15   17.46
  16  -4  -7   52.18   23.80
  16  -4  -7   13.93   11.65
  16   4  -7   28.09   16.13
  16  -4  -6   38.30   20.93
  16  -4  -6    5.21    7.65
  16   4  -6   19.97   14.18
  16   4  -5   33.82   17.65
  16  -4  -5    1.62    5.15
  16   4  -4   46.97   21.49
  16  -4  -4   -4.04    6.88
  16  -4  -3    5.40    3.67
  16  -4  -2   -3.01    5.84
  16  -4  -1   20.18   12.72
  16   5 -14  -13.10   17.34
  16   5 -13   -9.91   14.26
  16   5 -12  -10.90   18.77
  16  -5 -12  -23.70   15.89
  16   5 -11   20.67   11.74
  16  -5 -11    6.79    5.15
  16   5 -10   -8.99   18.23
  16  -5 -10   11.19   10.34
  16   5  -9   18.04    4.26
  16  -5  -9   25.42   15.82
  16  -5  -8   -1.48    1.16
  16   5  -8   -3.99    8.71
  16  -5  -7    4.09    3.82
  16   5  -7   -4.88    7.86
  16  -5  -6    6.34    7.91
  16   5  -6   22.39   14.32
  16   5  -5   21.65   16.00
  16  -5  -5   -3.57    4.57
  16  -5  -4   17.27   11.25
  16  -5  -3   -6.81    9.78
  16  -5  -2    3.21    7.70
  16  -5  -1   -0.03    6.26
  16   6 -14   -2.16   14.63
  16   6 -13   10.24    4.00
  16   6 -12   26.58   12.15
  16   6 -11    9.11    7.54
  16  -6 -11    9.27    9.15
  16  -6 -10    1.73    5.72
  16   6  -9  -18.37   16.31
  16  -6  -9    8.64   10.80
  16  -6  -8   43.49   22.09
  16   6  -8    5.15    8.79
  16  -6  -7    4.65    3.59
  16   6  -7   -2.68    6.11
  16  -6  -6   45.79   19.79
  16   6  -6   36.83   19.58
  16  -6  -6  102.85   34.33
  16  -6  -5   16.23   11.33
  16  -6  -4    4.57    4.40
  16  -6  -3    0.09    7.54
  16  -6  -2   -0.14    6.90
  16   7 -13   -5.59   16.32
  16   7 -12   -5.46   13.89
  16   7 -11    3.30    6.96
  16  -7 -11    6.03    5.75
  16   7 -10  -13.34   16.43
  16  -7 -10   31.26   17.48
  16  -7  -9   26.24   17.62
  16   7  -9  -24.98   19.33
  16  -7  -8   51.18   24.82
  16  -7  -7    3.92    3.33
  16   7  -7    5.88    2.34
  16  -7  -6   79.06   29.74
  16  -7  -6   -0.71    4.55
  16  -7  -5    1.57    4.83
  16  -7  -4   48.02   21.14
  16  -7  -3    4.13    7.65
  16  -7  -2    3.28    6.27
  16   8 -13  -15.25   20.65
  16   8 -12   -4.54   12.58
  16   8 -11   -6.24   12.22
  16   8 -10   -4.43   11.29
  16  -8 -10   10.34   12.99
  16  -8  -9   34.96   21.18
  16   8  -9   -8.39   16.38
  16  -8  -8   76.20   29.80
  16   8  -8    8.74    3.66
  16  -8  -7   45.85   23.97
  16  -8  -7   -2.65    3.39
  16  -8  -6  109.67   34.73
  16  -8  -6    4.83    3.95
  16  -8  -5   18.70   12.73
  16  -8  -4    4.56    7.09
  16  -8  -3   14.79   12.94
  16  -8  -2    3.55    9.95
  16   9 -13  -15.94   20.36
  16   9 -12  -13.49   18.32
  16   9 -11   38.35   17.21
  16   9 -10    1.12    5.55
  16   9  -9    3.36   12.74
  16  -9  -8   65.38   28.47
  16  -9  -7   67.35   28.06
  16  -9  -7   -3.31   10.21
  16  -9  -6    4.14    4.10
  16  -9  -5   -1.48    6.30
  16  -9  -4    5.92   10.04
  16  -9  -3   19.38   14.31
  16  10 -12   -7.65   17.11
  16  10 -11   -4.70   12.36
  16  10 -10   -4.63   12.58
  16 -10  -7   10.28    6.96
  16 -10  -6   11.65    9.31
  16 -10  -5   43.63   20.36
  16 -10  -4    4.17    7.53
  16 -10  -3   13.37    9.28
  16  11 -12  -14.89   20.07
  16  11 -11  -17.40   16.92
  16 -11  -7    0.23    1.08
  16 -11  -6    7.49    8.47
  16 -11  -5   11.30   10.42
  16 -11  -4   32.29   18.09
  16  12 -12  -17.84   18.62
  16 -12  -7    1.60    4.18
  16 -12  -6    2.01    2.43
  16 -12  -5    2.86    6.20
  16 -12  -4   11.35   11.01
  16 -13  -7    2.47    4.09
  16 -13  -6   15.57   12.13
  16 -13  -5    4.90    5.58
  16 -14  -7   11.36   10.28
  16 -14  -6   -6.23    7.74
  16 -15  -7    5.91    9.05
  17   0 -11   -5.93   10.99
  17   0 -10  -17.57   17.19
  17   0  -9    9.05    7.53
  17   0  -8   13.25   12.20
  17   0  -7   40.54   21.69
  17   0  -6   55.80   24.07
  17   0  -5  102.92   32.02
  17   1 -11  -14.01   16.46
  17   1 -10  -21.76   18.42
  17  -1 -10    6.28    8.19
  17   1  -9   16.19   12.50
  17  -1  -9   33.56   19.56
  17  -1  -8   24.60   17.33
  17   1  -8   17.53   15.22
  17   1  -7   53.18   23.17
  17  -1  -7   60.07   24.98
  17   1  -6   45.03   22.33
  17  -1  -6   89.57   30.38
  17   1  -5   83.55   29.23
  17  -1  -5  115.12   33.25
  17  -1  -5   15.93   13.39
  17  -1  -4   11.50   12.41
  17   2 -11    1.63   11.77
  17   2 -10   -2.89   11.41
  17  -2 -10    7.47    8.75
  17   2  -9   -5.88    9.52
  17  -2  -9   18.87   15.26
  17  -2  -8   65.32   26.13
  17   2  -8   39.98   20.85
  17   2  -7   24.94   17.23
  17  -2  -7   48.49   24.40
  17  -2  -7    9.05   12.36
  17   2  -6   57.95   23.50
  17  -2  -6   72.13   27.54
  17  -2  -6   12.75   11.47
  17   2  -5   70.50   27.69
  17  -2  -5   10.23   11.86
  17  -2  -4   -2.98    6.11
  17   3 -12  -12.42   19.26
  17   3 -11   -9.16   15.36
  17   3 -10  -38.52   19.59
  17   3  -9   -2.55    7.34
  17  -3  -9   17.39   15.88
  17  -3  -8   54.84   25.13
  17   3  -8    7.84    8.10
  17   3  -7   48.51   21.82
  17  -3  -7   58.95   26.68
  17  -3  -7   19.78   15.14
  17   3  -6   37.50   21.41
  17  -3  -6   67.66   27.64
  17  -3  -6    0.89    7.25
  17   3  -5   72.76   26.17
  17  -3  -5    4.20    7.41
  17  -3  -4   14.09   10.86
  17   4 -12  -15.79   23.80
  17   4 -11  -39.06   19.99
  17   4  -9  -11.06   12.14
  17  -4  -8   51.15   25.55
  17   4  -8    8.88   10.69
  17  -4  -7    5.41    8.95
  17   4  -7   10.80   13.03
  17  -4  -6  129.49   36.87
  17  -4  -6   38.38   19.91
  17   4  -6  100.36   29.62
  17  -4  -5    9.11   10.20
  17  -4  -4    3.57    7.25
  17   5 -12  -25.22   22.30
  17   5 -11  -17.10   19.62
  17   5 -10   -1.81   15.85
  17   5  -9    2.69    4.47
  17   5  -8    2.67    7.29
  17  -5  -7   11.19   11.85
  17   5  -7   14.61   13.40
  17  -5  -6   99.60   34.37
  17  -5  -6    5.47    5.82
  17  -5  -5    4.74    7.14
  17  -5  -4   13.03    9.76
  17   6 -12  -23.01   19.71
  17   6 -11   -6.38   15.72
  17   6  -9  -17.41   15.52
  17   6  -8    1.10    8.81
  17  -6  -6    9.00    7.97
  17  -6  -5    4.65    8.66
  17   7 -12   -3.17   10.14
  17   7 -11  -27.16   20.59
  17   7 -10  -26.58   20.21
  17   7  -9  -12.87   14.92
  17  -7  -6    3.17    4.95
  17  -7  -5   -0.35    6.67
  17   8 -12   -0.90   10.43
  17   8 -11  -35.27   23.43
  17   8 -10  -35.75   23.35
  17  -8  -6   29.31   16.76
  17  -8  -5    3.95    8.21
  17   9 -12  -12.17   15.21
  17   9 -11  -12.47   16.64
  17  -9  -6    2.20    4.22
  17  10 -12   -9.68   14.78
  17 -10  -6   51.18   22.33
  18   1  -7   45.06   22.62
  18   1  -6   91.15   31.64
  18   2  -8   35.51   20.58
  18   2  -7   48.13   23.73
  18   3  -8   20.72   15.79
  18   3  -7   58.35   25.74
  18   4  -9   10.78   11.45
  18   4  -8   32.79   19.45
  18   5  -9    4.81    4.76
   0   0   0    0.00    0.00
;
_shelx_hkl_checksum              21356
loop_
_space_group_symop_operation_xyz
'x, y, z'
'-x+1/2, y+1/2, -z+1/2'
'-x, -y, -z'
'x-1/2, -y-1/2, z-1/2'
loop_
_atom_site_label
_atom_site_type_symbol
_atom_site_fract_x
_atom_site_fract_y
_atom_site_fract_z
_atom_site_U_iso_or_equiv
_atom_site_adp_type
_atom_site_occupancy
_atom_site_site_symmetry_order
_atom_site_calc_flag
_atom_site_refinement_flags_posn
_atom_site_refinement_flags_adp
Mn1 Mn 0.37419(4) 0.67172(2) 0.17653(3) 0.02345(15) Uani 1 1 d . .
C1 C 0.5265(3) 0.63682(18) 0.1783(2) 0.0297(11) Uani 1 1 d . .
N1 N 0.5985(3) 0.61338(17) 0.17387(18) 0.0508(11) Uani 1 1 d . .
C(A1 C 0.2579(3) 0.57253(15) 0.22111(19) 0.0248(9) Uani 1 1 d . .
C(A2 C 0.2363(3) 0.57332(16) 0.09380(19) 0.0223(9) Uani 1 1 d . .
C(A3 C 0.2577(3) 0.64130(17) -0.0023(2) 0.0256(9) Uani 1 1 d . .
C(A4 C 0.3019(3) 0.72525(16) 0.00685(19) 0.0224(9) Uani 1 1 d . .
C(A5 C 0.3645(3) 0.79098(15) 0.1180(2) 0.0230(9) Uani 1 1 d . .
C(A6 C 0.3961(3) 0.78817(16) 0.24706(19) 0.0231(9) Uani 1 1 d . .
C(A7 C 0.3856(3) 0.71894(16) 0.3436(2) 0.0276(10) Uani 1 1 d . .
C(A8 C 0.3323(3) 0.63589(15) 0.33423(19) 0.0234(9) Uani 1 1 d . .
C(B1 C 0.2060(3) 0.52325(15) 0.18768(19) 0.0261(9) Uani 1 1 d . .
H(BA H 0.1857 0.4955 0.2154 0.031 Uiso 1 1 calc R U
C(B2 C 0.1924(3) 0.52468(16) 0.1097(2) 0.0274(9) Uani 1 1 d . .
H(BB H 0.1596 0.4981 0.0719 0.033 Uiso 1 1 calc R U
C(B3 C 0.2502(3) 0.65879(17) -0.0816(2) 0.0294(10) Uani 1 1 d . .
H(BC H 0.2313 0.6379 -0.1284 0.035 Uiso 1 1 calc R U
C(B4 C 0.2755(3) 0.71068(16) -0.0751(2) 0.0285(10) Uani 1 1 d . .
H(BD H 0.2757 0.7334 -0.1172 0.034 Uiso 1 1 calc R U
C(B5 C 0.3841(3) 0.84449(16) 0.14697(19) 0.0271(10) Uani 1 1 d . .
H(BE H 0.3832 0.8752 0.1163 0.033 Uiso 1 1 calc R U
C(B6 C 0.4039(3) 0.84248(15) 0.22642(19) 0.0248(9) Uani 1 1 d . .
H(BF H 0.4200 0.8716 0.2619 0.030 Uiso 1 1 calc R U
C(B7 C 0.3769(3) 0.70369(16) 0.4197(2) 0.0279(10) Uani 1 1 d . .
H(BG H 0.3916 0.7255 0.4652 0.033 Uiso 1 1 calc R U
C(B8 C 0.3446(3) 0.65334(16) 0.4139(2) 0.0287(10) Uani 1 1 d . .
H(BH H 0.3320 0.6329 0.4544 0.034 Uiso 1 1 calc R U
C(M1 C 0.2852(3) 0.58757(15) 0.3015(2) 0.0237(9) Uani 1 1 d . .
C(M2 C 0.2333(3) 0.59014(16) 0.01746(19) 0.0227(9) Uani 1 1 d . .
C(M3 C 0.3331(3) 0.77651(16) 0.03784(18) 0.0217(9) Uani 1 1 d . .
C(M4 C 0.4024(3) 0.77046(16) 0.32340(19) 0.0236(9) Uani 1 1 d . .
N2 N 0.2738(2) 0.60195(12) 0.16243(15) 0.0206(7) Uani 1 1 d . .
N3 N 0.2915(2) 0.68236(12) 0.04982(15) 0.0223(7) Uani 1 1 d . .
N4 N 0.3745(2) 0.75751(12) 0.18044(16) 0.0233(7) Uani 1 1 d . .
N5 N 0.3606(2) 0.67584(13) 0.29393(16) 0.0278(8) Uani 1 1 d . .
C2 C 0.2580(3) 0.55105(15) 0.3569(2) 0.0276(10) Uani 1 1 d . .
C3 C 0.1517(3) 0.53636(16) 0.3441(2) 0.0367(11) Uani 1 1 d . .
H3A H 0.0968 0.5493 0.2986 0.044 Uiso 1 1 calc R U
C4 C 0.1242(4) 0.50305(19) 0.3966(3) 0.0532(14) Uani 1 1 d . .
H4A H 0.0517 0.4931 0.3866 0.064 Uiso 1 1 calc R U
C5 C 0.2041(5) 0.4848(2) 0.4635(3) 0.0616(16) Uani 1 1 d . .
H5A H 0.1863 0.4623 0.4996 0.074 Uiso 1 1 calc R U
C6 C 0.3090(4) 0.49905(18) 0.4779(2) 0.0523(14) Uani 1 1 d . .
H6A H 0.3632 0.4865 0.5240 0.063 Uiso 1 1 calc R U
C7 C 0.3360(3) 0.53176(17) 0.4253(2) 0.0386(11) Uani 1 1 d . .
H7A H 0.4089 0.5413 0.4360 0.046 Uiso 1 1 calc R U
C8 C 0.1945(3) 0.55090(15) -0.04812(19) 0.0221(9) Uani 1 1 d . .
C9 C 0.1020(3) 0.55877(16) -0.11240(19) 0.0282(10) Uani 1 1 d . .
H9A H 0.0620 0.5902 -0.1151 0.034 Uiso 1 1 calc R U
C10 C 0.0662(3) 0.52207(17) -0.1728(2) 0.0323(10) Uani 1 1 d . .
H10A H 0.0028 0.5285 -0.2164 0.039 Uiso 1 1 calc R U
C11 C 0.1235(3) 0.47616(17) -0.1691(2) 0.0339(10) Uani 1 1 d . .
H11A H 0.0987 0.4509 -0.2104 0.041 Uiso 1 1 calc R U
C12 C 0.2163(3) 0.46608(16) -0.1063(2) 0.0325(10) Uani 1 1 d . .
H12A H 0.2556 0.4345 -0.1044 0.039 Uiso 1 1 calc R U
C13 C 0.2508(3) 0.50347(16) -0.0460(2) 0.0287(10) Uani 1 1 d . .
H13A H 0.3140 0.4968 -0.0023 0.034 Uiso 1 1 calc R U
C14 C 0.3267(3) 0.81988(16) -0.0204(2) 0.0311(10) Uani 1 1 d . .
C15 C 0.2290(4) 0.83433(19) -0.0752(2) 0.0553(14) Uani 1 1 d . .
H15A H 0.1658 0.8161 -0.0764 0.066 Uiso 1 1 calc R U
C16 C 0.2225(5) 0.8755(2) -0.1289(3) 0.078(2) Uani 1 1 d . .
H16A H 0.1550 0.8856 -0.1656 0.094 Uiso 1 1 calc R U
C17 C 0.3133(6) 0.9010(2) -0.1283(3) 0.082(2) Uani 1 1 d . U
H17A H 0.3087 0.9281 -0.1659 0.099 Uiso 1 1 calc R U
C18 C 0.4109(5) 0.8882(2) -0.0746(3) 0.0683(17) Uani 1 1 d . .
H18A H 0.4734 0.9069 -0.0737 0.082 Uiso 1 1 calc R U
C19 C 0.4173(4) 0.84686(17) -0.0206(2) 0.0411(12) Uani 1 1 d . .
H19A H 0.4850 0.8374 0.0163 0.049 Uiso 1 1 calc R U
C20 C 0.4139(3) 0.81152(15) 0.38622(19) 0.0226(9) Uani 1 1 d . .
C21 C 0.3287(3) 0.84624(16) 0.3789(2) 0.0302(10) Uani 1 1 d . .
H21A H 0.2665 0.8450 0.3330 0.036 Uiso 1 1 calc R U
C22 C 0.3348(3) 0.88221(17) 0.4380(2) 0.0356(11) Uani 1 1 d . .
H22A H 0.2762 0.9052 0.4329 0.043 Uiso 1 1 calc R U
C23 C 0.4257(3) 0.88516(17) 0.5049(2) 0.0349(11) Uani 1 1 d . .
H23A H 0.4299 0.9103 0.5451 0.042 Uiso 1 1 calc R U
C24 C 0.5103(3) 0.85114(16) 0.5126(2) 0.0308(10) Uani 1 1 d . .
H24A H 0.5726 0.8529 0.5584 0.037 Uiso 1 1 calc R U
C25 C 0.5047(3) 0.81452(16) 0.45398(19) 0.0271(9) Uani 1 1 d . .
H25A H 0.5631 0.7913 0.4599 0.033 Uiso 1 1 calc R U
K1 K 0.96028(6) 0.83430(4) 0.26612(4) 0.0297(2) Uani 1 1 d . .
N6 N 0.9985(3) 0.71860(14) 0.24751(19) 0.0414(9) Uani 1 1 d . .
N7 N 0.9227(3) 0.95113(14) 0.28159(18) 0.0383(9) Uani 1 1 d . .
O1 O 1.0954(2) 0.80192(12) 0.17910(14) 0.0357(7) Uani 1 1 d . .
O2 O 1.0332(2) 0.90927(11) 0.17542(14) 0.0353(7) Uani 1 1 d . .
O3 O 0.7838(2) 0.76702(14) 0.18595(16) 0.0482(9) Uani 1 1 d . .
O4 O 0.7483(2) 0.87356(14) 0.21972(15) 0.0472(9) Uani 1 1 d . .
O5 O 1.0476(2) 0.77200(12) 0.40359(14) 0.0395(8) Uani 1 1 d . .
O6 O 1.0406(2) 0.88330(12) 0.41682(14) 0.0375(7) Uani 1 1 d . .
C26 C 1.0900(3) 0.71239(18) 0.2179(2) 0.0476(12) Uani 1 1 d . .
H26A H 1.0917 0.6756 0.2000 0.057 Uiso 1 1 calc R U
H26B H 1.1576 0.7190 0.2620 0.057 Uiso 1 1 calc R U
C27 C 1.0839(3) 0.74910(17) 0.1506(2) 0.0412(12) Uani 1 1 d . .
H27A H 1.1416 0.7407 0.1288 0.049 Uiso 1 1 calc R U
H27B H 1.0142 0.7449 0.1077 0.049 Uiso 1 1 calc R U
C28 C 1.0978(3) 0.83752(17) 0.1185(2) 0.0362(11) Uani 1 1 d . .
H28A H 1.0279 0.8373 0.0752 0.043 Uiso 1 1 calc R U
H28B H 1.1538 0.8266 0.0963 0.043 Uiso 1 1 calc R U
C29 C 1.1215(3) 0.89181(18) 0.1530(2) 0.0398(11) Uani 1 1 d . .
H29A H 1.1876 0.8913 0.1999 0.048 Uiso 1 1 calc R U
H29B H 1.1327 0.9163 0.1134 0.048 Uiso 1 1 calc R U
C30 C 1.0562(4) 0.95994(18) 0.2123(2) 0.0491(13) Uani 1 1 d . .
H30A H 1.0810 0.9842 0.1788 0.059 Uiso 1 1 calc R U
H30B H 1.1137 0.9568 0.2644 0.059 Uiso 1 1 calc R U
C31 C 0.9557(4) 0.98124(19) 0.2232(2) 0.0578(14) Uani 1 1 d . .
H31A H 0.9677 1.0185 0.2405 0.069 Uiso 1 1 calc R U
H31B H 0.8969 0.9805 0.1715 0.069 Uiso 1 1 calc R U
C32 C 0.9012(4) 0.69465(19) 0.1931(2) 0.0554(14) Uani 1 1 d . .
H32A H 0.9069 0.6558 0.1992 0.067 Uiso 1 1 calc R U
H32B H 0.8964 0.7032 0.1380 0.067 Uiso 1 1 calc R U
C33 C 0.7994(4) 0.7125(2) 0.2058(3) 0.0606(16) Uani 1 1 d . .
H33A H 0.7378 0.6918 0.1720 0.073 Uiso 1 1 calc R U
H33B H 0.8051 0.7072 0.2619 0.073 Uiso 1 1 calc R U
C34 C 0.6830(3) 0.7859(2) 0.1872(3) 0.0636(18) Uani 1 1 d . .
H34A H 0.6791 0.7825 0.2413 0.076 Uiso 1 1 calc R U
H34B H 0.6243 0.7647 0.1506 0.076 Uiso 1 1 calc R U
C35 C 0.6712(3) 0.8427(2) 0.1621(3) 0.0608(17) Uani 1 1 d . .
H35A H 0.6817 0.8463 0.1101 0.073 Uiso 1 1 calc R U
H35B H 0.5982 0.8552 0.1564 0.073 Uiso 1 1 calc R U
C36 C 0.7360(4) 0.9287(2) 0.1996(3) 0.0610(16) Uani 1 1 d . .
H36A H 0.6607 0.9396 0.1887 0.073 Uiso 1 1 calc R U
H36B H 0.7550 0.9353 0.1514 0.073 Uiso 1 1 calc R U
C37 C 0.8088(3) 0.9598(2) 0.2682(2) 0.0536(14) Uani 1 1 d . .
H37A H 0.7927 0.9978 0.2583 0.064 Uiso 1 1 calc R U
H37B H 0.7934 0.9501 0.3169 0.064 Uiso 1 1 calc R U
C38 C 1.0257(4) 0.69418(18) 0.3262(2) 0.0547(13) Uani 1 1 d . .
H38A H 1.0579 0.6592 0.3245 0.066 Uiso 1 1 calc R U
H38B H 0.9587 0.6885 0.3381 0.066 Uiso 1 1 calc R U
C39 C 1.1014(3) 0.72563(19) 0.3923(2) 0.0519(14) Uani 1 1 d . .
H39A H 1.1246 0.7045 0.4416 0.062 Uiso 1 1 calc R U
H39B H 1.1656 0.7353 0.3788 0.062 Uiso 1 1 calc R U
C40 C 1.1122(3) 0.80043(19) 0.4716(2) 0.0461(13) Uani 1 1 d . .
H40A H 1.1807 0.8106 0.4646 0.055 Uiso 1 1 calc R U
H40B H 1.1287 0.7778 0.5192 0.055 Uiso 1 1 calc R U
C41 C 1.0544(3) 0.84860(19) 0.4826(2) 0.0435(13) Uani 1 1 d . .
H41A H 0.9836 0.8388 0.4858 0.052 Uiso 1 1 calc R U
H41B H 1.0959 0.8665 0.5325 0.052 Uiso 1 1 calc R U
C42 C 0.9855(3) 0.92981(18) 0.4251(2) 0.0417(12) Uani 1 1 d . .
H42A H 1.0208 0.9455 0.4780 0.050 Uiso 1 1 calc R U
H42B H 0.9107 0.9211 0.4201 0.050 Uiso 1 1 calc R U
C43 C 0.9866(3) 0.96830(17) 0.3621(2) 0.0447(12) Uani 1 1 d . .
H43A H 0.9585 1.0025 0.3731 0.054 Uiso 1 1 calc R U
H43B H 1.0615 0.9739 0.3645 0.054 Uiso 1 1 calc R U
loop_
_atom_site_aniso_label
_atom_site_aniso_U_11
_atom_site_aniso_U_22
_atom_site_aniso_U_33
_atom_site_aniso_U_23
_atom_site_aniso_U_13
_atom_site_aniso_U_12
Mn1 0.0294(3) 0.0190(3) 0.0196(3) -0.0006(3) 0.0050(2) -0.0022(3)
C1 0.022(2) 0.044(3) 0.0190(19) 0.007(2) 0.0008(18) -0.003(2)
N1 0.062(3) 0.056(3) 0.0298(19) 0.001(2) 0.009(2) -0.013(3)
C(A1 0.033(2) 0.019(2) 0.022(2) -0.0011(18) 0.0095(18) 0.001(2)
C(A2 0.020(2) 0.021(2) 0.0239(19) -0.0016(18) 0.0050(16) 0.0005(18)
C(A3 0.023(2) 0.025(3) 0.025(2) -0.0007(19) 0.0019(17) 0.0013(19)
C(A4 0.025(2) 0.019(2) 0.0181(18) 0.0014(17) 0.0012(16) 0.0010(19)
C(A5 0.023(2) 0.019(2) 0.0234(19) 0.0018(18) 0.0040(17) -0.0020(19)
C(A6 0.023(2) 0.022(2) 0.0224(19) -0.0014(18) 0.0056(17) -0.0021(19)
C(A7 0.040(2) 0.016(2) 0.0216(19) -0.0037(18) 0.0037(18) -0.002(2)
C(A8 0.031(2) 0.017(2) 0.0188(19) 0.0028(18) 0.0041(17) 0.0009(19)
C(B1 0.034(2) 0.017(2) 0.029(2) 0.0010(18) 0.0117(18) 0.001(2)
C(B2 0.032(2) 0.017(2) 0.028(2) -0.0055(18) 0.0041(18) 0.000(2)
C(B3 0.038(2) 0.030(3) 0.0170(18) 0.0006(18) 0.0051(18) -0.002(2)
C(B4 0.035(2) 0.027(3) 0.0222(19) 0.0035(18) 0.0076(18) 0.004(2)
C(B5 0.030(2) 0.025(3) 0.026(2) 0.0052(18) 0.0083(18) -0.003(2)
C(B6 0.033(2) 0.019(2) 0.0236(19) -0.0096(18) 0.0108(17) -0.003(2)
C(B7 0.041(2) 0.023(3) 0.0177(18) -0.0003(18) 0.0081(18) 0.000(2)
C(B8 0.043(3) 0.021(2) 0.0215(19) 0.0038(18) 0.0100(18) -0.001(2)
C(M1 0.027(2) 0.020(2) 0.026(2) 0.0022(18) 0.0105(18) 0.0033(19)
C(M2 0.020(2) 0.022(2) 0.0224(19) -0.0022(18) 0.0030(16) 0.0018(19)
C(M3 0.024(2) 0.021(2) 0.0151(18) 0.0027(17) 0.0004(16) 0.0013(19)
C(M4 0.024(2) 0.021(2) 0.024(2) -0.0082(18) 0.0073(17) 0.0043(19)
N2 0.0293(18) 0.0128(18) 0.0178(15) -0.0018(14) 0.0055(14) -0.0032(15)
N3 0.0250(17) 0.0188(19) 0.0188(15) 0.0023(14) 0.0016(14) -0.0031(16)
N4 0.0300(18) 0.0165(18) 0.0199(15) 0.0002(15) 0.0039(14) -0.0064(16)
N5 0.0398(19) 0.022(2) 0.0220(16) -0.0012(16) 0.0116(15) -0.0007(18)
C2 0.049(3) 0.011(2) 0.025(2) -0.0042(17) 0.015(2) 0.001(2)
C3 0.057(3) 0.022(3) 0.035(2) -0.008(2) 0.021(2) -0.010(2)
C4 0.079(4) 0.038(3) 0.056(3) -0.016(3) 0.040(3) -0.025(3)
C5 0.119(5) 0.028(3) 0.052(3) -0.003(3) 0.048(4) -0.021(3)
C6 0.102(4) 0.026(3) 0.028(2) -0.006(2) 0.022(3) 0.004(3)
C7 0.061(3) 0.028(3) 0.027(2) -0.003(2) 0.015(2) 0.002(2)
C8 0.029(2) 0.017(2) 0.0189(18) -0.0009(17) 0.0062(17) -0.0016(19)
C9 0.031(2) 0.025(2) 0.027(2) -0.0057(19) 0.0078(18) 0.002(2)
C10 0.033(2) 0.031(3) 0.027(2) -0.003(2) 0.0017(19) -0.005(2)
C11 0.048(3) 0.025(3) 0.031(2) -0.007(2) 0.016(2) -0.011(2)
C12 0.047(3) 0.019(2) 0.037(2) -0.005(2) 0.021(2) 0.001(2)
C13 0.036(2) 0.024(3) 0.0233(19) 0.0017(19) 0.0069(18) 0.001(2)
C14 0.050(3) 0.020(3) 0.0167(19) -0.0006(18) 0.0026(19) 0.003(2)
C15 0.082(4) 0.029(3) 0.037(2) 0.001(2) -0.004(3) 0.007(3)
C16 0.139(6) 0.041(4) 0.028(3) -0.006(3) -0.008(3) 0.039(4)
C17 0.175(6) 0.047(4) 0.036(3) 0.011(3) 0.050(4) 0.031(4)
C18 0.144(5) 0.024(3) 0.067(3) 0.000(3) 0.076(4) -0.012(4)
C19 0.069(3) 0.025(3) 0.041(2) -0.003(2) 0.035(2) 0.000(3)
C20 0.030(2) 0.014(2) 0.0248(19) -0.0016(17) 0.0103(17) -0.0018(19)
C21 0.041(2) 0.021(2) 0.024(2) 0.0025(18) 0.0054(19) -0.002(2)
C22 0.043(3) 0.021(3) 0.048(3) 0.001(2) 0.022(2) 0.007(2)
C23 0.060(3) 0.021(3) 0.033(2) -0.010(2) 0.027(2) -0.007(2)
C24 0.042(3) 0.026(3) 0.024(2) -0.0021(19) 0.0101(19) -0.009(2)
C25 0.034(2) 0.022(2) 0.027(2) -0.0025(18) 0.0116(18) -0.005(2)
K1 0.0308(5) 0.0298(6) 0.0276(4) -0.0005(4) 0.0086(4) 0.0002(5)
N6 0.058(2) 0.032(2) 0.039(2) 0.0006(19) 0.0227(19) 0.005(2)
N7 0.060(2) 0.026(2) 0.038(2) 0.0024(17) 0.0287(19) 0.010(2)
O1 0.0438(17) 0.0327(19) 0.0325(15) 0.0001(14) 0.0153(14) 0.0009(16)
O2 0.0419(17) 0.0270(18) 0.0411(16) -0.0048(14) 0.0193(14) -0.0027(15)
O3 0.0412(19) 0.055(2) 0.0523(18) -0.0096(18) 0.0202(15) -0.0193(19)
O4 0.0327(17) 0.071(3) 0.0326(16) -0.0004(18) 0.0044(14) 0.0111(18)
O5 0.0434(18) 0.039(2) 0.0320(15) 0.0048(15) 0.0071(14) 0.0062(17)
O6 0.0463(18) 0.039(2) 0.0299(14) -0.0012(15) 0.0158(14) 0.0007(16)
C26 0.065(3) 0.029(3) 0.057(3) 0.000(2) 0.031(3) 0.011(3)
C27 0.055(3) 0.033(3) 0.043(3) -0.006(2) 0.027(2) 0.003(3)
C28 0.042(3) 0.033(3) 0.040(2) 0.005(2) 0.022(2) 0.004(2)
C29 0.044(3) 0.039(3) 0.044(2) 0.003(2) 0.025(2) -0.010(2)
C30 0.080(4) 0.031(3) 0.051(3) -0.002(2) 0.040(3) -0.019(3)
C31 0.100(4) 0.031(3) 0.058(3) 0.003(3) 0.048(3) 0.007(3)
C32 0.084(4) 0.035(3) 0.054(3) -0.014(3) 0.031(3) -0.017(3)
C33 0.069(4) 0.063(4) 0.055(3) -0.014(3) 0.028(3) -0.035(3)
C34 0.029(3) 0.120(6) 0.043(3) -0.028(3) 0.013(2) -0.027(3)
C35 0.031(3) 0.100(5) 0.041(3) -0.007(3) -0.001(2) 0.012(3)
C36 0.056(3) 0.073(4) 0.050(3) 0.017(3) 0.013(3) 0.038(3)
C37 0.067(3) 0.050(4) 0.050(3) 0.014(3) 0.028(3) 0.033(3)
C38 0.091(4) 0.024(3) 0.060(3) 0.008(3) 0.041(3) 0.009(3)
C39 0.058(3) 0.049(4) 0.047(3) 0.015(3) 0.015(3) 0.026(3)
C40 0.044(3) 0.057(4) 0.029(2) 0.013(2) 0.001(2) 0.002(3)
C41 0.045(3) 0.058(4) 0.024(2) -0.003(2) 0.007(2) -0.013(3)
C42 0.056(3) 0.037(3) 0.036(2) -0.016(2) 0.020(2) -0.006(3)
C43 0.074(3) 0.024(3) 0.050(3) -0.007(2) 0.039(3) -0.001(3)
loop_
_atom_type_symbol
_atom_type_description
_atom_type_scat_dispersion_real
_atom_type_scat_dispersion_imag
_atom_type_scat_source
C C 0.0033 0.0016 'International Tables Vol C Tables 4.2.6.8 and 6.1.1.4'
H H 0.0000 0.0000 'International Tables Vol C Tables 4.2.6.8 and 6.1.1.4'
N N 0.0061 0.0033 'International Tables Vol C Tables 4.2.6.8 and 6.1.1.4'
O O 0.0106 0.0060 'International Tables Vol C Tables 4.2.6.8 and 6.1.1.4'
K K 0.2009 0.2494 'International Tables Vol C Tables 4.2.6.8 and 6.1.1.4'
Mn Mn 0.3368 0.7283 'International Tables Vol C Tables 4.2.6.8 and 6.1.1.4'
loop_
_geom_angle_atom_site_label_1
_geom_angle_atom_site_label_2
_geom_angle_atom_site_label_3
_geom_angle
N5 Mn1 N2 84.62(11)
N5 Mn1 N4 85.45(11)
N2 Mn1 N4 144.16(11)
N5 Mn1 N3 145.65(11)
N2 Mn1 N3 84.56(10)
N4 Mn1 N3 84.53(11)
N5 Mn1 C1 112.25(12)
N2 Mn1 C1 101.36(14)
N4 Mn1 C1 114.27(14)
N3 Mn1 C1 101.82(12)
N1 C1 Mn1 171.3(4)
N2 C(A1 C(M1 125.8(3)
N2 C(A1 C(B1 109.1(3)
C(M1 C(A1 C(B1 125.1(3)
N2 C(A2 C(M2 126.1(4)
N2 C(A2 C(B2 109.2(3)
C(M2 C(A2 C(B2 124.6(3)
N3 C(A3 C(M2 125.3(3)
N3 C(A3 C(B3 109.4(3)
C(M2 C(A3 C(B3 125.3(4)
N3 C(A4 C(M3 125.5(3)
N3 C(A4 C(B4 109.5(3)
C(M3 C(A4 C(B4 125.0(3)
N4 C(A5 C(M3 125.9(4)
N4 C(A5 C(B5 109.3(3)
C(M3 C(A5 C(B5 124.7(3)
N4 C(A6 C(M4 126.0(4)
N4 C(A6 C(B6 109.3(3)
C(M4 C(A6 C(B6 124.5(3)
N5 C(A7 C(M4 127.0(3)
N5 C(A7 C(B7 108.4(3)
C(M4 C(A7 C(B7 124.1(4)
N5 C(A8 C(M1 125.9(3)
N5 C(A8 C(B8 109.5(3)
C(M1 C(A8 C(B8 124.2(3)
C(B2 C(B1 C(A1 106.5(3)
C(B2 C(B1 H(BA 126.7
C(A1 C(B1 H(BA 126.7
C(B1 C(B2 C(A2 107.9(3)
C(B1 C(B2 H(BB 126.1
C(A2 C(B2 H(BB 126.1
C(B4 C(B3 C(A3 106.2(3)
C(B4 C(B3 H(BC 126.9
C(A3 C(B3 H(BC 126.9
C(B3 C(B4 C(A4 107.8(3)
C(B3 C(B4 H(BD 126.1
C(A4 C(B4 H(BD 126.1
C(B6 C(B5 C(A5 106.8(3)
C(B6 C(B5 H(BE 126.6
C(A5 C(B5 H(BE 126.6
C(B5 C(B6 C(A6 107.4(3)
C(B5 C(B6 H(BF 126.3
C(A6 C(B6 H(BF 126.3
C(B8 C(B7 C(A7 107.7(3)
C(B8 C(B7 H(BG 126.1
C(A7 C(B7 H(BG 126.1
C(B7 C(B8 C(A8 107.1(3)
C(B7 C(B8 H(BH 126.5
C(A8 C(B8 H(BH 126.5
C(A8 C(M1 C(A1 125.7(3)
C(A8 C(M1 C2 115.8(3)
C(A1 C(M1 C2 118.3(3)
C(A3 C(M2 C(A2 125.7(3)
C(A3 C(M2 C8 117.6(3)
C(A2 C(M2 C8 116.6(3)
C(A5 C(M3 C(A4 126.0(3)
C(A5 C(M3 C14 116.6(3)
C(A4 C(M3 C14 117.3(3)
C(A7 C(M4 C(A6 125.8(3)
C(A7 C(M4 C20 116.1(3)
C(A6 C(M4 C20 117.5(3)
C(A1 N2 C(A2 107.4(3)
C(A1 N2 Mn1 127.0(2)
C(A2 N2 Mn1 124.0(2)
C(A4 N3 C(A3 107.0(3)
C(A4 N3 Mn1 125.0(2)
C(A3 N3 Mn1 123.4(2)
C(A6 N4 C(A5 107.0(3)
C(A6 N4 Mn1 126.3(2)
C(A5 N4 Mn1 126.3(2)
C(A8 N5 C(A7 107.2(3)
C(A8 N5 Mn1 127.0(2)
C(A7 N5 Mn1 125.7(2)
C7 C2 C3 117.3(4)
C7 C2 C(M1 121.9(4)
C3 C2 C(M1 120.8(3)
C2 C3 C4 121.6(4)
C2 C3 H3A 119.2
C4 C3 H3A 119.2
C5 C4 C3 119.1(4)
C5 C4 H4A 120.4
C3 C4 H4A 120.4
C6 C5 C4 120.4(5)
C6 C5 H5A 119.8
C4 C5 H5A 119.8
C5 C6 C7 120.3(4)
C5 C6 H6A 119.9
C7 C6 H6A 119.9
C6 C7 C2 121.3(4)
C6 C7 H7A 119.3
C2 C7 H7A 119.3
C9 C8 C13 117.3(3)
C9 C8 C(M2 122.2(3)
C13 C8 C(M2 120.5(3)
C10 C9 C8 121.9(4)
C10 C9 H9A 119.1
C8 C9 H9A 119.1
C11 C10 C9 119.4(4)
C11 C10 H10A 120.3
C9 C10 H10A 120.3
C10 C11 C12 121.4(4)
C10 C11 H11A 119.3
C12 C11 H11A 119.3
C11 C12 C13 118.4(4)
C11 C12 H12A 120.8
C13 C12 H12A 120.8
C12 C13 C8 121.7(3)
C12 C13 H13A 119.1
C8 C13 H13A 119.1
C19 C14 C15 118.2(4)
C19 C14 C(M3 121.2(4)
C15 C14 C(M3 120.6(4)
C14 C15 C16 120.8(5)
C14 C15 H15A 119.6
C16 C15 H15A 119.6
C17 C16 C15 119.7(5)
C17 C16 H16A 120.2
C15 C16 H16A 120.2
C16 C17 C18 121.2(5)
C16 C17 H17A 119.4
C18 C17 H17A 119.4
C17 C18 C19 119.0(5)
C17 C18 H18A 120.5
C19 C18 H18A 120.5
C14 C19 C18 121.1(5)
C14 C19 H19A 119.4
C18 C19 H19A 119.4
C25 C20 C21 118.7(3)
C25 C20 C(M4 122.0(3)
C21 C20 C(M4 119.3(3)
C22 C21 C20 120.3(3)
C22 C21 H21A 119.8
C20 C21 H21A 119.8
C21 C22 C23 120.6(4)
C21 C22 H22A 119.7
C23 C22 H22A 119.7
C24 C23 C22 119.5(4)
C24 C23 H23A 120.2
C22 C23 H23A 120.2
C23 C24 C25 120.4(4)
C23 C24 H24A 119.8
C25 C24 H24A 119.8
C24 C25 C20 120.5(4)
C24 C25 H25A 119.8
C20 C25 H25A 119.8
O5 K1 O4 121.95(8)
O5 K1 O6 60.13(8)
O4 K1 O6 98.34(8)
O5 K1 O1 99.54(8)
O4 K1 O1 133.00(7)
O6 K1 O1 122.71(8)
O5 K1 O3 97.54(9)
O4 K1 O3 59.90(10)
O6 K1 O3 136.24(8)
O1 K1 O3 96.37(8)
O5 K1 O2 138.26(8)
O4 K1 O2 95.14(9)
O6 K1 O2 99.10(8)
O1 K1 O2 59.41(8)
O3 K1 O2 118.96(8)
O5 K1 N6 61.14(9)
O4 K1 N6 119.79(10)
O6 K1 N6 120.55(9)
O1 K1 N6 60.08(9)
O3 K1 N6 60.25(10)
O2 K1 N6 118.78(9)
O5 K1 N7 119.90(9)
O4 K1 N7 60.39(10)
O6 K1 N7 60.38(9)
O1 K1 N7 118.83(9)
O3 K1 N7 119.78(10)
O2 K1 N7 60.06(8)
N6 K1 N7 178.78(9)
C32 N6 C38 110.0(4)
C32 N6 C26 111.2(3)
C38 N6 C26 109.3(3)
C32 N6 K1 109.5(3)
C38 N6 K1 107.5(2)
C26 N6 K1 109.3(3)
C37 N7 C43 109.8(3)
C37 N7 C31 109.9(3)
C43 N7 C31 109.4(3)
C37 N7 K1 108.9(3)
C43 N7 K1 108.7(2)
C31 N7 K1 110.2(2)
C28 O1 C27 110.6(3)
C28 O1 K1 114.3(2)
C27 O1 K1 117.0(2)
C29 O2 C30 109.9(3)
C29 O2 K1 114.6(2)
C30 O2 K1 113.2(2)
C33 O3 C34 112.3(4)
C33 O3 K1 115.3(3)
C34 O3 K1 113.9(3)
C35 O4 C36 111.1(4)
C35 O4 K1 114.9(3)
C36 O4 K1 115.7(3)
C39 O5 C40 110.6(3)
C39 O5 K1 114.6(2)
C40 O5 K1 114.5(2)
C42 O6 C41 110.7(3)
C42 O6 K1 114.9(2)
C41 O6 K1 114.7(2)
N6 C26 C27 112.9(3)
N6 C26 H26A 109.0
C27 C26 H26A 109.0
N6 C26 H26B 109.0
C27 C26 H26B 109.0
H26A C26 H26B 107.8
O1 C27 C26 108.9(3)
O1 C27 H27A 109.9
C26 C27 H27A 109.9
O1 C27 H27B 109.9
C26 C27 H27B 109.9
H27A C27 H27B 108.3
O1 C28 C29 108.9(3)
O1 C28 H28A 109.9
C29 C28 H28A 109.9
O1 C28 H28B 109.9
C29 C28 H28B 109.9
H28A C28 H28B 108.3
O2 C29 C28 108.8(3)
O2 C29 H29A 109.9
C28 C29 H29A 109.9
O2 C29 H29B 109.9
C28 C29 H29B 109.9
H29A C29 H29B 108.3
O2 C30 C31 108.6(4)
O2 C30 H30A 110.0
C31 C30 H30A 110.0
O2 C30 H30B 110.0
C31 C30 H30B 110.0
H30A C30 H30B 108.3
N7 C31 C30 112.9(4)
N7 C31 H31A 109.0
C30 C31 H31A 109.0
N7 C31 H31B 109.0
C30 C31 H31B 109.0
H31A C31 H31B 107.8
N6 C32 C33 114.0(4)
N6 C32 H32A 108.7
C33 C32 H32A 108.7
N6 C32 H32B 108.7
C33 C32 H32B 108.7
H32A C32 H32B 107.6
O3 C33 C32 108.4(4)
O3 C33 H33A 110.0
C32 C33 H33A 110.0
O3 C33 H33B 110.0
C32 C33 H33B 110.0
H33A C33 H33B 108.4
O3 C34 C35 108.7(4)
O3 C34 H34A 109.9
C35 C34 H34A 109.9
O3 C34 H34B 109.9
C35 C34 H34B 109.9
H34A C34 H34B 108.3
O4 C35 C34 109.5(4)
O4 C35 H35A 109.8
C34 C35 H35A 109.8
O4 C35 H35B 109.8
C34 C35 H35B 109.8
H35A C35 H35B 108.2
O4 C36 C37 108.5(4)
O4 C36 H36A 110.0
C37 C36 H36A 110.0
O4 C36 H36B 110.0
C37 C36 H36B 110.0
H36A C36 H36B 108.4
N7 C37 C36 113.5(4)
N7 C37 H37A 108.9
C36 C37 H37A 108.9
N7 C37 H37B 108.9
C36 C37 H37B 108.9
H37A C37 H37B 107.7
N6 C38 C39 114.7(4)
N6 C38 H38A 108.6
C39 C38 H38A 108.6
N6 C38 H38B 108.6
C39 C38 H38B 108.6
H38A C38 H38B 107.6
O5 C39 C38 108.5(3)
O5 C39 H39A 110.0
C38 C39 H39A 110.0
O5 C39 H39B 110.0
C38 C39 H39B 110.0
H39A C39 H39B 108.4
O5 C40 C41 109.8(3)
O5 C40 H40A 109.7
C41 C40 H40A 109.7
O5 C40 H40B 109.7
C41 C40 H40B 109.7
H40A C40 H40B 108.2
O6 C41 C40 109.0(3)
O6 C41 H41A 109.9
C40 C41 H41A 109.9
O6 C41 H41B 109.9
C40 C41 H41B 109.9
H41A C41 H41B 108.3
O6 C42 C43 109.2(3)
O6 C42 H42A 109.8
C43 C42 H42A 109.8
O6 C42 H42B 109.8
C43 C42 H42B 109.8
H42A C42 H42B 108.3
N7 C43 C42 113.5(4)
N7 C43 H43A 108.9
C42 C43 H43A 108.9
N7 C43 H43B 108.9
C42 C43 H43B 108.9
H43A C43 H43B 107.7
loop_
_geom_bond_atom_site_label_1
_geom_bond_atom_site_label_2
_geom_bond_distance
Mn1 N5 2.171(3)
Mn1 N2 2.176(3)
Mn1 N4 2.176(3)
Mn1 N3 2.181(3)
Mn1 C1 2.193(4)
C1 N1 1.150(5)
C(A1 N2 1.362(4)
C(A1 C(M1 1.414(4)
C(A1 C(B1 1.455(5)
C(A2 N2 1.369(4)
C(A2 C(M2 1.419(5)
C(A2 C(B2 1.432(5)
C(A3 N3 1.370(4)
C(A3 C(M2 1.410(5)
C(A3 C(B3 1.458(5)
C(A4 N3 1.365(4)
C(A4 C(M3 1.419(5)
C(A4 C(B4 1.439(4)
C(A5 N4 1.374(4)
C(A5 C(M3 1.402(4)
C(A5 C(B5 1.445(5)
C(A6 N4 1.371(4)
C(A6 C(M4 1.414(5)
C(A6 C(B6 1.438(5)
C(A7 N5 1.377(4)
C(A7 C(M4 1.393(5)
C(A7 C(B7 1.458(5)
C(A8 N5 1.367(4)
C(A8 C(M1 1.410(5)
C(A8 C(B8 1.450(5)
C(B1 C(B2 1.348(4)
C(B1 H(BA 0.9500
C(B2 H(BB 0.9500
C(B3 C(B4 1.353(5)
C(B3 H(BC 0.9500
C(B4 H(BD 0.9500
C(B5 C(B6 1.358(4)
C(B5 H(BE 0.9500
C(B6 H(BF 0.9500
C(B7 C(B8 1.340(5)
C(B7 H(BG 0.9500
C(B8 H(BH 0.9500
C(M1 C2 1.487(5)
C(M2 C8 1.493(5)
C(M3 C14 1.498(5)
C(M4 C20 1.503(5)
C2 C7 1.400(5)
C2 C3 1.400(5)
C3 C4 1.400(5)
C3 H3A 0.9500
C4 C5 1.385(6)
C4 H4A 0.9500
C5 C6 1.374(6)
C5 H5A 0.9500
C6 C7 1.388(5)
C6 H6A 0.9500
C7 H7A 0.9500
C8 C9 1.387(4)
C8 C13 1.409(5)
C9 C10 1.385(5)
C9 H9A 0.9500
C10 C11 1.379(5)
C10 H10A 0.9500
C11 C12 1.384(5)
C11 H11A 0.9500
C12 C13 1.394(5)
C12 H12A 0.9500
C13 H13A 0.9500
C14 C19 1.382(5)
C14 C15 1.386(5)
C15 C16 1.403(6)
C15 H15A 0.9500
C16 C17 1.362(7)
C16 H16A 0.9500
C17 C18 1.367(7)
C17 H17A 0.9500
C18 C19 1.409(6)
C18 H18A 0.9500
C19 H19A 0.9500
C20 C25 1.396(4)
C20 C21 1.402(5)
C21 C22 1.379(5)
C21 H21A 0.9500
C22 C23 1.388(5)
C22 H22A 0.9500
C23 C24 1.384(5)
C23 H23A 0.9500
C24 C25 1.385(5)
C24 H24A 0.9500
C25 H25A 0.9500
K1 O5 2.826(3)
K1 O4 2.829(3)
K1 O6 2.834(3)
K1 O1 2.859(3)
K1 O3 2.862(3)
K1 O2 2.869(3)
K1 N6 3.014(4)
K1 N7 3.031(4)
N6 C32 1.463(5)
N6 C38 1.469(5)
N6 C26 1.485(5)
N7 C37 1.463(5)
N7 C43 1.472(4)
N7 C31 1.474(5)
O1 C28 1.419(4)
O1 C27 1.423(5)
O2 C29 1.429(4)
O2 C30 1.430(5)
O3 C33 1.424(6)
O3 C34 1.426(5)
O4 C35 1.420(5)
O4 C36 1.439(6)
O5 C39 1.424(5)
O5 C40 1.427(4)
O6 C42 1.420(5)
O6 C41 1.431(4)
C26 C27 1.503(5)
C26 H26A 0.9900
C26 H26B 0.9900
C27 H27A 0.9900
C27 H27B 0.9900
C28 C29 1.498(5)
C28 H28A 0.9900
C28 H28B 0.9900
C29 H29A 0.9900
C29 H29B 0.9900
C30 C31 1.509(5)
C30 H30A 0.9900
C30 H30B 0.9900
C31 H31A 0.9900
C31 H31B 0.9900
C32 C33 1.511(6)
C32 H32A 0.9900
C32 H32B 0.9900
C33 H33A 0.9900
C33 H33B 0.9900
C34 C35 1.501(7)
C34 H34A 0.9900
C34 H34B 0.9900
C35 H35A 0.9900
C35 H35B 0.9900
C36 C37 1.506(6)
C36 H36A 0.9900
C36 H36B 0.9900
C37 H37A 0.9900
C37 H37B 0.9900
C38 C39 1.499(6)
C38 H38A 0.9900
C38 H38B 0.9900
C39 H39A 0.9900
C39 H39B 0.9900
C40 C41 1.489(6)
C40 H40A 0.9900
C40 H40B 0.9900
C41 H41A 0.9900
C41 H41B 0.9900
C42 C43 1.494(5)
C42 H42A 0.9900
C42 H42B 0.9900
C43 H43A 0.9900
C43 H43B 0.9900
