#------------------------------------------------------------------------------
#$Date: 2019-11-23 04:45:54 +0200 (Sat, 23 Nov 2019) $
#$Revision: 232157 $
#$URL: file:///home/coder/svn-repositories/cod/cif/4/34/70/4347076.cif $
#------------------------------------------------------------------------------
#
# This file is available in the Crystallography Open Database (COD),
# http://www.crystallography.net/
#
# All data on this site have been placed in the public domain by the
# contributors.
#
data_4347076
loop_
_publ_author_name
'Liu, Juan'
'Wang, Fei'
'Liu, Li-Yang'
'Zhang, Jian'
_publ_section_title
;
 Interpenetrated Three-Dimensional Copper-Iodine Cluster-Based Framework
 with Enantiopure Porphyrin-like Templates.
;
_journal_issue                   4
_journal_name_full               'Inorganic chemistry'
_journal_page_first              1358
_journal_page_last               1360
_journal_paper_doi               10.1021/acs.inorgchem.5b02692
_journal_volume                  55
_journal_year                    2016
_chemical_absolute_configuration unk
_chemical_formula_moiety         'C16 H32 Cu14 I12 N21'
_chemical_formula_sum            'C16 H32 Cu14 I12 N21'
_chemical_formula_weight         2930.98
_space_group_crystal_system      tetragonal
_space_group_IT_number           77
_space_group_name_Hall           'P 4c'
_space_group_name_H-M_alt        'P 42'
_atom_sites_solution_hydrogens   geom
_audit_creation_method           SHELXL-2014/7
_cell_angle_alpha                90
_cell_angle_beta                 90
_cell_angle_gamma                90
_cell_formula_units_Z            2
_cell_length_a                   14.8451(2)
_cell_length_b                   14.8451(2)
_cell_length_c                   12.2127(3)
_cell_measurement_reflns_used    2054
_cell_measurement_temperature    293(2)
_cell_measurement_theta_max      25.2865
_cell_measurement_theta_min      2.5534
_cell_volume                     2691.40(8)
_computing_structure_refinement  'SHELXL-2014/7 (Sheldrick, 2014)'
_diffrn_ambient_temperature      293(2)
_diffrn_detector_area_resol_mean 16.2083
_diffrn_measured_fraction_theta_full 0.997
_diffrn_measured_fraction_theta_max 0.997
_diffrn_measurement_device_type  'Xcalibur, Eos'
_diffrn_measurement_method       '\w scans'
_diffrn_radiation_type           MoK\a
_diffrn_radiation_wavelength     0.71073
_diffrn_reflns_av_R_equivalents  0.0271
_diffrn_reflns_av_unetI/netI     0.0502
_diffrn_reflns_Laue_measured_fraction_full 0.997
_diffrn_reflns_Laue_measured_fraction_max 0.997
_diffrn_reflns_limit_h_max       17
_diffrn_reflns_limit_h_min       -8
_diffrn_reflns_limit_k_max       13
_diffrn_reflns_limit_k_min       -17
_diffrn_reflns_limit_l_max       14
_diffrn_reflns_limit_l_min       -9
_diffrn_reflns_number            5785
_diffrn_reflns_point_group_measured_fraction_full 0.743
_diffrn_reflns_point_group_measured_fraction_max 0.741
_diffrn_reflns_theta_full        25.242
_diffrn_reflns_theta_max         25.341
_diffrn_reflns_theta_min         2.559
_exptl_absorpt_coefficient_mu    12.328
_exptl_absorpt_correction_T_max  1.0000
_exptl_absorpt_correction_T_min  0.9450
_exptl_absorpt_correction_type   multi-scan
_exptl_absorpt_process_details
;
CrysAlisPro, Agilent Technologies,
Version 1.171.36.20 (release 27-06-2012 CrysAlis171 .NET)
(compiled Jul 11 2012,15:38:31)
Empirical absorption correction using spherical harmonics,
 implemented in SCALE3 ABSPACK scaling algorithm.
;
_exptl_crystal_colour            yellow
_exptl_crystal_density_diffrn    3.617
_exptl_crystal_description       block
_exptl_crystal_F_000             2634
_exptl_crystal_size_max          0.200
_exptl_crystal_size_mid          0.200
_exptl_crystal_size_min          0.200
_refine_diff_density_max         0.891
_refine_diff_density_min         -2.581
_refine_diff_density_rms         0.244
_refine_ls_abs_structure_details
;
 Flack x determined using 850 quotients [(I+)-(I-)]/[(I+)+(I-)]
 (Parsons, Flack and Wagner, Acta Cryst. B69 (2013) 249-259).
;
_refine_ls_abs_structure_Flack   -0.08(8)
_refine_ls_extinction_method     none
_refine_ls_goodness_of_fit_ref   1.055
_refine_ls_hydrogen_treatment    constr
_refine_ls_matrix_type           full
_refine_ls_number_parameters     256
_refine_ls_number_reflns         3666
_refine_ls_number_restraints     1
_refine_ls_restrained_S_all      1.055
_refine_ls_R_factor_all          0.0540
_refine_ls_R_factor_gt           0.0434
_refine_ls_shift/su_max          0.000
_refine_ls_shift/su_mean         0.000
_refine_ls_structure_factor_coef Fsqd
_refine_ls_weighting_details
'w=1/[\s^2^(Fo^2^)+(0.0540P)^2^+22.7350P] where P=(Fo^2^+2Fc^2^)/3'
_refine_ls_weighting_scheme      calc
_refine_ls_wR_factor_gt          0.1079
_refine_ls_wR_factor_ref         0.1151
_reflns_Friedel_coverage         0.415
_reflns_Friedel_fraction_full    0.462
_reflns_Friedel_fraction_max     0.458
_reflns_number_gt                3155
_reflns_number_total             3666
_reflns_threshold_expression     'I > 2\s(I)'
_cod_data_source_file            ic5b02692_si_002.cif
_cod_data_source_block           a
_cod_original_cell_volume        2691.40(10)
_cod_database_code               4347076
_shelx_shelxl_version_number     2014/7
_shelx_space_group_comment
;
The symmetry employed for this shelxl refinement is uniquely defined
by the following loop, which should always be used as a source of
symmetry information in preference to the above space-group names.
They are only intended as comments.
;
_shelx_estimated_absorpt_t_min   0.192
_shelx_estimated_absorpt_t_max   0.192
_shelx_res_file
;

    a.res created by SHELXL-2014/7

TITL a in P4(2)
CELL 0.71073  14.8451  14.8451  12.2127  90.000  90.000  90.000
ZERR   2.00   0.0002   0.0002   0.0003   0.000   0.000   0.000
LATT -1
SYMM -X, -Y, Z
SYMM -Y, X, 0.5+Z
SYMM Y, -X, 0.5+Z
SFAC C H N CU I
UNIT 32 64 42 28 24

L.S. 10
BOND $h
size 0.2 0.2 0.2
htab
FMAP 2
PLAN 20
acta
eadp N3 N6 C6 C8 N11 C7

WGHT    0.054000   22.735003
FVAR       0.04548
I5    5    0.903039    0.693722   -1.476259    11.00000    0.02410    0.03003 =
         0.02831   -0.00210   -0.00372    0.00209
I6    5    0.926344    0.642439   -1.844550    11.00000    0.02724    0.03031 =
         0.02880    0.00290    0.00300    0.00203
I3    5    0.694056    0.613692   -1.229280    11.00000    0.03229    0.02323 =
         0.02929    0.00274    0.00326   -0.00078
I4    5    0.809379    0.884279   -1.701955    11.00000    0.03737    0.02542 =
         0.02358    0.00050    0.00270   -0.00484
I2    5    0.598164    0.804933   -1.466466    11.00000    0.02427    0.02583 =
         0.02920   -0.00037   -0.00142    0.00073
I1    5    0.563852    0.862942   -1.117973    11.00000    0.02160    0.02770 =
         0.03005    0.00442    0.00025    0.00419
CU8   4    0.500000    0.500000   -1.780057    10.50000    0.02191    0.02672 =
         0.01853    0.00000    0.00000   -0.01373
CU1   4    1.000000    1.000000   -1.155993    10.50000    0.02169    0.04549 =
         0.01634    0.00000    0.00000   -0.01671
CU5   4    0.825630    0.707619   -1.676418    11.00000    0.03177    0.03676 =
         0.03676    0.00218   -0.00010   -0.01272
CU2   4    0.676634    0.787126   -1.265721    11.00000    0.03215    0.03262 =
         0.04128   -0.00043    0.00183   -0.01259
CU4   4    0.766346    0.844772   -1.509031    11.00000    0.04619    0.07911 =
         0.02040   -0.00442   -0.00327   -0.02577
CU3   4    0.733425    0.656295   -1.425203    11.00000    0.05167    0.05864 =
         0.02206   -0.00507   -0.00083   -0.02408
CU7   4    1.076315    0.539340   -1.817832    11.00000    0.09537    0.08632 =
         0.07722    0.00545    0.00167    0.01228
CU6   4    0.961607    0.585860   -1.642260    11.00000    0.05583    0.06846 =
         0.06921   -0.00005    0.00248    0.01403
N3    3    0.913599    0.943811   -1.252933    11.00000    0.01956    0.02272 =
         0.01656   -0.00214    0.00546   -0.00415
N8    3    0.592338    0.550649   -1.681237    11.00000    0.02419    0.01669 =
         0.01526   -0.00311   -0.00141    0.00641
N4    3    0.888397    0.948720   -1.359104    11.00000    0.02217    0.01812 =
         0.02388   -0.00212   -0.00507   -0.00987
N9    3    0.611724    0.552571   -1.574069    11.00000    0.03939    0.01447 =
         0.01470   -0.00472   -0.00097   -0.00368
N11   3    0.713900    0.631518   -1.660781    11.00000    0.01956    0.02272 =
         0.01656   -0.00214    0.00546   -0.00415
N6    3    0.792349    0.858079   -1.272319    11.00000    0.01956    0.02272 =
         0.01656   -0.00214    0.00546   -0.00415
N10   3    0.682237    0.602408   -1.565873    11.00000    0.01082    0.01357 =
         0.02194   -0.00195   -0.00645    0.00126
N5    3    0.817270    0.897594   -1.370079    11.00000    0.03662    0.04010 =
         0.01614    0.01542    0.00685   -0.00863
C5    1    0.853917    0.887959   -1.203729    11.00000    0.01651    0.02619 =
         0.00886   -0.00758    0.00012   -0.01117
C7    1    0.655967    0.605903   -1.855233    11.00000    0.01956    0.02272 =
         0.01656   -0.00214    0.00546   -0.00415
AFIX  13
H7A   2    0.715715    0.590732   -1.883948    11.00000   -1.20000
AFIX   0
N2    3    0.923754    0.943538   -1.043625    11.00000    0.01552    0.03193 =
         0.01909   -0.00743   -0.00041   -0.01421
AFIX  43
H2D   2    0.919233    0.962305   -0.977231    11.00000   -1.20000
AFIX   0
N1    3    0.000000    0.500000   -1.220511    10.50000    0.03126    0.05367 =
         0.02022    0.00000    0.00000   -0.02195
C2    1   -0.038354    0.573863   -1.152760    11.00000    0.04255    0.07150 =
         0.07977   -0.02718    0.01772   -0.02092
AFIX  33
H2A   2   -0.062240    0.619868   -1.199757    11.00000   -1.50000
H2B   2   -0.085652    0.550372   -1.107392    11.00000   -1.50000
H2C   2    0.008069    0.599035   -1.107389    11.00000   -1.50000
AFIX   0
C1    1    0.072035    0.540065   -1.290494    11.00000    0.01881    0.05685 =
         0.05553    0.01413    0.00231   -0.02515
AFIX  33
H1A   2    0.046977    0.587699   -1.334069    11.00000   -1.50000
H1B   2    0.118981    0.563802   -1.244776    11.00000   -1.50000
H1C   2    0.096479    0.494465   -1.337651    11.00000   -1.50000
AFIX   0
C4    1    0.873928    0.862563   -1.089249    11.00000    0.02204    0.00542 =
         0.02580    0.00689   -0.00343   -0.00155
AFIX  13
H4A   2    0.916586    0.812214   -1.091399    11.00000   -1.20000
AFIX   0
C8    1    0.656488    0.597390   -1.733477    11.00000    0.01956    0.02272 =
         0.01656   -0.00214    0.00546   -0.00415
C3    1    0.793759    0.832797   -1.020888    11.00000    0.02639    0.04751 =
         0.02558    0.01207   -0.00202   -0.00767
AFIX  33
H3A   2    0.813659    0.817847   -0.948337    11.00000   -1.50000
H3B   2    0.750564    0.880825   -1.017148    11.00000   -1.50000
H3C   2    0.766401    0.780913   -1.053987    11.00000   -1.50000
AFIX   0
C6    1    0.632072    0.700330   -1.888234    11.00000    0.01956    0.02272 =
         0.01656   -0.00214    0.00546   -0.00415
AFIX  33
H6A   2    0.676621    0.741257   -1.860453    11.00000   -1.50000
H6B   2    0.630157    0.704381   -1.966651    11.00000   -1.50000
H6C   2    0.574157    0.715743   -1.858702    11.00000   -1.50000
AFIX   0
N7    3    0.590235    0.540762   -1.895485    11.00000    0.02475    0.04012 =
         0.01347   -0.00633   -0.00352   -0.01700
AFIX  43
H7B   2    0.589650    0.521368   -1.961836    11.00000   -1.20000

AFIX   0
HKLF 4

REM  a in P4(2)
REM R1 =  0.0434 for    3155 Fo > 4sig(Fo)  and  0.0540 for all    3666 data
REM    256 parameters refined using      1 restraints

END

WGHT      0.0512     29.0032

REM Instructions for potential hydrogen bonds
HTAB C7 I6
EQIV $1 y, -x+1, z-1/2
HTAB C7 I2_$1
EQIV $2 y, -x+2, z+1/2
HTAB N2 N4_$2
EQIV $3 y-1, -x+1, z+1/2
HTAB C2 I2_$3
EQIV $4 -y+1, x, z+1/2
HTAB C2 I2_$4
EQIV $5 x-1, y, z
HTAB C1 I5_$5
EQIV $6 -x+1, -y+1, z
HTAB C1 I5_$6
EQIV $7 -y+2, x, z+1/2
HTAB C4 I4_$7
EQIV $8 x, y, z+1
HTAB C3 I4_$8
HTAB C3 I1
EQIV $9 x, y, z-1
HTAB C6 I1_$9
EQIV $10 -y+1, x, z-1/2
HTAB C6 I3_$10
HTAB N7 N9_$1

REM Highest difference peak  0.891,  deepest hole -2.581,  1-sigma level  0.244
Q1    1   0.5910  0.9395 -1.1395  11.00000  0.05    0.89
Q2    1   0.7013  0.6251 -1.3110  11.00000  0.05    0.86
Q3    1   0.9900  0.6571 -1.6421  11.00000  0.05    0.85
Q4    1   1.0246  0.4675 -1.8172  11.00000  0.05    0.82
Q5    1   0.9333  0.6375 -1.9186  11.00000  0.05    0.78
Q6    1   1.0448  0.6602 -1.5790  11.00000  0.05    0.77
Q7    1   1.1054  0.4672 -1.8512  11.00000  0.05    0.76
Q8    1   0.5548  0.8665 -1.0226  11.00000  0.05    0.73
Q9    1   0.6609  0.9209 -1.1192  11.00000  0.05    0.73
Q10   1   0.8992  0.9140 -1.2654  11.00000  0.05    0.73
Q11   1   0.6645  0.4187 -1.8927  11.00000  0.05    0.72
Q12   1   0.9090  0.6925 -1.5662  11.00000  0.05    0.72
Q13   1   0.7365  0.5623 -1.2330  11.00000  0.05    0.72
Q14   1   0.8417  0.6117 -1.6807  11.00000  0.05    0.72
Q15   1   0.5829  0.7013 -1.8932  11.00000  0.05    0.71
Q16   1   0.5823  0.6946 -2.1241  11.00000  0.05    0.69
Q17   1   1.1424  0.4437 -1.7555  11.00000  0.05    0.69
Q18   1   0.6882  0.6140 -1.1608  11.00000  0.05    0.68
Q19   1   0.8059  0.8605 -1.6403  11.00000  0.05    0.68
Q20   1   0.8809  0.5854 -1.8672  11.00000  0.05    0.66
;
_shelx_res_checksum              11163
_shelx_hkl_file
;
   0   0   3   -0.36    0.34
   0   0   3    0.17    0.23
   0   0   4  346.89    6.92
   0   0   4  347.32    6.31
   0   0   5    0.58    0.27
   0   0   5    0.18    0.37
   0   0   6  142.21    3.26
   0   0   6  139.75    3.96
   0   0   7    0.13    0.49
   0   0   7    0.15    0.27
   0   0   8  196.69    4.45
   0   0   8  194.29    5.46
   0   0   9   -0.22    0.62
   0   0   9   -0.02    0.38
   0   0  10    2.19    0.51
   0   0  10    1.52    0.71
   0   0  11   -0.17    0.62
   0   0  11   -0.24    0.35
   0   0  12    4.75    1.07
   0   0  13   -0.97    0.84
   0   0  14   28.86    2.51
   0   1  -3   78.11    1.84
   1   0  -3   74.88    2.06
   0  -1  -2   30.40    1.06
   1   0  -2   28.78    0.97
   0   1  -2   28.67    0.86
   0   1   2   29.04    1.03
   0  -1   2   26.90    0.83
  -1   0   2   28.83    0.96
   0   1   3   76.42    2.18
  -1   0   3   75.86    2.05
   0  -1   3   77.94    1.82
   0  -1   4    3.46    0.39
  -1   0   4    2.76    0.50
   0   1   4    1.18    0.39
  -1   0   4    2.70    0.27
   0   1   5  258.07    5.89
  -1   0   5  267.65    4.82
   0  -1   5  263.73    5.16
  -1   0   5  251.27    5.72
   1   0   5  257.43    5.35
   0  -1   6  118.25    3.47
   1   0   6  117.19    3.07
   0  -1   6  121.81    2.92
  -1   0   6  116.61    3.51
  -1   0   6  116.81    2.63
   0   1   6  116.10    3.59
   0  -1   7    9.22    0.97
   1   0   7    9.63    0.80
   0  -1   7   10.44    0.75
   0   1   7    9.69    1.07
   1   0   7    9.25    1.01
   0   1   7   10.64    0.74
  -1   0   7    8.77    0.61
  -1   0   7    9.29    1.00
   0  -1   8    1.37    0.42
   1   0   8    1.89    0.61
   0   1   8    1.43    0.69
   0  -1   8    1.03    0.53
  -1   0   8    1.64    0.36
   1   0   8    1.11    0.41
   0   1   8    1.18    0.36
  -1   0   8    1.11    0.53
   0  -1   9   38.16    2.19
  -1   0   9   37.56    1.45
   0  -1   9   37.68    1.63
   0   1   9   37.45    1.60
   1   0   9   37.23    1.72
  -1   0   9   34.93    2.12
   1   0   9   39.95    2.33
   0   1   9   35.36    2.27
  -1   0  10    4.42    0.92
   1   0  10    3.75    0.82
   0  -1  10    2.84    0.53
   1   0  10    4.15    0.66
   0   1  10    3.44    0.96
   0  -1  10    3.09    0.88
   0   1  10    3.75    0.57
  -1   0  10    3.58    0.49
   1   0  11    4.80    0.70
   1   0  11    3.50    0.92
   0  -1  11    4.56    1.02
   0  -1  11    5.38    0.69
  -1   0  11    3.87    0.83
   0   1  11    4.49    0.63
   0   1  11    4.81    1.02
   1   0  12    4.37    1.07
   0  -1  12    3.49    1.02
  -1   0  12    2.84    0.91
   0   1  12    4.26    1.07
   0   1  13    6.15    1.19
   0  -1  13    7.89    1.35
  -1   0  13    9.03    1.39
   1   0  13    6.66    1.25
   1   0  14    2.55    0.81
   0   1  14    2.69    0.91
   0  -1  14    2.49    0.92
  -1   0  14    1.39    0.81
   1   1  -4  101.67    2.21
   1  -1  -4  104.54    2.89
  -1   1  -3   61.74    1.74
   1   1  -3   62.45    1.41
   1  -1  -3   60.85    1.89
   1  -1  -2   36.15    1.21
  -1   1  -2   33.90    1.10
   1   1  -2   36.68    0.90
   1   1  -1  274.76    4.73
  -1   1  -1  268.51    4.89
  -1  -1   2   34.92    0.88
  -1  -1   2   35.30    0.97
   1  -1   2   33.87    1.09
  -1   1   3   59.33    1.86
  -1  -1   3   62.08    1.40
   1  -1   3   58.10    1.68
  -1  -1   3   59.53    1.64
  -1   1   4   92.01    2.72
  -1  -1   4   94.05    2.10
   1  -1   4  101.48    2.48
  -1  -1   4   97.70    2.54
   1   1   5  462.64    9.37
  -1   1   5  458.64    9.22
   1  -1   5  468.59    8.68
  -1  -1   5  471.55    8.22
  -1  -1   5  458.31    8.92
  -1   1   6  184.35    4.82
  -1  -1   6  180.82    3.81
  -1  -1   6  184.36    4.58
   1  -1   6  184.24    4.24
   1   1   6  188.14    4.94
   1   1   7   47.68    2.31
  -1   1   7   45.95    2.22
  -1  -1   7   49.75    1.58
   1  -1   7   48.21    1.86
  -1  -1   7   49.25    2.18
  -1   1   7   48.34    1.52
  -1   1   8   44.40    1.55
  -1  -1   8   44.93    1.60
   1   1   8   42.32    2.33
   1  -1   8   44.39    1.85
   1   1   8   48.23    1.88
  -1   1   8   42.38    2.26
   1  -1   8   46.39    2.35
  -1  -1   8   48.14    2.29
   1   1   9   49.14    2.07
  -1   1   9   52.18    2.67
   1  -1   9   47.87    2.04
   1  -1   9   52.94    2.66
  -1  -1   9   52.59    1.82
  -1  -1   9   54.51    2.60
   1   1   9   46.52    2.61
  -1   1   9   49.45    1.69
   1  -1  10   13.26    1.46
  -1   1  10   12.74    1.49
  -1   1  10   11.73    0.81
  -1  -1  10   13.01    0.90
  -1  -1  10   13.59    1.45
   1   1  10   11.95    1.01
   1   1  10   10.53    1.33
   1  -1  10   14.51    1.14
   1  -1  11   11.27    1.37
  -1  -1  11   11.69    1.37
   1  -1  11   14.08    1.14
   1   1  11   11.41    1.45
  -1   1  11   12.03    1.46
   1   1  11   13.15    1.08
   1   1  12    0.74    0.72
   1  -1  12    0.33    0.58
  -1  -1  12    1.21    0.79
  -1   1  12    1.00    0.76
   1   1  13    3.38    0.98
   1  -1  13    3.73    1.05
  -1   1  13    5.13    1.13
  -1  -1  13    1.70    0.86
  -1  -1  14   13.48    1.73
   1   1  14   14.07    1.86
   1  -1  14   12.51    1.69
   1   2  -6    4.42    0.48
   1   2  -5  119.09    2.78
   2  -1  -5  119.09    3.41
   2  -1  -4   91.58    2.65
   1   2  -4   83.25    2.08
   2  -1  -3   82.74    2.33
   1   2  -3   79.75    1.96
   1   2  -2    1.29    0.32
  -2   1  -2    1.46    0.36
   1   2  -1   25.06    0.92
  -2   1  -1   26.29    0.96
   2  -1  -1   26.81    0.77
   2  -1   0    0.56    0.17
  -2   1   0    0.70    0.16
   1   2   1   25.36    0.89
  -1  -2   1   25.59    0.92
   2  -1   1   24.80    0.93
  -2   1   1   26.69    0.75
   2  -1   2    1.22    0.36
  -1  -2   2    1.38    0.29
   1   2   2    0.35    0.35
  -1  -2   3   78.62    1.93
  -1  -2   3   79.26    1.89
   2  -1   3   83.24    2.24
   1   2   3   75.48    2.34
  -1  -2   4   79.85    2.16
   2  -1   4   85.16    2.41
   1   2   4   80.56    2.60
  -1  -2   4   81.06    2.05
  -1  -2   5  115.02    2.71
   1   2   5  115.08    3.49
   2  -1   5  113.27    3.09
  -1  -2   5  113.46    3.00
  -1  -2   6    3.53    0.55
   2  -1   6    3.74    0.59
  -2   1   6    3.94    0.29
  -2   1   6    5.93    0.87
  -1  -2   6    4.71    0.52
   1   2   6    4.47    0.77
  -1  -2   7    0.49    0.32
  -1  -2   7    0.41    0.39
  -2   1   7    0.23    0.51
   1   2   7   -0.12    0.48
   2  -1   7    1.10    0.48
  -2   1   7    0.44    0.16
   2  -1   8    5.37    0.73
  -1  -2   8    3.81    0.72
  -1  -2   8    4.24    0.55
  -2   1   8    5.91    1.01
  -2   1   8    5.04    0.40
   1   2   8    4.56    0.92
  -2   1   9   10.71    1.31
   2  -1   9   10.71    1.03
   1   2   9   10.90    1.37
  -1  -2   9   10.78    1.15
  -1  -2   9    9.66    0.80
  -2   1   9   10.16    0.62
  -2   1  10   49.14    1.52
   1   2  10   49.43    2.85
   2  -1  10   46.75    2.74
  -1  -2  10   48.16    2.53
   1   2  10   54.81    2.22
  -2   1  10   50.94    2.81
  -1  -2  10   49.74    1.91
   2  -1  10   49.22    2.25
   2  -1  11    4.94    0.80
   1   2  11    4.12    0.96
   2  -1  11    3.01    0.75
   1   2  11    4.54    0.71
  -1  -2  11    4.58    0.95
   1   2  12   33.57    2.59
   2  -1  12   35.43    2.01
   2  -1  12   34.63    2.55
  -1  -2  12   38.04    2.47
   2  -1  13    1.49    0.84
   1   2  13    1.80    0.80
  -1  -2  13    0.56    0.70
   1   2  14    2.97    0.95
   2  -1  14    6.04    1.28
  -1  -2  14    5.54    1.12
   0   2  -5   74.99    2.13
   2   0  -5   73.27    2.42
   2   0  -4  355.06    6.86
   0   2  -4  337.56    6.51
   0   2  -3  192.95    3.98
   2   0  -3  199.09    4.16
   0  -2  -3  200.52    4.40
   0   2  -2   36.10    1.18
   0  -2  -2   38.09    1.31
   0   2  -1    1.80    0.26
   0  -2  -1    1.43    0.25
   0   2   0   36.43    0.94
   0  -2   0    1.33    0.29
   0  -2   1    1.01    0.22
   0   2   2   39.77    1.35
   0  -2   2   36.43    1.18
   0   2   3  191.50    4.32
   0  -2   3  195.61    3.95
   0   2   4  331.38    6.86
   0  -2   4  325.79    6.27
   0  -2   5   67.77    2.02
   2   0   5   65.75    2.15
   0   2   5   64.71    2.45
  -2   0   5   67.59    1.40
  -2   0   5   66.14    2.28
  -2   0   6   36.23    1.77
   0   2   6   38.02    1.93
   2   0   6   38.11    1.64
   0  -2   6   38.66    1.50
  -2   0   6   36.02    1.00
  -2   0   7   32.81    1.81
   0  -2   7   33.28    1.43
   0   2   7   29.73    1.88
   0  -2   7   32.44    1.71
   2   0   7   31.69    1.58
  -2   0   7   30.93    0.98
   2   0   8    6.01    0.77
   0  -2   8    5.89    0.85
  -2   0   8    5.80    0.89
   0   2   8    5.96    0.99
  -2   0   8    5.01    0.42
   0  -2   8    6.85    0.70
   2   0   9    3.74    0.84
   0   2   9    4.79    0.99
  -2   0   9    3.90    0.82
   0  -2   9    4.41    0.66
   0  -2   9    5.11    0.82
   2   0   9    3.96    0.73
   0   2   9    4.82    0.65
  -2   0   9    4.89    0.43
  -2   0  10    7.49    1.21
   2   0  10    8.16    0.96
   2   0  10    6.19    1.06
   0  -2  10   10.71    1.27
   0   2  10    8.56    0.84
  -2   0  10    8.09    0.57
   0  -2  10    9.26    0.93
   0   2  10   10.71    1.40
   0   2  11   70.97    3.61
   0   2  11   72.03    2.55
   0  -2  11   69.14    3.31
  -2   0  11   73.26    3.47
   0  -2  11   77.34    2.70
   2   0  11   73.01    2.87
   2   0  11   70.12    3.59
   0  -2  12    6.43    1.12
   0   2  12    5.11    1.11
   2   0  12    5.17    0.78
   2   0  12    6.07    1.23
   0   2  13    3.70    1.23
   2   0  13    2.86    1.00
   0  -2  13    1.23    0.79
   2   0  14    0.22    0.66
   0  -2  14    1.14    0.80
   0   2  14    0.22    0.69
  -1   2  -5  135.21    3.40
   1  -2  -4    0.30    0.32
   2   1  -4    0.97    0.33
  -1   2  -4    1.09    0.37
   2   1  -4    0.57    0.15
   2   1  -3  109.87    2.50
   1  -2  -3  114.19    2.91
  -1   2  -3  107.14    2.63
   2   1  -3  103.91    2.07
   1  -2  -2   73.27    2.05
   2   1  -2   71.32    1.53
  -1   2  -2   73.47    1.93
  -1   2  -1  217.30    4.27
   1  -2  -1  223.90    4.18
  -1   2   0    1.63    0.26
   1  -2   0    2.11    0.30
  -1   2   1  218.47    4.12
   1  -2   1  218.75    4.25
   1  -2   2   70.87    1.92
  -1   2   2   74.31    1.75
   1  -2   3  109.10    2.65
  -2  -1   4    0.40    0.16
   1  -2   4    0.34    0.32
  -2  -1   4    0.88    0.35
  -1   2   4    0.57    0.50
  -1   2   5  127.79    3.64
  -2  -1   5  127.89    2.55
   1  -2   5  123.12    3.19
  -2  -1   5  125.96    3.31
  -1   2   6  142.28    4.18
  -2  -1   6  144.66    2.93
   1  -2   6  138.79    3.59
  -2  -1   6  142.07    3.84
  -2  -1   7    4.43    0.73
  -2  -1   7    3.21    0.35
  -1   2   7    3.38    0.78
   1  -2   7    2.36    0.47
  -1   2   8   17.77    1.55
  -2  -1   8   19.52    1.43
   2   1   8   17.54    1.51
   1  -2   8   17.91    1.19
   2   1   8   18.39    1.24
  -2  -1   8   18.47    0.86
   1  -2   9  151.00    4.78
   2   1   9  151.31    4.25
   2   1   9  146.97    5.02
  -2  -1   9  149.85    4.68
  -2  -1   9  150.45    3.36
   1  -2   9  152.69    4.16
  -1   2   9  149.71    3.59
  -1   2   9  146.95    5.00
   2   1  10   10.64    1.39
  -2  -1  10   10.96    1.31
   2   1  10   11.87    1.12
   1  -2  10   10.09    1.30
  -1   2  10   14.32    1.55
  -1   2  10   11.79    0.86
   1  -2  10   12.73    1.10
  -2  -1  10   11.45    0.72
   2   1  11   28.12    1.72
   1  -2  11   26.63    2.05
  -1   2  11   28.53    2.26
   2   1  11   26.12    2.22
   1  -2  11   27.49    1.64
  -2  -1  11   28.81    2.11
  -1   2  12   20.53    2.00
   2   1  12   19.85    1.46
   1  -2  12   19.32    1.82
   2   1  12   19.82    2.01
  -2  -1  12   19.82    1.87
   2   1  13    1.50    0.72
   1  -2  13    2.36    0.82
   1  -2  14   13.12    1.73
   2   1  14   14.79    1.90
   2   2  -6    4.73    0.45
   2   2  -5  108.85    2.46
   2  -2  -4    1.09    0.36
   2   2  -4    2.00    0.29
  -2   2  -4    1.72    0.44
   2  -2  -3  336.82    6.69
   2   2  -3  323.40    5.97
  -2   2  -3  336.84    6.53
  -2   2  -2   85.63    2.27
   2   2  -2   83.64    1.67
   2  -2  -2   84.50    1.93
   2   2  -2   82.87    2.02
  -2   2  -1    5.39    0.52
   2  -2  -1    5.48    0.43
  -2   2   0  157.10    3.27
   2  -2   0  157.09    3.28
  -2   2   1    6.85    0.45
   2  -2   1    4.99    0.51
   2  -2   2   82.28    2.25
  -2   2   2   83.29    1.89
  -2   2   3  317.18    5.60
  -2  -2   3  311.43    5.76
   2  -2   3  314.29    6.26
  -2   2   4    2.13    0.27
   2  -2   4    2.10    0.48
  -2  -2   4    1.63    0.34
  -2  -2   4    1.77    0.32
  -2  -2   5  102.87    2.81
  -2  -2   5  112.30    2.49
   2  -2   5  110.64    3.04
  -2   2   5  105.78    2.35
  -2  -2   6    4.10    0.43
   2  -2   6    4.14    0.62
   2   2   6    4.51    0.75
  -2  -2   6    3.91    0.60
   2  -2   7   23.92    1.38
  -2  -2   7   21.68    0.97
   2   2   7   23.27    1.67
  -2  -2   7   21.51    1.33
  -2  -2   8  105.44    3.50
  -2  -2   8  112.14    2.72
  -2   2   8  105.16    2.48
   2  -2   8  102.69    3.32
   2   2   8  101.08    3.92
  -2   2   9    0.45    0.23
  -2  -2   9    0.25    0.26
  -2  -2   9    1.43    0.61
   2   2   9    0.68    0.64
   2  -2   9   -0.13    0.46
   2  -2  10    0.78    0.50
  -2  -2  10   -0.28    0.58
   2   2  10    0.60    0.48
  -2   2  10    0.35    0.23
  -2  -2  10    0.16    0.27
   2   2  10    0.14    0.71
   2  -2  11  127.14    4.08
  -2  -2  11  126.66    4.56
   2   2  11  125.03    3.99
   2  -2  11  121.40    4.74
   2   2  11  123.31    4.99
   2   2  12    9.59    1.05
   2   2  12    7.02    1.34
  -2  -2  12   13.53    1.53
   2  -2  12   10.09    1.12
   2  -2  12   10.68    1.48
   2  -2  13    0.65    0.67
   2   2  13    0.02    0.66
   2  -2  14    4.09    1.07
   2   2  14    3.65    1.14
   2   3  -7    2.06    0.40
   2   3  -6    0.96    0.29
   2   3  -5   23.25    1.07
   3  -2  -4   11.49    0.93
   2   3  -4   11.54    0.71
  -3   2  -4   11.63    0.90
   3  -2  -3   97.10    2.12
   2   3  -3   94.88    2.43
  -3   2  -3   98.14    2.77
   2   3  -2  132.88    3.11
   3  -2  -2  130.18    2.78
  -3   2  -2  132.32    3.29
  -3   2  -1  152.76    3.44
   3  -2  -1  147.73    3.17
   3  -2   0    0.42    0.35
  -3   2   0    0.21    0.31
   3  -2   1  140.28    3.30
  -3   2   1  141.94    3.03
   3  -2   2  129.28    3.23
  -3   2   2  131.86    2.73
  -2  -3   3   95.46    2.44
   3  -2   3   93.74    2.72
   2   3   3   95.27    2.82
  -2  -3   3   95.97    1.97
  -3   2   3   95.02    2.04
  -3   2   4   10.97    0.48
  -2  -3   4   10.71    0.74
   2   3   4   10.72    0.96
  -2  -3   4   11.42    0.63
   3  -2   4   10.55    0.91
  -2  -3   5   24.98    1.13
   3  -2   5   24.51    1.36
  -3   2   5   23.73    0.72
  -2  -3   5   24.73    1.09
   2   3   5   24.08    1.54
  -2  -3   6    1.89    0.42
   2   3   6    0.89    0.63
  -3   2   6    1.71    0.19
  -2  -3   6    1.17    0.35
   3  -2   6    1.65    0.53
   3  -2   7    2.60    0.62
  -2  -3   7    2.45    0.49
  -3   2   7    2.67    0.23
   2   3   7    2.71    0.74
  -3   2   7    2.81    0.23
  -2  -3   7    3.16    0.48
  -2  -3   8    0.88    0.37
  -3   2   8    0.71    0.14
   3  -2   8    1.51    0.58
  -2  -3   8    0.60    0.39
  -3   2   8    0.58    0.13
   2   3   8    1.13    0.70
  -3   2   9  112.33    2.27
   2   3   9  113.71    4.43
   3  -2   9  118.13    3.83
  -2  -3   9  125.93    3.17
  -3   2   9  111.44    2.23
  -2  -3   9  125.81    3.90
  -2  -3  10    9.87    0.80
  -2  -3  10    8.88    1.08
   2   3  10    7.00    1.22
   3  -2  10    7.75    0.98
   3  -2  11   -1.19    0.68
   2   3  11   -0.39    0.73
   2   3  11   -0.46    0.50
  -2  -3  11    0.48    0.62
   3  -2  12   15.46    1.45
  -2  -3  12   16.82    1.62
   2   3  12   19.85    2.09
   3  -2  12   18.77    1.92
  -2  -3  13    5.95    1.11
   2   3  13    6.65    1.41
   3  -2  13    4.62    1.12
   2   3  14   12.58    1.88
   3  -2  14   14.38    1.85
   1   3  -7    7.01    0.67
   1   3  -6  731.10   13.05
   3  -1  -5   11.44    0.98
   1   3  -5   10.03    0.72
   3  -1  -4   31.57    1.47
   1   3  -4   28.94    1.18
   1   3  -3    2.04    0.39
   3  -1  -2  451.45    7.74
   1   3  -2  462.23    8.31
   3  -1  -1   19.85    0.78
   1   3  -1   23.65    1.02
  -1  -3  -1   19.99    0.86
   1   3   0   17.35    0.90
   3  -1   0   16.96    0.80
  -3   1   0   17.40    0.81
  -1  -3   0   16.85    0.62
  -3   1   1   21.31    0.80
  -1  -3   1   21.56    0.99
   1   3   1   21.11    0.89
   3  -1   1   19.84    0.96
  -3   1   2  468.21    7.94
   1   3   2  472.83    8.65
   3  -1   2  466.06    8.70
  -1  -3   2  466.11    8.57
  -1  -3   3    2.21    0.41
   1   3   3    2.25    0.52
   3  -1   3    2.48    0.50
   3  -1   4   27.15    1.38
   1   3   4   28.62    1.51
  -1  -3   4   29.97    1.22
   3  -1   5   10.79    0.92
  -1  -3   5   10.92    0.78
   1   3   5   11.53    1.09
  -1  -3   5   10.24    0.74
   3  -1   6  689.34   13.03
  -1  -3   6  698.09   12.71
  -1  -3   6  689.75   12.46
   1   3   6  683.66   13.62
  -1  -3   7    5.80    0.73
   1   3   7    8.04    1.05
   3  -1   7    7.92    0.90
  -1  -3   7    6.52    0.67
  -1  -3   8   30.40    1.44
  -1  -3   8   29.86    1.72
   1   3   8   29.01    2.04
   3  -1   8   32.60    1.80
  -1  -3   9    0.13    0.41
   3  -1   9    0.65    0.61
   1   3   9    0.81    0.81
  -1  -3   9    0.06    0.46
   1   3  10  227.61    7.01
  -1  -3  10  237.35    5.48
   3  -1  10  229.76    6.01
  -1  -3  10  235.32    6.37
   3  -1  11   -0.06    0.70
   1   3  11   -0.41    0.80
  -1  -3  11    0.40    0.50
   3  -1  11    1.73    0.64
   1   3  11    0.98    0.44
   3  -1  12    1.80    0.80
  -1  -3  12    3.25    0.86
   3  -1  12    2.28    0.61
   1   3  12    3.33    0.96
   3  -1  13    1.56    0.79
  -1  -3  13    1.70    0.67
   1   3  13    2.45    0.93
   1   3  14   66.01    4.09
  -1  -3  14   68.82    3.69
   3  -1  14   62.85    3.83
   0   3  -7    1.36    0.40
   0   3  -6   10.94    0.83
   0   3  -5    0.88    0.34
   3   0  -5    0.90    0.38
   0   3  -4   14.05    0.86
   3   0  -4   16.34    0.98
   0  -3  -4   14.76    1.05
   0   3  -3   64.23    1.92
   0  -3  -3   65.69    2.14
   0   3  -2   86.20    2.25
   0  -3  -2   81.31    2.30
   0   3  -1  104.89    2.58
   0  -3  -1  106.04    2.49
   0   3   0    0.39    0.29
   0  -3   0   -0.05    0.35
   0   3   1  107.03    2.61
   0  -3   1  107.89    2.61
   0   3   2   79.93    2.29
   0  -3   2   82.94    2.21
   0   3   3   62.65    2.13
   0  -3   3   59.88    1.87
   0  -3   4   15.24    0.92
   0   3   4   13.34    1.07
   0  -3   5    0.87    0.36
   0   3   5    0.95    0.54
   3   0   6    9.76    0.94
   0   3   6    9.22    1.04
   0  -3   6   11.12    0.87
   0   3   7    1.20    0.54
   0  -3   7    1.36    0.41
   3   0   7    1.65    0.52
   0   3   8    1.75    0.76
   0  -3   8    2.86    0.59
   0  -3   8    2.55    0.60
   3   0   8    1.42    0.57
   0  -3   9    1.46    0.52
   0   3   9    1.62    0.74
   0  -3   9    2.02    0.54
   3   0   9    1.82    0.56
   0  -3  10  113.78    3.42
   0  -3  10  102.07    3.90
   3   0  10  103.19    3.63
   3   0  10  100.76    4.27
   0   3  10  101.45    4.33
   3   0  11   10.21    1.41
   0  -3  11   11.39    1.04
   3   0  11   11.61    1.21
   0   3  11   10.06    1.54
   0   3  11   10.27    0.94
   0  -3  11   12.20    1.37
   0   3  12   74.07    3.91
   0  -3  12   70.37    3.44
   3   0  12   66.35    3.69
   3   0  12   69.02    2.99
   0   3  13    2.76    0.96
   0  -3  13    3.76    0.98
   3   0  13    2.56    0.96
   3   0  14    7.40    1.40
   0  -3  14    6.20    1.17
   0   3  14   10.12    1.66
  -1   3  -7   10.00    0.89
  -1   3  -6    5.80    0.68
  -1   3  -5  167.84    4.04
   3   1  -5  162.07    3.97
  -1   3  -4    3.04    0.48
   3   1  -4    2.50    0.41
   1  -3  -4    3.08    0.55
  -1   3  -3  278.04    5.48
   3   1  -3  258.31    4.70
   1  -3  -3  272.75    5.74
  -1   3  -2   18.30    0.95
   1  -3  -1    0.53    0.38
  -1   3  -1    0.35    0.35
  -1   3   0   11.98    0.72
   1  -3   0   12.54    0.75
  -1   3   1    0.18    0.32
   1  -3   1    0.38    0.33
   1  -3   2   18.83    1.01
  -1   3   2   19.25    0.92
   1  -3   3  257.44    5.40
  -1   3   3  260.86    5.13
   1  -3   4    2.62    0.52
   1  -3   5  153.09    3.81
  -1   3   5  145.92    4.20
   1  -3   6    5.59    0.70
  -1   3   6    3.75    0.78
  -3  -1   7   10.00    0.44
  -1   3   7   10.62    1.22
   1  -3   7   11.79    0.97
   3   1   8   23.65    1.52
  -3  -1   8   24.85    0.79
  -1   3   8   22.26    1.78
   1  -3   8   24.79    1.46
  -3  -1   9   50.02    1.28
   3   1   9   48.10    2.30
   3   1   9   50.18    2.82
  -1   3   9   49.14    2.75
   1  -3   9   47.87    2.14
   3   1  10    0.41    0.52
  -1   3  10    1.59    0.94
   3   1  10   -0.38    0.81
   1  -3  10    0.21    0.60
  -1   3  10    0.56    0.32
   1  -3  10    0.92    0.53
   3   1  11   84.31    3.31
   1  -3  11   84.53    3.70
   1  -3  11   82.43    3.09
  -1   3  11   82.42    3.99
   3   1  11   82.56    4.00
   3   1  12    6.74    1.28
   1  -3  12    8.34    1.21
   3   1  12    6.46    0.92
   3   1  13   27.65    2.48
   1  -3  13   28.15    2.29
   1  -3  14    7.52    1.34
   3   1  14    5.19    1.23
   3   2  -6  444.34    7.81
   3   2  -5    1.17    0.23
  -2   3  -5    1.67    0.43
  -2   3  -4    6.07    0.65
   3   2  -4    4.67    0.39
   2  -3  -4    6.48    0.74
   3   2  -4    4.39    0.45
  -2   3  -3    9.69    0.76
   3   2  -3   10.48    0.57
   3   2  -3    9.75    0.58
  -2   3  -2    7.87    0.69
   2  -3  -2    9.35    0.65
   2  -3  -1   84.33    2.23
  -2   3  -1   89.98    2.39
  -2   3   0    1.38    0.36
   2  -3   0    1.47    0.47
  -2   3   1   85.35    2.21
   2  -3   1   86.44    2.37
  -2   3   2    9.75    0.63
   2  -3   2   10.46    0.81
  -2   3   3    8.50    0.58
   2  -3   3    7.82    0.74
  -2   3   4    5.09    0.46
   2  -3   4    5.50    0.68
  -2   3   5    1.50    0.31
   2  -3   5    0.88    0.39
  -2   3   6  427.83    7.88
  -3  -2   6  426.40    7.60
   2  -3   6  435.31    8.75
   2  -3   7   15.42    1.19
  -3  -2   7   17.92    0.79
  -3  -2   8    0.77    0.28
   2  -3   8    0.87    0.56
   3   2   8    1.24    0.70
   2  -3   9   16.43    1.35
   3   2   9   16.87    1.66
  -3  -2   9   18.84    0.85
   2  -3  10   23.50    1.60
   3   2  10   25.50    2.12
   3   2  10   21.55    1.57
  -2   3  10   23.76    1.08
   3   2  11   28.02    1.85
   2  -3  11   27.99    2.13
   3   2  11   25.87    2.27
   2  -3  11   30.06    1.86
   2  -3  12   13.25    1.33
   3   2  12   11.40    1.59
   2  -3  12   15.06    1.66
   3   2  12   12.76    1.29
   2  -3  13    1.94    0.84
   3   2  13    4.70    1.26
   2  -3  14   12.46    1.68
   3   2  14   11.22    1.73
   3   3  -8    1.97    0.37
   3   3  -7   34.32    1.29
   3   3  -6   19.52    0.93
   3   3  -5   15.73    0.83
   3   3  -4    5.17    0.51
  -3   3  -4    4.75    0.67
   3   3  -3   38.51    1.40
  -3   3  -3   37.63    1.63
   3   3  -3   37.90    1.02
   3  -3  -3   36.68    1.28
   3  -3  -2   61.56    1.80
  -3   3  -2   61.54    2.06
  -3   3  -1  185.39    4.08
   3  -3  -1  172.93    3.88
   3  -3   0  143.93    3.47
  -3   3   0  151.31    3.44
  -3   3   1  183.66    3.88
   3  -3   1  175.53    4.11
  -3   3   2   61.93    1.77
   3  -3   2   62.89    2.10
   3  -3   3   35.40    1.59
  -3   3   3   35.40    1.20
  -3   3   4    4.47    0.41
   3  -3   4    5.55    0.75
   3  -3   5   13.95    1.12
  -3   3   5   14.85    0.70
  -3  -3   6   21.86    1.02
  -3   3   6   19.70    0.82
   3  -3   6   21.51    1.39
   3   3   7   30.45    2.02
   3  -3   7   34.57    1.83
  -3  -3   7   33.50    1.31
  -3   3   7   31.36    1.08
  -3  -3   8    1.60    0.37
   3   3   8    0.34    0.80
  -3   3   8    1.73    0.28
   3  -3   8    1.90    0.64
   3  -3   9   32.04    1.91
  -3   3   9   31.68    1.06
   3   3   9   35.56    2.40
  -3  -3   9   37.11    1.41
   3  -3  10   36.17    2.14
   3   3  10   38.08    2.62
   3   3  11    5.36    1.08
   3   3  11    4.93    0.86
   3  -3  11    3.88    0.77
   3  -3  12    2.28    0.70
   3   3  12    2.53    0.97
   3   3  12    2.14    0.66
   3  -3  12    2.37    0.87
   3  -3  13   11.23    1.53
   3   3  13   12.07    1.78
   3  -3  14   12.56    1.69
   3   3  14   18.12    2.18
   3   4  -8   23.46    1.19
   3   4  -7   53.49    1.90
   3   4  -6   22.71    1.17
   3   4  -5  305.02    6.22
   3   4  -4  186.60    4.27
   4  -3  -4  187.00    3.88
   4  -3  -3  136.03    3.12
   3   4  -3  136.69    3.46
  -4   3  -3  146.34    3.81
  -4   3  -2   51.83    1.98
   4  -3  -2   53.44    1.70
   3   4  -2   49.83    1.85
   3   4  -1    9.07    0.39
   4  -3  -1    8.45    0.72
  -4   3  -1    9.74    0.81
  -4   3   0    0.43    0.27
   4  -3   0    0.50    0.41
   4  -3   1    7.20    0.77
  -4   3   1    9.45    0.69
  -4   3   2   47.47    1.55
   4  -3   2   46.20    1.88
   4  -3   3  136.72    3.76
  -4   3   3  137.76    3.05
   3   4   4  182.44    4.78
  -4   3   4  185.14    3.73
   4  -3   4  178.69    4.69
   3   4   5  290.96    7.04
   4  -3   5  294.49    6.81
  -4   3   5  302.11    5.48
  -3  -4   6   24.47    1.24
  -4   3   6   24.86    0.83
   3   4   6   25.47    1.74
   4  -3   6   25.20    1.60
  -4   3   7   52.76    1.27
   3   4   7   52.69    2.70
   4  -3   7   52.48    2.42
  -3  -4   7   56.81    1.97
   4  -3   8   23.93    1.67
  -3  -4   8   24.94    1.43
  -3  -4   8   25.12    1.29
   3   4   8   23.64    1.92
   4  -3   9   32.15    2.00
   3   4   9   31.46    2.33
  -3  -4   9   33.05    1.53
   3   4  10   17.99    1.92
   4  -3  10   17.67    1.52
   4  -3  11   16.50    1.53
   3   4  11   13.93    1.70
   3   4  12    0.59    0.79
   4  -3  12    0.94    0.69
   3   4  13    8.42    1.56
   4  -3  13    6.60    1.33
   4  -3  14    2.26    0.91
   3   4  14    5.44    1.35
   2   4  -9   28.65    1.43
   2   4  -8  172.02    4.20
   2   4  -7   45.59    1.80
   2   4  -6   20.60    1.16
   2   4  -5   42.30    1.62
   2   4  -4   39.27    1.55
   4  -2  -4   39.05    1.09
   4  -2  -3    5.99    0.45
   2   4  -3    6.27    0.61
   4  -2  -2    0.05    0.24
   2   4  -2    0.53    0.39
  -4   2  -2    0.79    0.41
  -4   2  -1    6.84    0.65
   2   4  -1    4.62    0.57
   4  -2  -1    6.02    0.55
   4  -2   0  528.17    9.82
   2   4   0  549.80    9.30
  -4   2   0  535.56    9.84
  -4   2   1    4.81    0.49
   2   4   1    6.34    0.54
   4  -2   1    6.44    0.72
  -4   2   2    0.53    0.24
   2   4   2    0.34    0.34
   4  -2   2    1.02    0.49
   2   4   3    6.68    0.73
  -4   2   3    6.76    0.44
   4  -2   3    5.52    0.71
  -2  -4   3    6.40    0.68
  -2  -4   4   40.69    1.16
  -2  -4   4   40.14    1.60
   2   4   4   39.90    1.89
   4  -2   4   41.56    1.82
  -4   2   4   38.49    1.04
   2   4   5   43.00    2.10
   4  -2   5   39.36    1.90
  -2  -4   5   41.64    1.67
  -2  -4   5   41.49    1.40
  -2  -4   6   19.56    1.14
   4  -2   6   17.80    1.33
   2   4   6   18.86    1.51
  -2  -4   6   20.74    1.08
   2   4   7   43.46    2.42
  -2  -4   7   45.26    1.81
  -2  -4   7   48.55    1.90
   4  -2   7   45.04    2.21
   2   4   8  157.72    5.29
  -2  -4   8  166.34    4.40
   4  -2   8  162.42    4.76
  -2  -4   8  166.56    4.15
   4  -2   9   22.90    1.69
   2   4   9   26.14    2.11
  -2  -4   9   25.07    1.59
  -2  -4   9   26.65    1.40
  -2  -4  10   13.97    1.06
   4  -2  10   14.49    1.37
   2   4  10   12.89    1.61
  -2  -4  10   14.43    1.28
  -2  -4  11   73.74    3.18
   4  -2  11   70.18    3.14
   2   4  11   69.19    3.79
   4  -2  12    4.26    0.81
  -2  -4  12    6.30    1.07
   2   4  12    4.86    1.07
   2   4  13    0.42    0.74
  -2  -4  13   -0.07    0.55
   4  -2  13    0.97    0.79
   2   4  14   26.96    2.64
   4  -2  14   18.50    2.07
   1   4  -8   56.76    2.18
   1   4  -7    7.89    0.77
   1   4  -6    7.47    0.75
   1   4  -5  108.43    3.01
   1   4  -4   55.97    1.92
   1   4  -3   65.74    2.14
  -1  -4  -3   68.65    2.31
   4  -1  -3   68.56    1.53
   1   4  -2    4.36    0.56
  -1  -4  -2    4.25    0.50
   4  -1  -2    4.19    0.39
  -1  -4  -1  139.28    3.13
   1   4  -1  139.01    3.45
   4  -1  -1  140.65    3.07
   4  -1   0    0.19    0.35
  -1  -4   0    0.54    0.25
   1   4   0   -0.17    0.43
   4  -1   1  142.19    3.37
  -1  -4   1  135.70    3.40
   1   4   1  136.75    3.15
  -1  -4   2    4.62    0.66
   4  -1   2    3.49    0.58
   1   4   2    3.98    0.56
   1   4   3   70.27    2.37
  -1  -4   3   68.65    2.17
   4  -1   3   64.43    2.30
  -1  -4   4   50.01    1.86
   1   4   4   59.89    2.27
   4  -1   4   54.10    2.13
   1   4   5  108.24    3.54
   4  -1   5  111.90    3.39
  -1  -4   5  110.80    3.05
   4  -1   6    8.87    0.97
  -1  -4   6    8.46    0.79
   1   4   6    9.07    1.11
   4  -1   7    6.37    0.88
  -1  -4   7    7.70    0.83
   1   4   7    6.77    1.01
  -1  -4   7    8.02    0.80
  -1  -4   8   59.49    2.38
  -1  -4   8   57.61    2.19
   1   4   8   53.36    2.88
   4  -1   8   57.71    2.54
   4  -1   9   76.05    3.08
   1   4   9   77.11    3.60
  -1  -4   9   74.83    2.65
  -1  -4   9   75.55    2.92
  -1  -4  10   18.06    1.26
  -1  -4  10   16.15    1.39
   4  -1  10   19.47    1.55
   1   4  10   16.64    1.79
   1   4  11    1.33    0.81
   4  -1  11    0.01    0.54
  -1  -4  11    0.64    0.59
  -1  -4  12   31.55    2.19
   1   4  12   26.63    2.41
   4  -1  12   30.64    2.47
   4  -1  12   28.59    1.97
  -1  -4  13   12.06    1.48
   4  -1  13   11.12    1.57
   1   4  13    9.02    1.58
   4  -1  14    7.20    1.40
   1   4  14    7.66    1.57
   0   4  -7  101.57    3.14
   0   4  -6   17.70    1.12
   0   4  -5    5.70    0.64
   4   0  -5    5.81    0.70
   0   4  -4    9.34    0.78
   0   4  -3    1.00    0.34
   4   0  -3    1.22    0.19
   0  -4  -3    2.21    0.48
   0   4  -2    0.57    0.40
   0  -4  -2    0.39    0.34
   0   4  -1    9.36    0.77
   0  -4  -1    9.89    0.70
   0   4   0  352.33    6.95
   0  -4   0  352.58    7.01
   0  -4   1    9.04    0.81
   0   4   1    9.32    0.81
   0   4   2   -0.09    0.30
   0  -4   2   -0.44    0.47
   0  -4   3    1.39    0.42
   0   4   3    2.05    0.62
   0  -4   4   14.86    0.99
   0   4   4   13.61    1.13
   0   4   5    5.17    0.82
   0  -4   5    4.75    0.64
   0  -4   6   15.68    1.10
   0   4   6   14.51    1.31
   4   0   6   15.31    1.22
   0   4   7  102.77    3.78
   0  -4   7   99.39    3.08
   4   0   7  100.10    3.39
   0  -4   8  179.05    4.63
   0   4   8  178.84    5.56
   4   0   8  173.64    4.96
   0   4   9   38.92    2.51
   0  -4   9   37.33    2.05
   0  -4   9   38.92    1.90
   4   0   9   38.30    2.10
   0  -4  10    5.83    0.84
   0  -4  10    7.47    1.06
   0   4  10    5.50    1.17
   4   0  10    4.76    0.82
   0  -4  11   40.00    2.37
   0   4  11   46.08    2.99
   0  -4  11   44.68    2.14
   4   0  11   38.52    2.72
   4   0  11   40.30    2.33
   0   4  12    9.03    1.52
   0  -4  12    6.15    1.05
   4   0  12    7.14    1.25
   4   0  12    5.76    0.97
   0  -4  13    1.70    0.70
   4   0  13    2.95    0.97
   0   4  13    4.37    1.13
   4   0  14   10.90    1.65
   0  -4  14    9.87    1.41
   4   1  -6   36.33    1.68
   4   1  -5  112.63    3.11
  -1   4  -5  106.88    3.14
  -1   4  -4  105.81    2.97
   4   1  -4   99.77    2.05
   4   1  -4  101.80    2.75
  -1   4  -3    3.29    0.55
   1  -4  -3    2.13    0.52
  -1   4  -2  156.50    3.79
  -1   4  -1  105.35    2.80
   1  -4  -1  101.28    2.78
   1  -4   0    0.90    0.42
  -1   4   0    1.77    0.49
   1  -4   1   99.18    2.76
  -1   4   1   99.78    2.65
   1  -4   2  150.48    3.76
  -1   4   2  156.34    3.66
  -1   4   3    2.98    0.45
   1  -4   3    3.27    0.62
   1  -4   4   97.30    2.91
  -1   4   4   97.20    2.71
   1  -4   5  108.70    3.20
   1  -4   6   33.88    1.66
   1  -4   7    6.02    0.77
   1  -4   8   10.55    1.04
  -1   4   8   13.75    1.51
   4   1   8    9.51    1.08
   1  -4   9   18.52    1.38
   4   1   9   17.39    1.38
   1  -4  10   40.68    2.11
   1  -4  10   42.19    2.36
   4   1  10   38.35    2.21
   1  -4  11    3.08    0.70
   4   1  11    3.95    0.82
   1  -4  11    3.34    0.80
   4   1  11    3.47    0.90
   4   1  12    2.77    0.97
   4   1  12    3.99    0.82
   1  -4  12    3.24    0.90
   4   1  13    0.09    0.64
   1  -4  13    0.85    0.60
   4   1  14    5.71    1.28
   1  -4  14   10.54    1.50
   4   2  -6   39.17    1.68
   4   2  -6   37.71    1.05
   4   2  -5    8.11    0.48
   4   2  -5    8.55    0.69
   4   2  -4  453.48    8.18
   4   2  -4  466.54    8.51
  -2   4  -4  473.73    9.19
  -2   4  -3   36.39    1.61
   2  -4  -2    9.48    0.77
  -2   4  -2    9.51    0.80
  -2   4  -1   70.51    2.21
   2  -4  -1   67.65    2.13
   2  -4   0 1994.95   33.93
  -2   4   0 2079.09   33.90
  -2   4   1   70.89    2.12
   2  -4   1   67.09    2.24
   2  -4   2    8.76    0.83
  -2   4   2    9.09    0.71
  -2   4   3   37.65    1.42
   2  -4   3   36.49    1.63
   2  -4   4  458.05    9.22
  -2   4   4  467.23    8.69
   2  -4   5    8.57    0.92
  -2   4   5    7.87    0.67
   2  -4   6   32.81    1.75
  -2   4   6   35.65    1.44
   2  -4   7    7.89    0.98
  -2   4   7    8.54    0.70
   2  -4   8  189.91    5.16
  -2   4   8  192.49    4.40
   2  -4   9   17.93    1.42
   2  -4  10    6.23    0.91
   4   2  10    8.01    1.27
   4   2  10    6.97    1.03
   4   2  11   23.31    1.77
   2  -4  11   23.37    1.72
   4   2  11   25.02    2.21
   4   2  12   33.17    2.71
   2  -4  12   38.39    2.26
   4   2  12   33.19    2.16
   2  -4  12   36.14    2.47
   4   2  13    6.36    1.33
   2  -4  13    4.94    1.12
   4   2  14    6.90    1.47
   2  -4  14    6.31    1.23
   4   3  -8    4.90    0.44
   4   3  -7   21.05    0.91
   4   3  -6    2.61    0.36
   4   3  -5    8.78    0.65
   4   3  -5    8.20    0.60
   4   3  -4    4.58    0.41
   4   3  -4    4.47    0.49
  -3   4  -3   58.09    2.14
   3  -4  -3   53.77    1.83
   4   3  -3   52.08    1.74
  -3   4  -2    1.23    0.39
   3  -4  -2    0.43    0.35
  -3   4  -1   17.52    1.08
   3  -4  -1   14.50    0.96
  -3   4   0    2.21    0.44
   3  -4   0    2.84    0.60
   3  -4   1   12.60    0.96
  -3   4   1   14.55    0.91
   3  -4   2    1.42    0.58
  -3   4   2    1.61    0.38
  -3   4   3   54.95    1.77
   3  -4   3   53.04    2.11
   3  -4   4    3.75    0.65
  -3   4   4    4.78    0.51
   3  -4   5   10.06    0.99
  -3   4   5    9.67    0.66
   3  -4   6    2.56    0.64
  -3   4   6    3.48    0.42
  -3   4   7   19.73    0.95
   3  -4   7   20.48    1.48
   3  -4   8    4.01    0.82
  -3   4   8    4.58    0.49
   4   3   9   39.14    2.56
   3  -4   9   38.47    2.19
   4   3  10   28.89    2.30
   3  -4  10   32.39    2.05
   4   3  11    5.40    1.09
   3  -4  11    6.51    1.02
   4   3  12    4.58    1.13
   4   3  12    7.90    1.11
   3  -4  12   11.14    1.31
   3  -4  13    0.35    0.64
   4   3  13    3.68    1.06
   3  -4  14    9.27    1.50
   4   3  14    8.25    1.49
   4   4  -8    0.24    0.28
   4   4  -7   42.84    1.59
   4   4  -6    0.15    0.27
   4   4  -5   20.88    1.10
   4  -4  -4   38.90    1.49
   4   4  -4   40.90    1.60
   4   4  -3  363.73    6.18
   4  -4  -3  358.69    7.13
   4   4  -3  370.97    7.37
   4  -4  -2   42.01    1.65
  -4   4  -2   48.13    1.95
  -4   4  -1    8.37    0.78
   4  -4  -1    6.10    0.67
   4  -4   0   29.61    1.42
  -4   4   0   31.44    1.42
   4  -4   1    7.31    0.80
  -4   4   1    7.84    0.69
  -4   4   2   47.81    1.68
   4  -4   2   43.35    1.95
   4  -4   3  366.46    7.92
  -4   4   3  370.41    7.13
  -4   4   4   42.21    1.47
   4  -4   4   40.11    1.98
  -4   4   5   20.44    0.93
   4  -4   5   17.97    1.35
  -4   4   6   -0.03    0.20
   4  -4   6    0.83    0.51
   4  -4   7   44.53    2.27
  -4   4   7   42.73    1.36
   4   4   7   40.13    2.41
  -4   4   8    0.30    0.18
   4   4   8   -0.32    0.77
   4  -4   8    0.90    0.62
   4  -4   9   12.97    1.31
   4   4   9   10.35    1.45
   4   4  10    7.60    1.32
   4  -4  10    8.91    1.14
   4  -4  11   27.34    2.02
   4   4  11   27.80    2.43
   4  -4  12    1.54    0.77
   4   4  12    5.36    1.26
   4   4  13    0.60    0.90
   4   5  -8   27.69    1.39
   4   5  -7    9.04    0.82
   4   5  -6   33.50    1.56
   4   5  -5   11.86    0.94
   5  -4  -4    6.47    0.63
   4   5  -4    5.41    0.66
   5  -4  -3   10.21    0.80
   4   5  -3    9.35    0.87
   5  -4  -2  135.66    3.51
   4   5  -2  133.50    3.72
   5  -4  -1   69.90    2.35
  -5   4   0    2.63    0.51
   5  -4   0    2.59    0.61
   5  -4   1   70.69    2.54
  -5   4   1   74.34    2.36
   5  -4   2  145.03    4.00
  -5   4   2  138.24    3.49
  -5   4   3   10.36    0.76
   5  -4   3    9.16    1.06
   5  -4   4    6.36    0.96
  -5   4   4    6.48    0.58
   4   5   4    5.95    0.82
  -5   4   5   12.42    0.73
   4   5   5   11.72    1.18
   5  -4   5   12.27    1.22
   4   5   6   36.18    2.16
  -5   4   6   35.19    1.21
   5  -4   6   37.38    2.08
   5  -4   7   10.92    1.24
   4   5   7   10.74    1.30
  -5   4   7   10.15    0.56
   5  -4   8   27.50    1.97
   4   5   8   23.39    1.97
   5  -4   9    2.44    0.81
   4   5   9    4.85    1.19
   4   5  10   49.33    3.15
   5  -4  10   52.82    2.81
   4   5  11   -0.24    0.72
   5  -4  11    0.55    0.60
   4   5  12   79.36    4.38
   5  -4  12   74.41    3.62
   5  -4  13    0.23    0.63
   4   5  13    0.19    0.68
   3   5  -8   16.08    1.06
   3   5  -7   10.01    0.85
   3   5  -6   40.37    1.71
   3   5  -5  118.59    3.32
   3   5  -4   99.14    2.96
   5  -3  -4  100.74    2.48
   3   5  -3  163.00    4.12
   5  -3  -3  159.31    3.63
   5  -3  -2  324.15    6.44
   3   5  -2  322.31    6.91
   3   5  -1   13.53    1.01
  -5   3  -1   14.74    1.03
   5  -3  -1   13.85    0.93
   3   5   0   74.49    1.91
  -5   3   0   77.70    2.41
   5  -3   0   73.67    2.39
   3   5   1   13.53    0.84
  -5   3   1   14.37    0.92
   5  -3   1   14.93    1.07
  -5   3   2  309.56    6.30
   3   5   2  332.27    6.64
   5  -3   2  313.38    6.89
   5  -3   3  161.26    4.37
  -5   3   3  157.81    3.51
   3   5   3  160.69    4.21
   3   5   4   90.00    3.18
  -5   3   4  102.94    2.39
   5  -3   4   98.67    3.27
   5  -3   5  118.30    3.76
   3   5   5  115.83    3.88
  -5   3   5  119.14    2.56
   3   5   6   40.16    2.23
   5  -3   6   40.19    2.11
  -3  -5   6   40.98    1.76
  -5   3   6   38.29    1.04
   3   5   7    8.78    1.21
  -3  -5   7    9.62    0.86
   5  -3   7    9.62    1.15
   5  -3   8   13.64    1.33
   3   5   8   15.95    1.63
  -3  -5   8   16.97    1.15
  -3  -5   8   19.80    1.21
   5  -3   9   79.81    3.37
  -3  -5   9   83.91    2.78
   3   5   9   75.31    3.74
   5  -3  10   10.96    1.30
   3   5  10    7.37    1.32
   5  -3  11   31.43    2.19
   3   5  11   33.52    2.69
   3   5  12    5.44    1.25
   5  -3  12    3.91    1.00
   3   5  13   44.51    3.36
   5  -3  13   44.93    2.79
   2   5  -8    1.92    0.51
   2   5  -7   30.98    1.54
   2   5  -6   48.25    1.94
   2   5  -5   63.81    2.25
   5  -2  -4   14.48    0.66
   2   5  -4   11.64    0.92
   2   5  -3   38.24    1.65
   5  -2  -3   37.19    1.25
   5  -2  -2   11.57    0.74
   2   5  -2   14.24    1.00
   2   5  -1  343.40    7.23
   5  -2  -1  345.44    6.72
   2   5   0    3.23    0.64
   5  -2   0    2.47    0.53
  -5   2   0    2.73    0.51
   5  -2   1  340.95    7.14
  -5   2   1  356.14    6.82
  -2  -5   1  350.67    6.07
   2   5   1  350.89    6.75
  -5   2   2   12.57    0.75
   2   5   2   12.78    0.91
   5  -2   2   11.28    0.98
   2   5   3   35.91    1.71
   5  -2   3   36.55    1.76
  -2  -5   3   35.00    1.62
  -5   2   3   37.08    1.22
   2   5   4   14.19    1.13
   5  -2   4   11.16    1.09
  -2  -5   4   12.57    0.55
  -2  -5   4   12.96    1.01
  -2  -5   5   59.83    1.68
   2   5   5   58.81    2.57
   5  -2   5   59.15    2.47
  -2  -5   5   59.63    2.25
  -2  -5   6   48.63    1.66
   5  -2   6   47.49    2.27
  -2  -5   6   47.72    2.01
   2   5   6   46.43    2.44
   5  -2   7   34.22    1.96
  -2  -5   7   31.13    1.43
  -2  -5   7   31.16    1.62
   2   5   7   29.09    2.03
   5  -2   8    2.36    0.76
  -2  -5   8    2.43    0.57
  -2  -5   8    3.60    0.58
   2   5   8    2.42    0.92
   5  -2   9   41.87    2.36
   2   5   9   36.63    2.53
  -2  -5   9   41.35    1.95
  -2  -5   9   40.41    1.97
  -2  -5  10    5.49    0.85
   2   5  10    4.46    1.06
   5  -2  10    8.14    1.17
  -2  -5  10    6.98    0.84
   2   5  11   14.67    1.75
   5  -2  11   15.94    1.57
  -2  -5  11   15.19    1.38
   5  -2  12    1.72    0.70
   2   5  12    2.31    1.03
  -2  -5  12    1.66    0.69
   2   5  13   17.57    2.11
   5  -2  13   18.07    1.73
   2   5  14    2.08    0.98
   5  -2  14    0.32    0.70
   1   5  -6   21.56    1.31
   1   5  -5   44.28    1.91
   5  -1  -4   65.36    1.49
   1   5  -4   62.34    2.26
   5  -1  -3  101.76    2.28
   1   5  -3   96.89    2.94
  -1  -5  -3  104.35    3.07
   5  -1  -2    1.48    0.33
  -1  -5  -2    1.14    0.34
   1   5  -2    1.19    0.45
   5  -1  -1   63.04    1.90
  -1  -5  -1   63.22    1.92
   1   5  -1   65.33    2.24
   5  -1   0  418.82    8.03
   1   5   0  426.62    8.44
  -1  -5   0  414.68    7.58
   5  -1   1   60.52    2.09
  -1  -5   1   60.50    2.21
   1   5   1   62.49    2.22
  -1  -5   2    2.39    0.62
   1   5   2    1.74    0.50
   5  -1   2    2.08    0.60
   1   5   3  103.27    3.07
   5  -1   3  100.13    3.10
  -1  -5   3   97.50    3.00
   1   5   4   63.61    2.50
   5  -1   4   63.31    2.47
  -1  -5   4   66.16    2.32
   5  -1   5   43.71    2.10
  -1  -5   5   45.99    1.92
   1   5   5   40.92    2.13
  -1  -5   6   22.51    1.38
   1   5   6   25.59    1.76
   5  -1   6   22.06    1.54
   1   5   7    4.56    0.99
  -1  -5   7    6.97    0.85
  -1  -5   7    6.80    0.70
   5  -1   7    6.34    0.94
   1   5   8   15.70    1.58
  -1  -5   8   15.35    1.23
   5  -1   8   15.82    1.41
  -1  -5   8   14.48    1.12
  -1  -5   9   33.44    1.80
  -1  -5   9   31.33    1.76
   5  -1   9   33.34    2.06
   1   5   9   32.03    2.37
  -1  -5  10  112.95    3.64
  -1  -5  10  114.15    3.84
   5  -1  10  110.66    4.09
   1   5  10  106.81    4.67
   5  -1  11   12.81    1.36
  -1  -5  11   10.05    1.15
   1   5  11    9.70    1.58
   5  -1  12   11.03    1.36
   1   5  12    8.72    1.46
  -1  -5  12   10.35    1.29
   1   5  13   12.68    1.86
   5  -1  13    8.85    1.24
   5  -1  13   10.26    1.59
   5  -1  14   19.58    2.20
   1   5  14   22.13    2.42
   0   5  -5  299.71    6.53
   5   0  -5  296.60    6.60
   5   0  -4   35.11    0.94
   0   5  -4   35.15    1.65
   0   5  -3  330.98    6.91
   5   0  -3  324.99    5.95
   0  -5  -3  333.31    7.04
   0   5  -2   74.26    2.44
   0  -5  -2   70.59    2.30
   0   5  -1  188.01    4.52
   0  -5  -1  195.00    4.29
   0  -5   0    1.56    0.55
   0   5   0    1.08    0.50
   0   5   1  202.01    4.65
   0  -5   1  181.90    4.58
   0  -5   2   73.70    2.44
   0   5   2   72.55    2.44
   0  -5   3  314.92    6.76
   0   5   3  318.88    6.77
   0  -5   4   34.32    1.62
   0  -5   5  287.55    6.31
   0   5   5  270.09    6.74
   5   0   6    1.54    0.64
   0  -5   6    1.31    0.54
   0   5   6    2.62    0.78
   0   5   7   19.34    1.68
   0  -5   7   18.42    1.32
   5   0   7   20.37    1.54
   5   0   8    4.10    0.84
   0   5   8    4.87    1.09
   0  -5   8    4.42    0.75
   0  -5   9   20.63    1.46
   5   0   9   15.37    1.44
   0   5   9   16.27    1.75
   0  -5   9   18.32    1.42
   5   0  10    8.31    1.11
   0   5  10   11.11    1.59
   0  -5  10    9.84    1.09
   0  -5  10    9.28    1.05
   5   0  11    5.20    0.91
   0   5  11    5.95    1.28
   0  -5  11    4.85    0.83
   0  -5  11    4.27    0.83
   0  -5  12    2.45    0.78
   5   0  12    2.80    0.93
   5   0  12    2.05    0.67
   0  -5  13    1.77    0.76
   5   0  13    2.40    0.83
   5   0  13    0.71    0.78
   5   0  14    9.46    1.60
   5   1  -5  135.97    3.63
  -1   5  -4   14.68    1.07
   1  -5  -3   65.64    2.35
  -1   5  -3   60.21    2.24
  -1   5  -2  169.89    4.23
   1  -5  -1  132.83    3.62
  -1   5  -1  143.99    3.66
   1  -5   0   52.48    2.03
  -1   5   0   56.58    2.01
  -1   5   1  133.24    3.51
   1  -5   1  135.29    3.61
   1  -5   2  161.58    4.13
  -1   5   2  162.75    4.03
  -1   5   3   59.38    2.15
   1  -5   3   64.38    2.31
  -1   5   4   14.64    1.03
   1  -5   4   13.27    1.09
  -1   5   5  131.06    3.59
   1  -5   5  139.62    3.89
  -1   5   6    4.96    0.64
   1  -5   6    5.58    0.84
   1  -5   7    4.10    0.76
   5   1   8   21.78    1.66
   1  -5   8   24.08    1.60
   1  -5   9   83.72    3.16
   5   1   9   78.66    3.31
   5   1  10    7.76    1.13
   1  -5  10    8.54    1.10
   5   1  11    3.16    0.83
   1  -5  11    3.70    0.81
   1  -5  11    1.71    0.62
   5   1  12    1.17    0.58
   5   1  12   -0.24    0.76
   1  -5  12    0.91    0.65
   5   1  13   29.74    2.18
   1  -5  13   29.14    2.26
   5   1  13   28.95    2.63
   5   1  14    2.04    0.80
   5   2  -6    5.27    0.64
   5   2  -6    4.42    0.31
   5   2  -5   84.80    2.52
   5   2  -5   82.54    1.98
   5   2  -4  173.84    3.68
  -2   5  -2   12.85    1.01
   2  -5  -2   12.09    0.94
  -2   5  -1    4.07    0.62
   2  -5  -1    3.49    0.56
   2  -5   0   13.06    0.99
  -2   5   0   14.11    0.99
  -2   5   1    5.39    0.67
   2  -5   1    4.62    0.68
  -2   5   2   11.70    0.86
   2  -5   2   12.88    1.05
  -2   5   3  105.36    2.93
   2  -5   3  100.81    3.15
  -2   5   4  186.16    4.37
   2  -5   4  183.23    4.78
   2  -5   5   82.36    2.91
  -2   5   5   83.08    2.58
  -2   5   6    4.51    0.59
   2  -5   6    5.56    0.84
   2  -5   7    9.13    1.06
  -2   5   7   12.01    0.94
   2  -5   8   13.07    1.28
  -2   5   8   13.97    1.01
   2  -5   9   50.46    2.47
   2  -5  10    8.01    1.10
   5   2  10    5.25    0.87
   5   2  11    1.55    0.74
   2  -5  11    1.27    0.63
   5   2  11   -0.62    0.77
   2  -5  12    1.21    0.62
   5   2  12   -1.39    0.96
   5   2  12   -0.31    0.59
   2  -5  12    0.35    0.59
   2  -5  13    5.52    1.09
   5   2  13    6.78    1.42
   5   2  13    6.58    1.09
   2  -5  14    5.15    1.12
   5   2  14    6.52    1.38
   5   3  -8   91.96    2.08
   5   3  -7    4.97    0.43
   5   3  -6   68.66    1.91
   5   3  -6   73.11    2.30
   5   3  -5  193.88    4.15
   5   3  -5  198.23    4.33
   5   3  -4   84.41    2.23
   5   3  -4   82.09    2.34
   3  -5  -3    3.33    0.54
   3  -5  -2  191.31    4.58
   3  -5  -1  257.49    5.83
  -3   5  -1  273.81    5.99
  -3   5   0    7.87    0.80
   3  -5   0    6.80    0.78
   3  -5   1  258.27    6.00
  -3   5   1  273.85    5.82
  -3   5   2  192.88    4.46
   3  -5   2  182.93    4.73
  -3   5   3    4.54    0.56
   3  -5   3    2.94    0.62
  -3   5   4   86.90    2.55
   3  -5   4   84.65    3.00
   3  -5   5  203.46    5.37
  -3   5   5  206.75    4.65
  -3   5   6   75.09    2.31
   3  -5   6   74.97    2.93
   3  -5   7    4.35    0.79
  -3   5   7    5.04    0.59
  -3   5   8   96.31    2.70
   3  -5   8   87.87    3.49
   3  -5   9   29.42    1.98
   3  -5  10   11.16    1.29
   5   3  10   10.82    1.46
   3  -5  11    9.81    1.20
   5   3  11    7.55    1.30
   3  -5  12    2.96    0.84
   5   3  12    0.46    0.76
   5   3  12    1.28    0.56
   5   3  13    6.27    1.09
   3  -5  13    4.45    1.04
   5   3  13    5.02    1.34
   5   4  -8   27.13    1.16
   5   4  -7    8.59    0.66
   5   4  -6    6.69    0.64
   5   4  -5  121.06    3.21
   5   4  -5  128.28    2.90
   5   4  -4   72.15    2.37
   4  -5  -4   73.47    2.40
   5   4  -4   74.79    1.83
   4  -5  -3   77.76    2.53
   4  -5  -2  202.27    4.81
   4  -5  -1   10.70    0.96
   4  -5   0    3.92    0.66
  -4   5   0    3.66    0.54
   4  -5   1   13.83    1.14
  -4   5   1   12.28    0.94
   4  -5   2  210.05    5.29
  -4   5   2  213.61    4.87
  -4   5   3   79.83    2.46
   4  -5   3   83.69    2.98
  -4   5   4   72.56    2.28
   4  -5   4   74.02    2.85
   4  -5   5  122.60    4.00
  -4   5   5  127.34    3.23
  -4   5   6    6.38    0.63
   4  -5   6    5.07    0.88
  -4   5   7    7.43    0.64
   4  -5   7    5.28    1.00
   4  -5   8   29.37    1.95
  -4   5   8   29.92    1.24
   5   4   9   23.07    2.09
   4  -5   9   26.67    1.95
   5   4  10    1.39    0.80
   4  -5  10    2.75    0.80
   4  -5  11    9.15    1.26
   5   4  11    9.22    1.55
   4  -5  12    7.72    1.19
   5   4  12    7.28    1.39
   5   4  13   23.71    1.97
   5   4  13   21.85    2.44
   5   5  -8    1.32    0.41
   5   5  -7   69.73    2.32
   5   5  -6  383.25    7.80
   5   5  -5   10.57    0.89
   5  -5  -5    9.92    0.82
   5   5  -4   10.53    0.93
   5  -5  -4   11.00    0.88
   5  -5  -3  154.75    3.98
   5   5  -3  152.42    4.09
   5  -5  -2  576.42   11.06
   5  -5  -1    2.62    0.60
   5  -5   0    0.56    0.55
   5  -5   1    1.94    0.58
  -5   5   1    1.85    0.50
   5  -5   2  614.63   12.05
  -5   5   2  598.74   11.37
   5  -5   3  160.91    4.60
  -5   5   3  161.81    3.97
   5  -5   4    9.19    1.08
  -5   5   4    9.36    0.77
  -5   5   5    9.86    0.77
   5  -5   5   11.65    1.29
  -5   5   6  367.26    7.12
   5  -5   6  362.30    8.61
   5   5   7   71.04    3.34
  -5   5   7   71.99    2.06
   5  -5   7   69.17    3.12
   5   5   8    0.03    0.87
   5  -5   8    0.74    0.64
   5  -5   9    2.73    0.85
   5   5   9    2.38    0.82
   5  -5  10   70.69    3.38
   5   5  10   67.79    3.77
   5  -5  11   13.37    1.57
   5   5  11   13.96    1.85
   5   5  12   13.48    1.91
   5  -5  12   15.59    1.65
   5  -5  13   14.03    1.67
   5   5  13   12.66    1.88
   5   6  -7    0.14    0.38
   6  -5  -5   32.14    1.51
   6  -5  -4    2.87    0.59
   6  -5  -3    1.49    0.46
   6  -5  -2  109.92    3.33
   6  -5  -1    4.47    0.75
   5   6  -1    4.81    0.40
   6  -5   0    2.20    0.64
   6  -5   1    4.30    0.77
   6  -5   2  114.25    3.73
  -6   5   3    1.61    0.43
   6  -5   3    0.79    0.64
  -6   5   4    3.08    0.50
   5   6   4    2.73    0.62
   6  -5   4    2.34    0.70
   5   6   5   27.97    1.89
   6  -5   5   28.34    1.94
  -6   5   5   30.03    1.33
   5   6   6  111.69    4.17
  -6   5   6  115.28    2.91
   6  -5   6  115.46    4.18
   6  -5   7    1.52    0.82
  -6   5   7    0.47    0.24
   5   6   7    0.80    0.64
   5   6   8  105.75    4.44
   6  -5   8  103.02    4.13
   5   6   9    4.52    1.07
   6  -5   9    4.50    1.01
   6  -5  10   14.98    1.58
   5   6  10   16.36    1.92
   5   6  11    4.93    1.20
   6  -5  11    3.48    1.00
   6  -5  12   17.85    1.88
   5   6  12   18.66    2.20
   5   6  13    0.85    0.93
   6  -5  13    2.04    0.83
   6  -4  -5   35.35    1.44
   6  -4  -4   44.99    1.71
   6  -4  -3    9.29    0.82
   6  -4  -2   51.38    1.97
   4   6  -1  175.56    3.42
   6  -4  -1  176.03    4.46
   6  -4   0  172.53    4.44
   4   6   0  164.06    3.60
   4   6   1  178.51    4.19
  -6   4   1  183.75    4.48
   6  -4   1  184.71    4.80
  -6   4   2   53.33    1.97
   4   6   2   54.26    2.08
   6  -4   2   53.89    2.33
   6  -4   3    9.93    1.09
  -6   4   3    9.33    0.76
   4   6   3   10.10    0.95
   6  -4   4   46.27    2.36
  -6   4   4   46.98    1.63
   4   6   4   41.14    2.13
   6  -4   5   35.79    2.11
   4   6   5   36.87    2.09
  -6   4   5   35.48    1.32
   6  -4   6   18.46    1.54
  -6   4   6   17.87    0.84
   4   6   6   18.00    1.56
  -6   4   7  244.57    4.57
   4   6   7  249.32    7.01
   6  -4   7  240.97    6.67
   6  -4   8   53.76    2.79
   4   6   8   53.38    3.02
   6  -4   9    1.12    0.70
   4   6   9    1.71    0.91
   6  -4  10    0.53    0.66
   4   6  10    1.03    0.75
   4   6  11   11.86    1.69
   6  -4  11   13.36    1.60
   6  -4  12   15.94    1.76
   4   6  12   16.57    2.08
   4   6  13    1.93    1.03
   6  -4  13    4.59    1.15
   6  -3  -5    9.52    0.63
   6  -3  -4   60.35    1.87
   6  -3  -3    4.99    0.53
   6  -3  -2  138.65    3.52
   6  -3  -1  103.08    2.98
  -6   3   0    7.25    0.76
   3   6   0    6.95    0.56
   6  -3   0    6.89    0.77
  -6   3   1  103.86    2.96
   6  -3   1  108.63    3.26
   3   6   1  101.05    2.77
   6  -3   2  149.51    4.16
  -6   3   2  149.95    3.62
   3   6   2  141.22    3.78
   3   6   3    4.20    0.68
   6  -3   3    5.03    0.85
  -6   3   3    4.69    0.50
   3   6   4   59.92    2.54
  -6   3   4   64.80    1.88
   6  -3   4   66.73    2.73
   6  -3   5    7.37    1.00
  -6   3   5    8.12    0.53
   3   6   5    8.10    1.02
  -3  -6   6    4.19    0.71
   3   6   6    5.13    0.91
   6  -3   6    5.11    0.98
  -3  -6   7   -0.01    0.43
   6  -3   7   -0.66    0.69
   3   6   7   -0.09    0.64
   6  -3   8    8.89    1.24
   3   6   8    9.25    1.37
  -3  -6   8    8.24    0.93
  -3  -6   9   11.34    1.03
   6  -3   9   13.40    1.48
   3   6   9    9.20    1.39
   6  -3  10    8.66    1.20
   3   6  10   11.08    1.55
   6  -3  11    6.67    1.10
   3   6  11    5.83    1.31
   6  -3  12    0.94    0.59
   3   6  12    2.91    0.94
   6  -3  13    1.04    0.67
   3   6  13    0.42    0.94
   6  -2  -5   11.72    0.57
   6  -2  -4  686.46   11.89
   6  -2  -3   43.45    1.49
   6  -2  -2    2.76    0.49
   2   6  -2    2.87    0.59
   2   6  -1   19.15    1.28
   6  -2  -1   15.10    0.99
  -2  -6  -1   15.26    0.92
   6  -2   0  306.51    6.45
  -2  -6   0  299.84    5.80
   6  -2   1   16.00    1.14
  -2  -6   1   17.23    0.69
  -2  -6   2    2.56    0.21
   6  -2   2    3.17    0.60
   2   6   2    3.18    0.57
   6  -2   3   40.45    2.00
   2   6   3   42.58    1.90
  -2  -6   3   42.28    1.94
  -2  -6   4  693.65   13.20
   6  -2   4  706.53   13.48
   2   6   4  668.02   13.32
   6  -2   5   12.68    1.25
  -2  -6   5   12.98    0.65
   2   6   5   11.17    1.15
  -2  -6   5   15.99    1.20
  -2  -6   6    1.16    0.59
   6  -2   6    1.33    0.63
  -2  -6   6    1.30    0.28
   2   6   6    1.21    0.65
   6  -2   7   12.68    1.37
  -2  -6   7   12.43    0.86
   2   6   7   11.33    1.39
  -2  -6   7   12.33    1.10
   6  -2   8  123.37    4.35
  -2  -6   8  131.63    3.55
   2   6   8  123.11    4.71
  -2  -6   8  129.36    3.95
   6  -2   9   15.00    1.51
  -2  -6   9   13.83    1.13
   2   6   9   13.82    1.69
  -2  -6   9   15.03    1.27
   6  -2  10   33.51    2.28
  -2  -6  10   39.40    2.00
   2   6  10   37.71    2.75
  -2  -6  10   39.02    2.06
   6  -2  11    5.18    1.07
   2   6  11    4.74    1.22
   6  -2  12   45.78    2.78
   2   6  12   46.27    3.30
   6  -2  13    1.36    0.68
   2   6  13    1.04    1.01
   6  -1  -5   55.87    1.26
   6  -1  -4   29.44    1.02
   6  -1  -3    6.23    0.52
  -1  -6  -2    6.39    0.67
   6  -1  -2    5.70    0.56
   1   6  -2    6.28    0.74
   1   6  -1   25.45    1.46
  -1  -6  -1   27.34    1.24
   6  -1  -1   25.51    1.25
   1   6   0    0.10    0.34
   6  -1   0    0.31    0.44
  -1  -6   0    0.47    0.24
   6  -1   1   25.64    1.42
  -1  -6   1   25.66    1.52
   1   6   1   26.64    1.53
   6  -1   2    7.69    0.87
  -1  -6   2    7.38    0.85
  -1  -6   3    7.97    0.89
   6  -1   3    6.01    0.86
   6  -1   4   27.69    1.70
   1   6   4   26.68    1.64
  -1  -6   4   34.52    1.75
  -1  -6   5   61.82    2.46
   6  -1   5   58.70    2.62
   1   6   5   54.45    2.56
   1   6   6  209.76    6.01
  -1  -6   6  225.93    5.54
   6  -1   6  215.56    5.86
  -1  -6   7    9.55    1.05
   1   6   7    6.24    1.11
   6  -1   7    9.11    1.17
  -1  -6   8   53.70    2.37
  -1  -6   8   53.86    2.16
   1   6   8   52.14    2.95
   6  -1   8   50.00    2.61
   6  -1   9   11.80    1.34
  -1  -6   9   12.81    1.12
  -1  -6   9   13.10    1.22
   1   6   9   14.77    1.74
   1   6  10   26.93    2.31
  -1  -6  10   24.75    1.63
   6  -1  10   24.82    1.93
  -1  -6  10   24.85    1.64
  -1  -6  11   10.79    1.17
   1   6  11   12.56    1.68
   6  -1  11   13.20    1.48
   6  -1  12    7.40    1.18
   1   6  12    6.68    1.42
   6  -1  13    3.52    0.97
   6   0  -5   60.08    1.30
   6   0  -4   12.22    0.61
   6   0  -3  643.99   11.29
   0  -6  -2   57.54    2.12
   0   6  -1   26.42    1.46
   0  -6  -1   28.55    1.33
   0  -6   0    0.38    0.53
   0   6   0    0.78    0.42
   0  -6   1   25.93    1.53
   0   6   1   29.40    1.56
   0   6   2   55.66    2.24
   0  -6   2   53.60    2.24
   0  -6   3  615.04   11.96
   0  -6   4   11.21    1.03
   0  -6   5   62.94    2.50
   6   0   6    2.64    0.78
   0  -6   6    3.21    0.68
   0  -6   7   24.50    1.61
   6   0   7   25.38    1.76
   0  -6   8   25.52    1.70
   6   0   8   25.46    1.86
   0  -6   9    3.83    0.85
   6   0   9    4.79    1.01
   0  -6  10    3.77    0.81
   0  -6  10    3.22    0.70
   6   0  10    3.89    0.89
   0  -6  11   45.76    2.49
   0  -6  11   45.23    2.38
   6   0  11   47.25    2.73
   6   0  12    1.80    0.77
   0  -6  12    4.18    0.86
   6   0  13    0.94    0.67
   6   0  13    0.65    0.63
   6   1  -5   47.68    1.28
   1  -6  -1   10.01    0.97
   1  -6   0    1.45    0.58
  -1   6   0    1.52    0.49
   1  -6   1   11.77    1.04
  -1   6   1   11.20    0.96
   1  -6   2  158.48    4.36
  -1   6   2  169.00    4.30
   1  -6   3   84.01    2.92
  -1   6   3   88.91    2.88
   1  -6   4   17.34    1.27
  -1   6   4   16.42    1.19
   1  -6   5   50.67    2.27
   1  -6   6    7.12    0.93
   1  -6   7   10.15    1.12
   6   1   8   10.99    1.35
   1  -6   8   13.80    1.31
   6   1   9    4.59    1.00
   1  -6   9    5.76    0.94
   6   1  10   38.13    2.42
   1  -6  10   39.84    2.27
   1  -6  11    0.76    0.52
   1  -6  11    0.99    0.52
   6   1  11    0.64    0.65
   6   1  12   32.16    2.27
   1  -6  12   33.05    2.25
   6   1  13    5.18    1.07
   6   1  13    3.77    1.10
   6   2  -6   52.36    1.36
   6   2  -6   53.21    2.10
   6   2  -5   20.02    1.16
   6   2  -5   20.16    0.89
   2  -6  -2    2.66    0.62
   2  -6  -1  137.33    3.89
   2  -6   0   18.22    1.27
  -2   6   1  143.28    3.89
   2  -6   1  140.67    4.01
   2  -6   2    3.32    0.72
  -2   6   2    2.88    0.53
  -2   6   3   34.18    1.62
   2  -6   3   32.23    1.77
  -2   6   4  414.69    8.44
   2  -6   4  409.74    8.87
   2  -6   5   19.97    1.48
  -2   6   5   21.14    1.28
   2  -6   6   52.05    2.46
  -2   6   6   57.13    2.22
   2  -6   7   66.31    2.84
   2  -6   8   25.23    1.79
   2  -6   9    0.89    0.59
   6   2  10   11.57    1.40
   2  -6  10   13.13    1.36
   2  -6  11    5.90    1.01
   6   2  11    6.52    1.08
   2  -6  12    1.55    0.70
   6   2  12    0.60    0.65
   6   2  12    0.83    0.56
   2  -6  12    3.35    0.87
   6   2  13    3.26    0.87
   6   2  13    4.05    1.14
   2  -6  13    4.07    0.95
   6   3  -8    8.49    0.42
   6   3  -7   86.88    2.78
   6   3  -7   79.67    1.99
   6   3  -6   25.59    1.06
   6   3  -6   25.42    1.31
   6   3  -5   30.20    1.33
   6   3  -5   27.40    1.23
   3  -6  -3   29.09    1.58
   3  -6  -2    2.72    0.63
   3  -6  -1  229.90    5.53
   3  -6   0    4.42    0.78
   3  -6   1  263.18    6.21
  -3   6   2    3.84    0.61
   3  -6   2    3.25    0.70
   3  -6   3   31.89    1.81
  -3   6   3   33.64    1.58
   3  -6   4    4.32    0.85
  -3   6   4    4.64    0.63
  -3   6   5   28.02    1.45
   3  -6   5   27.07    1.77
  -3   6   6   26.99    1.40
   3  -6   6   25.01    1.75
  -3   6   7   80.50    2.61
   3  -6   7   77.77    3.25
   3  -6   8   14.45    1.43
  -3   6   8   14.55    1.03
   3  -6   9  139.97    4.73
   3  -6  10    4.54    0.95
   6   3  11   19.43    1.79
   6   3  11   18.87    2.04
   3  -6  11   20.87    1.77
   6   3  12    0.11    0.58
   6   3  12   -0.75    0.98
   3  -6  12   -0.16    0.57
   6   3  13   13.21    1.57
   6   3  13   13.82    1.91
   3  -6  13   14.73    1.71
   6   4  -7  160.35    3.69
   6   4  -6    2.26    0.43
   6   4  -6    2.40    0.41
   6   4  -5    2.68    0.46
   6   4  -5    2.01    0.34
   6   4  -4   26.86    1.37
   4  -6  -4   25.19    1.43
   4  -6  -3   90.44    2.99
   4  -6  -2   53.47    2.22
   4  -6  -1   80.45    2.84
   4  -6   0  513.50   10.39
   4  -6   1   85.07    3.04
   4  -6   2   62.36    2.60
  -4   6   3   94.72    2.92
   4  -6   3   92.54    3.31
  -4   6   4   31.58    1.51
   4  -6   4   27.77    1.81
   4  -6   5    2.21    0.83
  -4   6   5    2.17    0.45
   4  -6   6    2.00    0.73
  -4   6   6    2.49    0.50
  -4   6   7  175.27    4.26
   4  -6   7  172.03    5.32
   4  -6   8   24.60    1.89
   4  -6   9    6.64    1.11
   6   4  10   13.48    1.74
   4  -6  10   18.62    1.73
   4  -6  11   38.63    2.52
   6   4  11   34.35    2.77
   4  -6  12   42.05    2.69
   6   4  12   39.83    3.15
   6   4  13    2.47    0.82
   6   4  13    2.74    1.06
   6   5  -7    0.32    0.32
   6   5  -6   15.90    1.07
   6   5  -5   10.94    0.93
   6   5  -4   27.44    0.89
   6   5  -4   25.86    1.47
   5  -6  -4   25.86    1.50
   5  -6  -3   17.66    1.23
   5  -6  -2   17.97    1.32
   5  -6  -1   21.79    1.47
   5  -6   0    0.02    0.47
   5  -6   1   22.04    1.50
   5  -6   2   18.62    1.45
   5  -6   3   18.68    1.51
   5  -6   4   25.82    1.81
  -5   6   4   24.67    1.34
   5  -6   5   11.16    1.31
  -5   6   5   12.01    0.91
  -5   6   6   16.71    1.04
   5  -6   6   17.25    1.59
  -5   6   7    0.40    0.35
   5  -6   7    0.25    0.74
   6   5   8   -0.22    0.81
   5  -6   8    0.87    0.76
   5  -6   9   18.12    1.74
   6   5   9   18.97    1.92
   5  -6  10    4.95    1.05
   6   5  10    7.35    1.31
   5  -6  11    1.60    0.73
   6   5  11    1.23    0.80
   6   5  12    7.22    1.40
   5  -6  12    8.64    1.32
   5  -6  13    6.09    1.25
   6   5  13    5.85    1.29
   6   6  -7   25.84    1.49
   6  -6  -5    3.50    0.64
   6  -6  -4    9.28    0.97
   6  -6  -3  173.55    4.60
   6  -6  -2   51.39    2.30
   6  -6  -1    3.47    0.72
   6  -6   0  175.58    4.91
   6  -6   1    4.58    0.92
   6  -6   2   56.65    2.63
   6  -6   3  168.54    5.07
   6  -6   4    9.46    1.22
   6  -6   5    6.31    1.15
  -6   6   5    5.34    0.64
  -6   6   6    7.44    0.72
   6  -6   6    6.94    1.16
   6   6   7   27.01    2.11
   6  -6   7   24.23    2.01
   6   6   8   57.49    3.22
   6  -6   8   59.37    3.10
   6  -6   9    1.84    0.80
   6   6   9    2.24    0.85
   6  -6  10    5.49    1.11
   6   6  10    3.22    1.07
   6   6  11   52.92    3.52
   6  -6  11   50.70    3.11
   6  -6  12   -0.22    0.67
   6   6  12   -0.35    0.98
   7  -6  -6    2.41    0.55
   7  -6  -5   11.00    1.01
   7  -6  -4   35.89    1.80
   7  -6  -3   94.50    3.22
   6   7  -2    0.88    0.16
   7  -6  -2   -0.10    0.49
   7  -6  -1  247.06    6.17
   6   7  -1  241.24    4.80
   7  -6   0    0.93    0.71
   6   7   0    0.51    0.31
   7  -6   1  251.52    6.49
   6   7   1  245.65    5.57
   7  -6   2    1.56    0.65
   6   7   2    0.87    0.46
   6   7   3   83.23    3.07
   7  -6   3   84.08    3.44
   7  -6   4   30.26    2.10
   6   7   4   30.52    1.91
   7  -6   5   10.47    1.40
   6   7   5    9.99    1.18
   7  -6   6    3.62    0.99
   6   7   6    4.88    0.99
  -7   6   6    3.47    0.53
   6   7   7   43.33    2.68
   7  -6   7   42.65    2.68
   7  -6   8    9.38    1.32
   6   7   8   11.19    1.50
   7  -6   9   18.23    1.85
   6   7   9   15.06    1.78
   7  -6  10    5.89    1.23
   6   7  10    5.54    1.29
   7  -6  11    2.27    0.92
   6   7  11    3.26    1.15
   6   7  12    2.36    0.95
   7  -6  12    3.81    1.11
   7  -5  -6    7.76    0.73
   7  -5  -5    9.98    0.89
   7  -5  -4    0.34    0.40
   7  -5  -3   38.82    1.83
   7  -5  -2   39.37    1.91
   5   7  -1  123.22    2.71
   7  -5  -1  130.12    3.85
   5   7   0  113.52    2.88
   7  -5   0  117.74    3.75
   5   7   1  122.51    3.30
   7  -5   1  122.34    3.97
   5   7   2   40.85    1.84
   7  -5   2   41.85    2.20
   5   7   3   31.74    1.77
   7  -5   3   36.57    2.14
  -7   5   4   -0.13    0.30
   5   7   4    0.26    0.53
   7  -5   4    0.15    0.73
   5   7   5   10.11    1.19
   7  -5   5    7.32    1.13
  -7   5   5   10.42    0.81
   7  -5   6   10.21    1.37
   5   7   6    7.65    1.15
  -7   5   6   10.15    0.74
   5   7   7   85.11    3.82
   7  -5   7   85.02    3.69
   5   7   8   12.59    1.52
   7  -5   8   14.42    1.60
   5   7   9    9.17    1.44
   7  -5   9    7.86    1.23
   7  -5  10    2.30    0.85
   5   7  10    2.95    1.03
   7  -5  11    1.85    0.81
   5   7  11    1.28    0.86
   5   7  12    2.69    1.20
   7  -5  12    3.08    1.05
   7  -4  -6   96.59    2.54
   7  -4  -5   41.71    1.61
   7  -4  -4    0.85    0.39
   7  -4  -3   93.69    2.88
   7  -4  -2    8.72    0.88
   7  -4  -1  171.69    4.54
   7  -4   0   -0.18    0.54
   4   7   0    0.65    0.33
   7  -4   1  168.94    4.63
   4   7   1  162.25    3.98
   7  -4   2    9.35    1.10
   4   7   2   10.35    0.91
  -7   4   2    9.90    0.86
   7  -4   3   90.66    3.38
   4   7   3   86.36    3.04
  -7   4   3   91.62    2.73
  -7   4   4    1.33    0.36
   7  -4   4    1.22    0.62
   4   7   4    0.23    0.51
  -7   4   5   42.81    1.56
   7  -4   5   42.73    2.37
   4   7   5   42.99    2.31
   7  -4   6   96.76    3.85
  -7   4   6  101.92    2.48
   4   7   6   95.51    3.86
   7  -4   7   38.37    2.39
   4   7   7   35.65    2.40
   7  -4   8    3.69    0.99
   4   7   8    3.43    1.02
   4   7   9   15.94    1.78
   7  -4   9   15.09    1.60
   7  -4  10   19.38    1.84
   4   7  10   19.14    2.07
   4   7  11    3.97    1.23
   7  -4  11    5.10    1.10
   7  -4  12    5.37    1.22
   4   7  12    5.33    1.38
   4   7  13    4.01    1.33
   7  -4  13    3.62    1.06
   7  -3  -6    0.83    0.22
   7  -3  -5   66.93    1.98
   7  -3  -4    2.40    0.45
   7  -3  -3    3.61    0.52
   7  -3  -2   13.82    1.01
   7  -3  -1  127.32    3.57
   7  -3   0   40.17    1.87
   7  -3   1  138.29    3.94
  -7   3   1  131.57    3.62
   3   7   1  126.17    3.35
   7  -3   2   13.63    1.20
   3   7   2   11.66    0.97
   7  -3   3    3.48    0.72
   3   7   3    3.72    0.67
   3   7   4    2.38    0.70
   7  -3   4    2.87    0.79
   7  -3   5   63.47    2.85
   3   7   5   63.54    2.87
   3   7   6   -0.11    0.62
   7  -3   6    0.06    0.69
  -3  -7   6    0.50    0.54
  -3  -7   7    5.79    0.81
   7  -3   7    6.72    1.13
   3   7   7    5.48    1.09
   7  -3   8   48.77    2.72
   3   7   8   48.32    2.91
  -3  -7   8   52.69    2.41
   7  -3   9   64.81    3.24
   3   7   9   62.48    3.47
  -3  -7   9   65.32    2.73
   7  -3  10   14.07    1.57
   3   7  10   17.66    1.91
  -3  -7  10   14.84    1.26
   7  -3  11    4.20    1.01
   3   7  11    3.13    1.06
   7  -3  12    3.82    1.05
   3   7  12    2.77    1.11
   3   7  13   20.20    2.37
   7  -3  13   21.11    2.08
   7  -2  -5   15.91    0.77
   7  -2  -4   75.84    2.17
   7  -2  -3    3.15    0.49
   7  -2  -2    3.11    0.50
  -2  -7  -1    6.26    0.63
   7  -2  -1    6.13    0.73
  -2  -7   0   -0.13    0.23
   7  -2   0    0.43    0.48
  -2  -7   1    7.10    0.50
   7  -2   1    6.86    0.81
  -2  -7   2    4.44    0.33
   7  -2   2    3.80    0.74
  -2  -7   3    1.65    0.56
   2   7   3    2.79    0.68
   7  -2   3    3.12    0.77
   7  -2   4   69.08    2.94
  -2  -7   4   75.97    2.89
   2   7   4   71.46    2.87
   2   7   5   17.49    1.52
   7  -2   5   17.39    1.45
  -2  -7   5   18.53    1.42
  -2  -7   6    8.05    1.02
   7  -2   6    6.20    1.09
  -2  -7   6    7.31    0.54
   2   7   6    5.54    1.07
  -2  -7   7    3.80    0.86
   7  -2   7    4.60    0.97
   2   7   7    3.21    0.94
  -2  -7   7    3.66    0.48
   7  -2   8    5.68    1.12
  -2  -7   8    6.57    0.93
  -2  -7   8    5.11    0.64
   2   7   8    4.67    1.11
  -2  -7   9   14.13    1.08
   2   7   9   16.66    1.85
  -2  -7   9   15.67    1.38
   7  -2   9   13.07    1.48
  -2  -7  10    7.33    1.00
   7  -2  10    6.89    1.13
   2   7  10    6.91    1.31
   7  -2  11    7.15    1.18
   2   7  11    6.13    1.30
   7  -2  12    3.63    1.05
   2   7  12    3.30    1.21
   7  -2  13    1.50    0.85
   2   7  13    3.30    1.30
   7  -1  -5   12.58    0.61
   7  -1  -4    1.58    0.33
   7  -1  -3    4.71    0.53
  -1  -7  -2  546.32   10.34
   7  -1  -2  515.18    9.91
   7  -1  -1  182.20    4.41
  -1  -7  -1  182.85    4.36
   7  -1   0   74.25    2.53
  -1  -7   0   73.52    2.19
   7  -1   1  193.31    4.83
  -1  -7   1  181.93    5.00
   7  -1   2  525.49   10.48
  -1  -7   2  500.93   10.55
   7  -1   3    5.20    0.88
  -1  -7   3    7.16    0.96
  -1  -7   4    1.29    0.62
   7  -1   4    0.98    0.69
  -1  -7   5   10.99    1.17
   7  -1   5   13.51    1.34
   7  -1   6    5.02    1.02
  -1  -7   6    5.01    0.84
   1   7   6    6.07    1.11
   1   7   7   79.71    3.62
   7  -1   7   83.99    3.49
  -1  -7   7   82.21    3.19
  -1  -7   8    5.31    0.70
  -1  -7   8    4.68    0.86
   7  -1   8    6.12    1.12
   1   7   8    6.25    1.26
  -1  -7   9   10.69    1.17
   7  -1   9    8.91    1.23
  -1  -7   9   10.21    0.96
   1   7   9   12.10    1.60
   7  -1  10   -0.18    0.65
  -1  -7  10    1.29    0.60
  -1  -7  10    1.17    0.51
   1   7  10    0.10    0.86
   7  -1  11   17.38    1.76
   7  -1  12    2.37    0.86
   7  -1  13   12.24    1.62
   7   0  -5   69.65    1.71
   7   0  -4  122.71    2.88
   7   0  -3    5.60    0.59
   0  -7  -1  150.01    3.87
   0  -7   0    0.43    0.55
   0  -7   1  133.61    4.09
   0  -7   2  368.42    8.23
   0  -7   3    6.61    0.96
   0  -7   4  127.90    3.98
   7   0   5   64.70    2.88
   0  -7   5   68.66    2.80
   7   0   6   18.82    1.58
   0  -7   6   19.16    1.53
   7   0   7    0.92    0.71
   0  -7   7    1.73    0.71
   7   0   8   13.01    1.43
   0  -7   8   12.08    1.28
   0  -7   9   29.38    1.93
   7   0   9   26.62    2.04
   0  -7  10   19.02    1.56
   0  -7  10   20.61    1.52
   7   0  10   19.19    1.78
   7   0  11   -0.79    0.74
   0  -7  11   -0.93    0.59
   0  -7  11   -0.21    0.54
   7   0  12    8.88    1.39
   7   0  13    1.42    0.73
   7   1  -6  315.93    5.46
   7   1  -6  316.63    5.43
   1  -7  -1   82.68    3.01
   1  -7   0    7.06    1.00
   1  -7   1   90.04    3.19
   1  -7   2  577.86   11.65
   1  -7   3  197.36    5.30
   1  -7   4   17.42    1.40
   1  -7   5   10.15    1.13
   1  -7   6  347.62    8.12
   1  -7   7   16.47    1.44
   7   1   8    0.62    0.67
   1  -7   8    2.33    0.81
   1  -7   9    3.21    0.77
   7   1   9    1.90    0.87
   1  -7  10   92.15    3.67
   7   1  10   87.72    3.90
   1  -7  11   20.24    1.74
   7   1  11   21.49    1.94
   1  -7  11   23.10    1.79
   7   1  12    8.22    1.26
   7   1  13    1.92    0.85
   7   1  13   -0.59    0.96
   7   2  -6    5.65    0.45
   2  -7  -2   58.61    2.48
   2  -7  -1   74.60    2.86
   2  -7   0   -0.12    0.60
   2  -7   1   69.06    2.75
   2  -7   2   54.47    2.44
   2  -7   3   32.64    1.88
   2  -7   4    1.78    0.68
   2  -7   5    4.45    0.85
   2  -7   6    7.73    1.06
   2  -7   7   16.39    1.49
   2  -7   8   62.85    2.95
   2  -7   9   10.35    1.28
   2  -7  10   26.05    1.94
   7   2  10   23.41    1.95
   7   2  11    0.80    0.72
   2  -7  11    0.33    0.63
   2  -7  12   36.14    2.39
   7   2  12   34.48    2.52
   7   2  13    9.78    1.64
   7   2  13   12.33    1.61
   7   3  -7   59.89    1.66
   7   3  -6    6.42    0.55
   7   3  -6    6.99    0.73
   7   3  -5   13.68    0.89
   3  -7  -3   79.56    2.94
   3  -7  -2    5.95    0.93
   3  -7  -1    6.09    0.88
   3  -7   0   54.39    2.40
   3  -7   1    5.66    0.96
   3  -7   2    4.38    0.82
   3  -7   3   70.98    2.93
   3  -7   4   23.21    1.68
   3  -7   5   14.74    1.44
   3  -7   6    4.75    0.96
   3  -7   7   64.44    3.02
   3  -7   8   58.05    2.91
   3  -7   9   25.91    1.99
   3  -7  10   15.54    1.61
   3  -7  11   29.74    2.22
   7   3  11   28.77    2.23
   7   3  12    4.52    1.07
   7   3  12    3.30    1.11
   3  -7  12    4.76    1.06
   7   3  13   36.35    2.71
   7   3  13   36.66    3.13
   7   4  -7    0.54    0.36
   7   4  -7    1.26    0.34
   7   4  -6   42.98    1.66
   7   4  -6   40.25    1.64
   7   4  -5   62.75    2.00
   7   4  -5   61.04    2.21
   4  -7  -4    2.00    0.62
   4  -7  -3   55.49    2.43
   4  -7  -2    7.16    0.91
   4  -7  -1    1.78    0.65
   4  -7   0    0.29    0.62
   4  -7   1    2.11    0.76
   4  -7   2   10.29    1.18
   4  -7   3   49.93    2.48
   4  -7   4    2.63    0.77
   4  -7   5   61.87    2.91
   4  -7   6   41.20    2.39
   4  -7   7    0.10    0.70
   4  -7   8    2.97    0.94
   4  -7   9    7.85    1.16
   4  -7  10    5.25    1.08
   7   4  11    1.13    0.85
   4  -7  11    0.54    0.66
   7   4  12    6.62    1.28
   4  -7  12    6.12    1.19
   7   4  12    5.67    1.43
   7   4  13    0.20    0.72
   7   4  13    1.35    0.95
   7   5  -6   39.67    1.76
   7   5  -5    1.90    0.45
   7   5  -5    1.98    0.32
   5  -7  -4   17.35    1.31
   5  -7  -3    1.93    0.63
   5  -7  -2  144.44    4.29
   5  -7  -1    4.61    0.81
   5  -7   0  126.66    4.08
   5  -7   1    5.09    0.90
   5  -7   2  145.53    4.59
   5  -7   3    1.15    0.66
   5  -7   4   16.42    1.57
   5  -7   5    2.20    0.87
   5  -7   6   43.55    2.50
   5  -7   7   49.17    2.75
   5  -7   8    1.58    0.81
   5  -7   9   39.84    2.59
   5  -7  10    2.53    0.91
   7   5  10    1.40    0.91
   7   5  11    4.60    1.28
   5  -7  11    4.06    1.05
   5  -7  12    0.89    0.68
   7   5  12    0.46    0.92
   6  -7  -5   93.48    3.23
   7   6  -4  103.71    2.13
   6  -7  -4  116.44    3.68
   6  -7  -3  176.88    4.93
   6  -7  -2    4.44    0.83
   6  -7  -1    6.16    0.97
   6  -7   0    4.40    0.94
   6  -7   1    7.70    1.06
   6  -7   2    4.61    0.92
   6  -7   3  172.75    5.32
   6  -7   4  111.81    4.15
   6  -7   5   85.89    3.62
   6  -7   6   10.01    1.37
   6  -7   7   17.01    1.69
   7   6   8   36.33    2.62
   6  -7   8   39.58    2.63
   6  -7   9    9.69    1.39
   7   6   9    8.05    1.37
   6  -7  10    7.86    1.36
   7   6  10    7.48    1.45
   6  -7  11    8.45    1.44
   7   6  11    7.51    1.51
   6  -7  12    0.18    0.66
   7   6  12   -0.94    1.14
   7  -7  -5   66.60    2.69
   7  -7  -4  148.88    4.43
   7  -7  -3   22.67    1.57
   7  -7  -2   32.29    1.97
   7  -7  -1  101.93    3.69
   7  -7   0   33.29    2.05
   7  -7   1  102.96    3.85
   7  -7   2   30.30    2.06
   7  -7   3   23.09    1.88
   7  -7   4  153.97    5.18
   7  -7   5   64.29    3.26
   7  -7   6    7.13    1.22
   7   7   6    6.43    1.08
   7  -7   7    6.70    1.24
   7   7   7    5.94    1.13
   7   7   8    6.21    1.21
   7  -7   8    8.09    1.33
   7  -7   9   48.84    3.07
   7   7   9   46.73    3.13
   7   7  10    9.58    1.58
   7  -7  10    8.27    1.43
   7  -7  11   -0.08    0.72
   7   7  11    1.30    0.87
   7  -7  12   12.68    1.73
   7   7  12    9.92    1.72
   8  -7  -6    1.27    0.53
   8  -7  -5   44.63    2.20
   8  -7  -4   25.62    1.71
   8  -7  -3    3.27    0.71
   8  -7  -2    5.84    1.02
   7   8  -2    6.97    0.41
   7   8  -1   66.92    1.96
   8  -7  -1   66.32    3.00
   8  -7   0    1.37    0.81
   7   8   0    1.21    0.39
   8  -7   1   68.55    3.12
   7   8   1   67.64    2.45
   8  -7   2    7.48    1.25
   7   8   2    5.98    0.81
   8  -7   3    5.45    1.14
   7   8   3    3.15    0.68
   8  -7   4   19.03    1.86
   7   8   4   21.81    1.65
   8  -7   5   35.08    2.49
   7   8   5   39.68    2.43
   8  -7   6    2.55    1.02
   7   8   6    0.29    0.65
   8  -7   7   21.96    2.05
   7   8   7   18.82    1.86
   7   8   8    1.48    0.85
   8  -7   8    3.65    1.08
   8  -7   9   14.28    1.74
   7   8   9   12.26    1.68
   8  -7  10    0.07    0.75
   7   8  10   -0.07    0.75
   8  -7  11    1.94    1.01
   7   8  11    0.25    0.78
   8  -6  -6    5.13    0.74
   8  -6  -5    0.60    0.52
   8  -6  -4  317.42    7.22
   8  -6  -3    3.39    0.71
   8  -6  -2   22.27    1.60
   8  -6  -1   31.78    1.92
   6   8  -1   27.05    1.06
   8  -6   0  131.38    4.33
   6   8   0  128.68    3.29
   8  -6   1   31.58    2.04
   6   8   1   26.81    1.42
   6   8   2   19.27    1.33
   8  -6   2   19.54    1.69
   6   8   3    3.08    0.67
   8  -6   3    3.76    1.01
   6   8   4  294.87    7.37
   8  -6   4  294.81    7.84
   6   8   5   -0.28    0.72
   8  -6   5    0.91    0.73
   8  -6   6    5.40    1.14
   6   8   6    4.65    0.93
   6   8   7    6.23    1.20
   8  -6   7    6.72    1.19
   6   8   8   44.56    2.92
   8  -6   8   43.92    2.84
   8  -6   9   12.58    1.66
   6   8   9   12.06    1.64
   8  -6  10   16.58    1.88
   6   8  10   15.75    1.93
   8  -6  11    2.33    1.04
   6   8  11    0.84    0.73
   6   8  12   56.40    3.90
   8  -6  12   52.46    3.42
   8  -5  -6   56.95    2.11
   8  -5  -5   12.69    1.03
   8  -5  -4   43.97    1.96
   8  -5  -3    2.93    0.68
   8  -5  -2    6.55    0.93
   8  -5  -1   24.64    1.64
   8  -5   0    0.64    0.59
   5   8   0    1.26    0.37
   5   8   1   26.48    1.38
   8  -5   1   24.10    1.72
   5   8   2    5.46    0.77
   8  -5   2    6.39    1.10
   5   8   3    2.26    0.64
   8  -5   3    3.42    0.97
   8  -5   4   42.82    2.47
   5   8   4   40.52    2.20
  -8   5   5   12.51    0.93
   5   8   5   13.18    1.33
   8  -5   5   12.68    1.44
   8  -5   6   59.04    3.08
   5   8   6   58.88    3.01
   8  -5   7    4.70    1.14
   5   8   7    3.55    0.88
   5   8   8   17.20    1.82
   8  -5   8   16.74    1.72
   8  -5   9    0.36    0.64
   5   8   9   -0.14    0.77
   8  -5  10    9.74    1.42
   5   8  10    8.42    1.43
   8  -5  11    3.29    1.08
   5   8  11    2.75    1.17
   8  -5  12    3.10    0.94
   5   8  12    2.95    1.07
   8  -4  -6    0.69    0.33
   8  -4  -5   52.97    1.92
   8  -4  -4    7.91    0.83
   8  -4  -3   44.67    1.95
   8  -4  -2   66.67    2.51
   8  -4  -1   88.71    3.12
   8  -4   0  115.74    3.73
   8  -4   1   86.11    3.22
   4   8   1   86.55    2.68
   8  -4   2   66.08    2.84
   4   8   2   64.52    2.42
   8  -4   3   45.58    2.43
   4   8   3   40.57    2.04
   8  -4   4    7.63    1.15
   4   8   4    5.92    0.94
   8  -4   5   50.69    2.68
   4   8   5   48.44    2.55
   8  -4   6    0.21    0.64
   4   8   6    0.54    0.64
   8  -4   7   45.27    2.72
   4   8   7   47.48    2.79
   8  -4   8    8.95    1.39
   4   8   8    6.90    1.28
   8  -4   9    9.01    1.36
   4   8   9    8.70    1.37
   8  -4  10    4.01    1.01
   4   8  10    3.61    1.09
   4   8  11   20.65    2.29
   8  -4  11   17.50    1.91
   4   8  12   15.61    2.13
   8  -4  12   16.18    1.89
   8  -3  -6    0.64    0.28
   8  -3  -5   51.70    1.79
   8  -3  -4    2.57    0.52
   8  -3  -3  133.28    3.61
   8  -3  -2    3.39    0.66
   8  -3  -1    8.42    0.89
   8  -3   0    0.79    0.62
   8  -3   1    9.02    1.03
   8  -3   2    4.36    0.80
   3   8   3  125.09    3.90
   8  -3   3  134.88    4.32
   3   8   4    2.79    0.72
   8  -3   4    3.45    0.90
   8  -3   5   45.77    2.54
   3   8   5   49.85    2.58
   3   8   6    0.92    0.64
   8  -3   6   -0.16    0.77
   8  -3   7   24.98    2.02
   3   8   7   25.64    2.04
  -3  -8   7   22.39    1.66
   8  -3   8    5.81    1.13
   3   8   8    5.77    1.21
  -3  -8   8    6.07    0.87
   8  -3   9    9.93    1.35
   3   8   9   12.17    1.59
  -3  -8   9   12.47    1.23
   8  -3  10    2.60    0.84
  -3  -8  10    3.08    0.73
   3   8  10    5.11    1.26
   3   8  11   21.78    2.32
   8  -3  11   19.48    1.95
   8  -3  12    7.71    1.43
   3   8  12   10.66    1.79
   8  -2  -6    7.74    0.47
   8  -2  -5   38.21    1.39
   8  -2  -4   98.39    2.73
   8  -2  -3    0.45    0.40
   8  -2  -2    5.13    0.71
   8  -2  -1   53.32    2.20
  -2  -8  -1   57.23    2.05
   8  -2   0   11.15    1.07
  -2  -8   0    9.29    0.71
  -2  -8   1   56.14    1.70
   8  -2   1   57.23    2.44
   8  -2   2    4.25    0.76
  -2  -8   2    3.92    0.36
   8  -2   3   -0.77    0.72
  -2  -8   3    0.73    0.16
   8  -2   4   91.68    3.56
  -2  -8   4   95.85    3.50
  -2  -8   5   38.79    2.18
   2   8   5   38.79    2.27
   8  -2   5   35.57    2.21
  -2  -8   6    9.76    1.15
   8  -2   6    8.27    1.26
  -2  -8   6    7.47    0.51
   2   8   6    7.18    1.17
  -2  -8   7   22.22    1.02
   2   8   7   22.75    1.98
   8  -2   7   19.18    1.78
  -2  -8   7   23.16    1.71
   8  -2   8   15.07    1.60
  -2  -8   8   18.47    1.06
   2   8   8   18.83    1.87
  -2  -8   8   18.89    1.61
  -2  -8   9   30.08    1.95
   8  -2   9   23.60    2.03
   2   8   9   22.26    2.11
  -2  -8  10   11.10    1.28
   8  -2  10   11.31    1.49
   2   8  10   13.32    1.77
   8  -2  11    7.57    1.30
   2   8  11    5.89    1.44
   8  -2  12    9.50    1.50
   8  -2  13    7.18    1.26
   8  -1  -6    8.85    0.44
   8  -1  -5   22.91    0.99
   8  -1  -4   38.80    1.48
   8  -1  -3   22.95    1.23
   8  -1  -2   49.35    1.98
  -1  -8  -1   12.82    0.97
   8  -1  -1   13.48    1.11
   8  -1   0    2.80    0.62
  -1  -8   0    4.05    0.52
   8  -1   1   13.91    1.23
   8  -1   2   49.90    2.35
  -1  -8   2   49.77    2.40
   8  -1   3   23.67    1.68
  -1  -8   3   25.09    1.74
   8  -1   4   33.48    2.02
  -1  -8   4   38.43    2.17
   8  -1   5   21.63    1.70
  -1  -8   5   23.08    1.73
   8  -1   6    9.74    1.30
  -1  -8   6   11.68    1.31
   8  -1   7  105.36    4.15
  -1  -8   7  108.46    3.92
   8  -1   8   48.25    2.80
  -1  -8   8   50.94    2.60
   8  -1   9   40.67    2.61
  -1  -8   9   42.75    1.91
  -1  -8   9   40.78    2.38
   8  -1  10   23.11    2.08
  -1  -8  10   26.56    1.92
   8  -1  11   11.94    1.53
   8  -1  12    4.82    1.12
   8  -1  13    5.31    1.20
   8   0  -6   13.38    0.54
   8   0  -5    4.32    0.45
   8   0  -4    6.41    0.62
   8   0  -3   12.68    0.90
   8   0  -2    0.97    0.40
   0  -8  -1  184.84    4.62
   0  -8   0   55.07    2.57
   0  -8   1  172.15    5.04
   0  -8   2    1.21    0.68
   0  -8   3   15.16    1.44
   0  -8   4    5.83    0.95
   8   0   5    4.19    0.91
   0  -8   5    7.21    1.09
   0  -8   6   13.47    1.34
   8   0   6   14.01    1.55
   0  -8   7  252.37    6.75
   8   0   7  253.30    7.08
   8   0   8   11.78    1.42
   0  -8   8   12.20    1.34
   8   0   9    3.04    0.96
   0  -8   9    2.53    0.74
   0  -8  10    7.87    1.16
   8   0  10    5.46    1.07
   0  -8  11   15.23    1.51
   8   0  11   15.58    1.68
   8   0  12    1.40    0.71
   8   0  13    2.99    1.00
   8   1  -6   94.70    2.11
   8   1  -6   90.06    2.13
   8   1  -5    6.35    0.55
   1  -8  -1   12.54    1.22
   1  -8   0   -0.48    0.67
   1  -8   1   12.53    1.33
   1  -8   2   11.16    1.22
   1  -8   3   41.43    2.23
   1  -8   4   29.30    1.89
   1  -8   5    6.15    1.01
   1  -8   6   91.15    3.54
   1  -8   7    1.71    0.68
   8   1   8    9.04    1.36
   1  -8   8   13.66    1.42
   8   1   9   13.43    1.52
   1  -8   9   14.62    1.48
   8   1  10    8.98    1.37
   1  -8  10    8.35    1.23
   1  -8  11    3.02    0.87
   8   1  11    2.23    0.82
   8   1  12   22.63    2.11
   8   1  13    1.10    0.85
   8   2  -7   27.78    0.79
   8   2  -6   18.92    0.91
   2  -8  -2   44.89    2.27
   2  -8  -1    2.19    0.69
   2  -8   0    2.27    0.80
   2  -8   1    3.07    0.72
   2  -8   2   44.59    2.33
   2  -8   3   59.20    2.73
   2  -8   4   18.55    1.57
   2  -8   5    2.61    0.80
   2  -8   6   18.25    1.61
   2  -8   7   30.20    2.12
   2  -8   8  127.06    4.62
   2  -8   9    0.33    0.65
   8   2  10    2.65    0.88
   2  -8  10    2.41    0.85
   2  -8  11   23.76    1.97
   8   2  11   21.76    2.05
   8   2  12   23.00    2.16
   2  -8  12   24.38    2.07
   8   2  13   -0.62    0.70
   8   2  13   -0.37    0.94
   8   3  -6   18.77    1.04
   3  -8  -3   41.04    2.15
   3  -8  -2   12.35    1.28
   3  -8  -1    7.12    1.07
   3  -8   0   -0.15    0.68
   3  -8   1    7.19    1.03
   3  -8   2   10.58    1.21
   3  -8   3   39.21    2.26
   3  -8   4   33.11    2.11
   3  -8   5   60.90    2.94
   3  -8   6   19.90    1.74
   3  -8   7   55.51    2.94
   3  -8   8    4.90    1.01
   3  -8   9   12.01    1.44
   3  -8  10    5.23    1.01
   8   3  11    8.49    1.43
   3  -8  11   10.59    1.44
   8   3  12    0.26    0.75
   3  -8  12    1.36    0.72
   8   3  12    2.26    0.95
   8   4  -6   21.88    1.23
   8   4  -6   20.84    1.22
   8   4  -5    8.25    0.83
   4  -8  -4  114.73    3.84
   4  -8  -3   35.79    2.07
   4  -8  -2    2.97    0.82
   4  -8  -1   55.74    2.57
   4  -8   0  422.29    9.47
   4  -8   1   53.53    2.59
   4  -8   2    2.51    0.81
   4  -8   3   31.66    2.06
   4  -8   4  107.84    4.07
   4  -8   5   11.21    1.33
   4  -8   6   23.54    1.94
   4  -8   7   35.77    2.41
   4  -8   8  128.90    4.79
   4  -8   9    1.05    0.69
   4  -8  10   11.86    1.54
   4  -8  11   16.51    1.77
   8   4  12   88.92    4.88
   4  -8  12   91.96    4.28
   8   4  12   80.74    4.16
   8   5  -6   11.37    0.78
   8   5  -6   10.25    0.95
   8   5  -5    9.94    0.71
   5  -8  -4   31.05    1.89
   5  -8  -3   21.70    1.61
   5  -8  -2   91.27    3.45
   5  -8  -1    3.74    0.81
   5  -8   0    2.95    0.81
   5  -8   1    4.27    0.90
   5  -8   2   88.33    3.59
   5  -8   3   20.76    1.76
   5  -8   4   25.76    2.01
   5  -8   5    9.53    1.30
   5  -8   6   11.35    1.45
   5  -8   7    7.85    1.23
   5  -8   8    5.97    1.16
   5  -8   9   14.64    1.72
   5  -8  10   22.94    2.09
   8   5  10   26.03    2.48
   8   5  11   -0.33    0.90
   5  -8  11    2.25    0.96
   8   5  12   12.72    1.87
   5  -8  12   12.66    1.71
   8   6  -5   15.69    0.71
   6  -8  -5   14.55    1.30
   6  -8  -4   36.66    2.12
   6  -8  -3   15.43    1.39
   6  -8  -2   17.32    1.49
   6  -8  -1   84.70    3.40
   6  -8   0   32.53    2.11
   6  -8   1   86.73    3.54
   6  -8   2   18.60    1.69
   6  -8   3   15.38    1.59
   6  -8   4   33.07    2.24
   6  -8   5   14.18    1.58
   6  -8   6    2.49    0.99
   6  -8   7   66.18    3.42
   6  -8   8   33.64    2.48
   6  -8   9    9.37    1.41
   8   6   9    7.71    1.34
   6  -8  10    7.68    1.40
   8   6  10    4.04    1.16
   6  -8  11    7.00    1.35
   8   6  11    5.64    1.42
   8   6  12    3.61    1.22
   6  -8  12    3.14    1.09
   7  -8  -5    3.00    0.77
   7  -8  -4    0.81    0.67
   7  -8  -3   45.73    2.40
   7  -8  -2   12.58    1.29
   7  -8  -1    4.47    0.98
   7  -8   0    8.63    1.24
   7  -8   1    3.59    0.88
   7  -8   2   13.03    1.51
   7  -8   3   46.25    2.70
   7  -8   4    2.52    0.90
   7  -8   5    1.36    0.76
   7  -8   6   -0.72    0.89
   7  -8   7    4.10    1.13
   8   7   7    4.30    1.09
   8   7   8   18.67    1.98
   7  -8   8   22.58    2.09
   7  -8   9   68.87    3.71
   8   7   9   67.66    3.88
   7  -8  10   13.77    1.82
   8   7  10   13.13    1.84
   7  -8  11    2.29    1.04
   8   7  11    1.97    0.84
   8  -8  -6    9.16    1.05
   8  -8  -5    2.83    0.78
   8  -8  -4    9.99    1.13
   8  -8  -3   45.19    2.45
   8  -8  -2   13.57    1.43
   8   8  -2   14.62    0.71
   8  -8  -1   21.84    1.78
   8  -8   0   95.12    3.85
   8  -8   1   20.98    1.82
   8  -8   2   13.39    1.58
   8  -8   3   45.71    2.75
   8  -8   4   10.36    1.44
   8   8   4   11.48    1.29
   8  -8   5    3.79    1.13
   8   8   5    3.69    0.92
   8  -8   6   10.33    1.45
   8   8   6   11.53    1.41
   8  -8   7   10.30    1.46
   8   8   7   11.29    1.49
   8   8   8   96.21    4.54
   8  -8   8   97.74    4.55
   8  -8   9    1.43    0.91
   8   8   9   -0.02    0.76
   8  -8  10   14.46    1.83
   8   8  10   11.86    1.81
   8  -8  11    1.62    0.87
   8   8  11   -0.82    0.85
   9  -8  -6    3.11    0.75
   9  -8  -5   38.23    2.20
   9  -8  -4   25.95    1.84
   9  -8  -3   15.23    1.46
   9  -8  -2   19.44    1.71
   8   9  -1   12.02    0.78
   9  -8  -1   11.66    1.44
   8   9   0    7.20    0.73
   9  -8   0    4.78    1.10
   9  -8   1   11.89    1.49
   8   9   1   11.19    1.01
   9  -8   2   16.44    1.73
   8   9   2   15.27    1.29
   9  -8   3   15.82    1.77
   8   9   3   10.96    1.19
   8   9   4   28.54    1.96
   9  -8   4   29.19    2.38
   8   9   5   34.51    2.31
   9  -8   5   35.10    2.57
   9  -8   6    2.79    0.95
   8   9   6    2.73    0.79
   9  -8   7   10.52    1.57
   8   9   7    9.99    1.43
   9  -8   8   -0.46    0.83
   8   9   8    0.88    0.81
   9  -8   9    8.02    1.41
   8   9   9    8.19    1.45
   9  -8  10   21.63    2.31
   8   9  10   18.48    2.19
   9  -7  -6    4.02    0.76
   9  -7  -5    9.67    1.08
   9  -7  -4   21.03    1.56
   9  -7  -3   73.36    3.11
   9  -7  -2   10.69    1.25
   9  -7  -1    6.72    1.15
   7   9  -1    6.10    0.55
   9  -7   0   23.36    1.84
   7   9   0   21.54    1.17
   9  -7   1    3.64    0.92
   7   9   1    4.69    0.71
   9  -7   2   12.12    1.47
   7   9   2    9.79    1.01
   7   9   3   69.69    2.92
   9  -7   3   75.58    3.57
   7   9   4   21.69    1.69
   9  -7   4   23.08    2.04
   9  -7   5    8.79    1.41
   7   9   5    9.24    1.19
   9  -7   6    4.69    1.18
   7   9   6    3.35    0.86
   7   9   7    4.29    0.98
   9  -7   7    3.25    0.99
   9  -7   8   17.39    1.94
   7   9   8   14.35    1.74
   7   9   9   27.58    2.50
   9  -7   9   28.79    2.50
   9  -7  10   13.87    1.80
   7   9  10   14.12    1.92
   9  -7  11    4.15    1.12
   7   9  11    4.45    1.22
   9  -6  -6    9.49    0.94
   9  -6  -5   22.36    1.48
   9  -6  -4   42.48    2.13
   9  -6  -3   13.87    1.30
   9  -6  -2  143.82    4.48
   9  -6  -1   18.28    1.56
   9  -6   0    0.51    0.72
   6   9   0    0.07    0.36
   6   9   1   19.59    1.24
   9  -6   1   19.79    1.75
   9  -6   2  132.78    4.60
   6   9   2  123.98    3.80
   9  -6   3   11.53    1.47
   6   9   3   12.41    1.19
   6   9   4   39.62    2.27
   9  -6   4   42.46    2.63
   6   9   5   20.30    1.74
   9  -6   5   25.50    2.14
   6   9   6    9.96    1.36
   9  -6   6   10.80    1.52
   6   9   7    0.46    0.69
   9  -6   7    0.96    0.80
   9  -6   8   13.87    1.68
   6   9   8   11.10    1.57
   9  -6   9    0.66    0.76
   6   9   9    0.51    0.74
   9  -6  10   16.77    2.00
   6   9  10   18.27    2.12
   9  -6  11    1.90    1.09
   6   9  11    3.30    1.33
   9  -5  -6   37.81    1.72
   9  -5  -5    3.77    0.68
   9  -5  -4    6.74    0.89
   9  -5  -3    4.91    0.79
   9  -5  -2  165.73    4.80
   9  -5  -1   38.57    2.11
   9  -5   0   13.87    1.36
   5   9   1   36.02    1.69
   9  -5   1   37.18    2.24
   5   9   2  148.75    4.20
   9  -5   2  150.43    4.93
   9  -5   3    3.12    0.88
   5   9   3    4.39    0.75
   9  -5   4    6.37    1.15
   5   9   4    4.46    0.86
   9  -5   5    3.69    0.97
   5   9   5    2.47    0.83
   9  -5   6   42.19    2.65
   5   9   6   38.92    2.46
   9  -5   7   71.31    3.60
   5   9   7   70.56    3.54
   9  -5   8    4.85    1.05
   5   9   8    4.95    1.12
   5   9   9    9.14    1.45
   9  -5   9   10.27    1.48
   5   9  10   -0.12    0.63
   9  -5  10    1.37    0.90
   9  -5  11    3.35    1.11
   5   9  11    5.29    1.30
   9  -5  12    3.56    1.08
   5   9  12    5.45    1.39
   9  -4  -6   16.72    0.99
   9  -4  -5   59.46    2.19
   9  -4  -4   16.49    1.21
   9  -4  -3   33.65    1.77
   9  -4  -2    2.96    0.69
   9  -4  -1    1.22    0.62
   9  -4   0    1.46    0.65
   9  -4   1    1.66    0.70
   9  -4   2    3.00    0.91
   9  -4   3   36.18    2.26
   4   9   3   27.18    1.74
   9  -4   4   15.56    1.54
   4   9   4   15.32    1.40
   9  -4   5   60.24    3.05
   4   9   5   60.98    2.96
   9  -4   6   16.01    1.72
   4   9   6   17.62    1.69
   9  -4   7    5.02    1.08
   4   9   7    3.99    0.98
   9  -4   8    4.83    1.10
   4   9   8    3.87    0.99
   9  -4   9    5.40    1.20
   4   9   9    3.29    1.07
   9  -4  10    1.11    0.83
   4   9  10    2.41    1.04
   9  -4  11    0.62    0.72
   4   9  11    2.60    1.20
   4   9  12    2.66    1.05
   9  -4  12    1.89    1.01
   9  -3  -6  196.44    4.26
   9  -3  -5    9.77    0.82
   9  -3  -4  101.81    3.08
   9  -3  -3    0.34    0.44
   9  -3  -2  225.05    5.53
   9  -3  -1   12.90    1.18
   9  -3   0    1.40    0.64
   9  -3   1   13.70    1.30
   9  -3   2  223.07    6.06
   9  -3   3    0.53    0.73
   9  -3   4  104.75    4.00
   3   9   5    9.38    1.25
   9  -3   5    7.51    1.23
   9  -3   6  200.84    6.15
   3   9   6  192.15    6.04
   9  -3   7    5.56    1.11
   3   9   7    5.95    1.22
   9  -3   8   23.22    2.06
   3   9   8   24.97    2.25
   9  -3   9   -0.86    0.92
   3   9   9    0.08    0.64
  -3  -9   9   -0.33    0.67
   3   9  10  122.15    5.38
   9  -3  10  114.15    4.87
   9  -3  11    2.84    1.01
   3   9  11    3.60    1.13
   9  -3  12   23.20    2.29
   9  -2  -6   26.65    1.07
   9  -2  -5   28.37    1.28
   9  -2  -4    4.49    0.61
   9  -2  -3    8.64    0.85
   9  -2  -2   16.08    1.23
   9  -2  -1    6.25    0.83
  -2  -9  -1    4.87    0.61
   9  -2   0   -0.40    0.62
  -2  -9   0    0.21    0.28
   9  -2   1    4.91    0.86
  -2  -9   1    5.37    0.52
  -2  -9   2   14.86    0.76
   9  -2   2   15.24    1.37
   9  -2   3    9.38    1.19
  -2  -9   3   10.05    0.53
   9  -2   4    4.69    0.95
  -2  -9   4    2.84    0.75
   9  -2   5   27.46    2.06
  -2  -9   5   26.64    1.92
   9  -2   6   24.94    1.99
  -2  -9   6   25.84    0.93
  -2  -9   6   26.47    1.90
  -2  -9   7   11.23    1.32
   9  -2   7    9.99    1.37
  -2  -9   8   12.76    1.40
   9  -2   8   13.84    1.62
   9  -2   9   11.40    1.52
  -2  -9   9   12.96    1.41
  -2  -9  10    5.63    0.98
   9  -2  10    5.98    1.18
   9  -2  11   -0.81    0.70
   9  -2  12   36.14    2.78
   9  -1  -6   13.85    0.70
   9  -1  -5   55.16    1.81
   9  -1  -4   11.64    0.87
   9  -1  -3   13.02    0.98
   9  -1  -2    2.47    0.62
   9  -1  -1   36.65    1.86
   9  -1   0    3.26    0.75
  -1  -9   0    2.55    0.48
   9  -1   1   32.15    1.91
  -1  -9   1   35.10    1.48
  -1  -9   2    0.83    0.68
   9  -1   2    0.45    0.67
  -1  -9   3   13.90    1.43
   9  -1   3   14.55    1.47
  -1  -9   4   11.00    1.34
   9  -1   4   10.87    1.31
   9  -1   5   53.10    2.80
  -1  -9   5   51.39    2.72
   9  -1   6   12.85    1.54
  -1  -9   6   14.07    1.51
   9  -1   7   21.71    1.91
  -1  -9   7   24.84    1.94
   9  -1   8   32.35    2.40
  -1  -9   8   37.15    2.35
   9  -1   9   62.75    3.39
  -1  -9   9   66.14    3.20
   9  -1  10    1.98    0.86
  -1  -9  10    0.21    0.59
   9  -1  11    5.47    1.15
   9  -1  12    0.76    0.83
   9   0  -6    8.21    0.54
   9   0  -5   12.74    0.81
   9   0  -4    4.56    0.57
   9   0  -3   38.55    1.72
   9   0  -2   10.18    0.98
   9   0  -1  102.71    3.34
   0  -9   0    0.49    0.60
   0  -9   1   97.54    3.74
   0  -9   2    9.13    1.20
   0  -9   3   39.13    2.34
   0  -9   4    2.98    0.94
   9   0   4    5.97    1.14
   0  -9   5   12.63    1.47
   9   0   5   12.87    1.42
   0  -9   6    7.50    1.17
   9   0   6    8.06    1.19
   9   0   7   34.38    2.38
   0  -9   7   33.60    2.24
   9   0   8    4.47    1.02
   0  -9   8    2.97    0.82
   0  -9   9    2.87    0.89
   9   0   9    2.85    0.94
   0  -9  10    5.40    1.01
   9   0  10    4.75    1.13
   0  -9  11    6.51    1.15
   9   0  11    6.25    1.20
   9   0  12    2.54    1.04
   9   1  -6    3.76    0.41
   9   1  -5   69.81    2.16
   1  -9  -1   17.01    1.50
   1  -9   0  274.17    7.12
   1  -9   1   19.95    1.64
   1  -9   2   78.01    3.34
   1  -9   3    2.06    0.79
   1  -9   4    9.55    1.18
   1  -9   5   69.40    3.20
   1  -9   6    3.82    0.94
   9   1   7   -1.07    0.89
   1  -9   7   -0.25    0.69
   1  -9   8    9.65    1.32
   9   1   8   12.01    1.54
   1  -9   9   33.84    2.29
   9   1   9   28.42    2.34
   9   1  10   12.21    1.56
   1  -9  10   14.89    1.61
   1  -9  11   10.82    1.41
   9   1  11   12.21    1.67
   9   1  12    2.06    0.98
   2  -9  -2   -0.74    0.77
   2  -9  -1   13.53    1.41
   2  -9   0   -0.40    0.72
   2  -9   1   15.48    1.51
   2  -9   2    0.12    0.69
   2  -9   3  229.48    6.41
   2  -9   4   20.26    1.72
   2  -9   5   37.46    2.35
   2  -9   6    4.11    1.04
   2  -9   7   21.28    1.87
   2  -9   8    9.30    1.32
   9   2   9    9.28    1.46
   2  -9   9   11.35    1.44
   9   2  10    7.39    1.24
   2  -9  10    7.61    1.25
   9   2  11   11.06    1.57
   2  -9  11   12.36    1.55
   9   2  12   -1.04    0.91
   2  -9  12    0.29    0.74
   9   3  -6    4.17    0.58
   3  -9  -3    0.71    0.66
   3  -9  -2   27.96    1.90
   3  -9  -1   78.44    3.34
   3  -9   0   19.99    1.66
   3  -9   1   76.53    3.29
   3  -9   2   26.04    1.92
   3  -9   3   -0.65    0.84
   3  -9   4   49.22    2.70
   3  -9   5    8.39    1.19
   3  -9   6    4.62    1.06
   3  -9   7   65.19    3.30
   3  -9   8    1.47    0.76
   3  -9   9   56.05    3.16
   3  -9  10    4.51    1.09
   9   3  11    5.42    1.12
   3  -9  11    6.24    1.21
   3  -9  12    4.85    1.09
   9   3  12    5.86    1.34
   4  -9  -3    0.92    0.65
   4  -9  -2   52.18    2.67
   4  -9  -1    4.45    0.96
   4  -9   0    5.03    1.01
   4  -9   1    2.79    0.82
   4  -9   2   48.89    2.65
   4  -9   3    2.04    0.98
   4  -9   4   12.06    1.47
   4  -9   5    2.55    0.91
   4  -9   6   76.73    3.62
   4  -9   7    5.46    1.22
   4  -9   8   23.85    2.10
   4  -9   9   15.70    1.74
   4  -9  10   22.59    2.05
   4  -9  11    0.99    0.81
   9   4  12    9.63    1.60
   9   4  12   13.37    2.01
   4  -9  12   16.79    1.90
   5  -9  -4    2.15    0.73
   5  -9  -3   66.92    3.07
   5  -9  -2   61.67    2.96
   5  -9  -1    6.47    1.12
   5  -9   0   16.29    1.58
   5  -9   1    5.10    1.04
   5  -9   2   58.65    3.03
   5  -9   3   63.97    3.19
   5  -9   4    2.47    0.96
   5  -9   5   21.77    2.01
   5  -9   6   46.56    2.85
   5  -9   7   10.59    1.45
   5  -9   8   19.46    1.94
   5  -9   9   18.15    1.86
   5  -9  10    2.04    0.95
   5  -9  11   27.36    2.40
   9   5  11   19.77    2.32
   9   5  12    8.56    1.59
   5  -9  12    8.16    1.47
   6  -9  -5   32.14    2.07
   6  -9  -4   29.10    1.98
   6  -9  -3   49.24    2.64
   6  -9  -2   -0.62    0.80
   6  -9  -1   33.19    2.18
   6  -9   0    1.44    0.75
   6  -9   1   33.09    2.26
   6  -9   2    2.18    1.04
   6  -9   3   51.52    2.87
   6  -9   4   25.48    2.11
   6  -9   5   30.52    2.32
   6  -9   6   14.84    1.72
   6  -9   7   21.67    2.08
   6  -9   8    7.06    1.40
   6  -9   9   20.29    2.05
   9   6  10    2.51    1.08
   6  -9  10    4.10    1.16
   9   6  11   10.25    1.73
   6  -9  11    7.71    1.35
   7  -9  -5    0.45    0.58
   7  -9  -4    0.73    0.63
   7  -9  -3    9.01    1.21
   7  -9  -2  239.82    6.72
   7  -9  -1    1.45    0.74
   7  -9   0   22.85    1.91
   7  -9   1    3.48    1.15
   7  -9   2  234.64    6.94
   7  -9   3    9.57    1.41
   7  -9   4    1.09    0.94
   7  -9   5   -0.19    0.82
   7  -9   6  127.82    5.06
   7  -9   7    1.66    1.01
   7  -9   8   16.86    1.88
   9   7   8   15.35    1.81
   7  -9   9    4.87    1.14
   9   7   9    4.98    1.17
   7  -9  10   15.27    1.84
   9   7  10   13.59    1.85
   9   7  11    4.47    1.38
   7  -9  11    3.85    1.21
   8  -9  -6   20.02    1.63
   8  -9  -5    5.46    0.96
   8  -9  -4    6.75    1.06
   8  -9  -3   11.84    1.38
   8  -9  -2   31.21    2.17
   8  -9  -1    1.75    0.86
   8  -9   0    1.00    0.79
   8  -9   1    0.47    0.79
   8  -9   2   35.48    2.51
   8  -9   3   10.26    1.45
   8  -9   4    6.11    1.28
   8  -9   5    3.39    1.09
   8  -9   6   21.20    2.07
   9   8   6   23.76    2.06
   8  -9   7    8.88    1.56
   9   8   7    6.16    1.19
   8  -9   8    1.00    0.88
   9   8   8    1.61    0.87
   8  -9   9    2.94    0.93
   9   8   9    3.26    1.19
   8  -9  10    7.95    1.57
   9   8  10    3.00    1.11
   9  -9  -6   10.43    1.27
   9  -9  -5    4.51    0.89
   9  -9  -4   -0.53    0.64
   9  -9  -3   13.19    1.48
   9  -9  -2   17.06    1.69
   9  -9  -1   94.06    3.99
   9   9  -1   93.56    2.67
   9   9   0    0.55    0.38
   9  -9   0    2.26    0.99
   9  -9   1   93.03    4.14
   9   9   1   91.92    3.16
   9   9   2   14.31    1.30
   9  -9   2   18.23    1.83
   9  -9   3   14.41    1.71
   9   9   3   12.53    1.26
   9  -9   4    0.26    0.85
   9   9   4    0.04    0.51
   9  -9   5    5.00    1.11
   9   9   5    2.94    0.78
   9  -9   6    7.95    1.49
   9   9   6    8.76    1.32
   9  -9   7   36.11    2.78
   9   9   7   34.07    2.62
   9  -9   8    9.12    1.63
   9   9   8    4.60    1.12
   9  -9   9   16.24    2.04
   9   9   9   10.31    1.53
   9  -9  10   10.01    1.67
   9   9  10    5.23    1.31
  10  -9  -6    0.60    0.56
  10  -9  -5   18.56    1.72
  10  -9  -4    1.53    0.70
  10  -9  -3    8.95    1.24
  10  -9  -2    5.68    1.12
  10  -9  -1   -0.99    0.86
   9  10   0    1.39    0.43
  10  -9   0    1.91    0.89
   9  10   1    0.61    0.46
  10  -9   1    0.46    0.87
  10  -9   2    7.24    1.28
   9  10   2    5.39    0.86
  10  -9   3    9.07    1.46
   9  10   3   10.30    1.18
  10  -9   4    2.23    1.05
   9  10   4    0.85    0.55
  10  -9   5   19.75    2.08
   9  10   5   18.18    1.75
  10  -9   6    1.89    0.99
   9  10   6    0.63    0.58
  10  -9   7    9.62    1.60
   9  10   7    7.55    1.31
  10  -9   8    3.29    1.18
   9  10   8    3.00    1.08
  10  -9   9   11.28    1.82
   9  10   9    8.90    1.52
  10  -8  -6    2.40    0.71
  10  -8  -5   11.42    1.24
  10  -8  -4   15.19    1.45
  10  -8  -3   54.43    2.82
  10  -8  -2   26.61    2.01
  10  -8  -1    3.31    1.00
  10  -8   0    5.97    1.19
   8  10   0    5.54    0.65
  10  -8   1    1.05    0.80
   8  10   1    3.84    0.67
  10  -8   2   22.84    2.04
   8  10   2   21.25    1.49
   8  10   3   53.12    2.61
  10  -8   3   57.72    3.29
  10  -8   4   16.40    1.83
   8  10   4   13.47    1.42
  10  -8   5   13.33    1.75
   8  10   5   10.49    1.34
  10  -8   6    0.43    0.81
   8  10   6   -0.25    0.76
   8  10   7   26.05    2.25
  10  -8   7   28.19    2.51
  10  -8   8   -0.20    0.88
   8  10   8    0.21    0.71
  10  -8   9   14.54    1.90
   8  10   9   13.93    1.88
  10  -8  10    8.14    1.57
   8  10  10    5.98    1.35
  10  -7  -6   38.02    2.06
  10  -7  -5   39.44    2.13
  10  -7  -4    4.70    0.81
  10  -7  -3   48.25    2.54
  10  -7  -2   23.62    1.80
  10  -7  -1   23.72    1.88
  10  -7   0    8.23    1.25
  10  -7   1   21.78    1.92
   7  10   1   23.79    1.43
  10  -7   2   22.65    1.95
   7  10   2   23.81    1.59
   7  10   3   43.36    2.29
  10  -7   3   45.68    2.84
  10  -7   4    4.60    1.04
   7  10   4    4.29    0.84
   7  10   5   38.43    2.45
  10  -7   5   40.36    2.78
   7  10   6   34.81    2.46
  10  -7   6   31.04    2.51
  10  -7   7   12.71    1.77
   7  10   7   14.03    1.69
  10  -7   8    8.79    1.58
   7  10   8    9.10    1.38
  10  -7   9   11.82    1.72
   7  10   9   12.19    1.74
  10  -7  10    0.70    0.77
   7  10  10    3.01    1.21
  10  -6  -6    1.81    0.51
  10  -6  -5    3.37    0.75
  10  -6  -4    1.91    0.69
  10  -6  -3   35.90    2.09
  10  -6  -2    9.76    1.18
  10  -6  -1   91.21    3.62
  10  -6   0   57.62    2.89
  10  -6   1   97.66    3.95
  10  -6   2    7.41    1.27
   6  10   2    6.72    0.89
   6  10   3   25.46    1.75
  10  -6   3   26.78    2.13
   6  10   4    1.56    0.77
  10  -6   4   -0.67    0.87
  10  -6   5    3.55    0.94
   6  10   5    4.32    0.98
   6  10   6    1.53    0.73
  10  -6   6    0.42    0.67
   6  10   7   98.19    4.37
  10  -6   7   93.26    4.41
  10  -6   8   10.60    1.57
   6  10   8    9.80    1.50
  10  -6   9   14.92    1.87
   6  10   9   16.48    1.92
  10  -6  10    7.97    1.45
   6  10  10   11.22    1.78
  10  -6  11    9.26    1.69
   6  10  11    3.95    1.28
  10  -5  -6   24.83    1.42
  10  -5  -5   24.82    1.53
  10  -5  -4    8.78    1.03
  10  -5  -3   35.41    2.00
  10  -5  -2   66.21    2.88
  10  -5  -1   38.14    2.20
  10  -5   0    4.58    0.99
  10  -5   1   34.98    2.24
  10  -5   2   60.99    3.03
  10  -5   3   35.76    2.35
   5  10   3   33.05    1.97
  10  -5   4    9.54    1.37
   5  10   4    8.01    1.15
  10  -5   5   21.23    1.92
   5  10   5   19.46    1.77
  10  -5   6   27.10    2.26
   5  10   6   24.77    2.05
  10  -5   7    5.38    1.12
   5  10   7    5.95    1.23
  10  -5   8   32.38    2.57
   5  10   8   29.46    2.42
  10  -5   9   12.21    1.72
   5  10   9   10.68    1.66
  10  -5  10   17.22    2.05
   5  10  10   18.14    2.11
  10  -5  11    5.69    1.35
   5  10  11    2.52    1.06
  10  -4  -6    4.19    0.58
  10  -4  -5    2.70    0.59
  10  -4  -4   73.31    2.72
  10  -4  -3   29.92    1.74
  10  -4  -2   33.79    1.94
  10  -4  -1   52.53    2.55
  10  -4   0   36.19    2.13
  10  -4   1   51.39    2.60
  10  -4   2   35.08    2.23
  10  -4   3   27.28    2.10
  10  -4   4   76.10    3.49
  10  -4   5    1.15    0.83
   4  10   5    2.18    0.81
  10  -4   6    3.93    0.97
   4  10   6    5.36    1.11
  10  -4   7   66.25    3.53
   4  10   7   67.92    3.54
  10  -4   8    1.90    0.92
   4  10   8    1.40    0.94
  10  -4   9    2.61    1.03
   4  10   9    3.42    1.04
  10  -4  10    6.48    1.33
   4  10  10    9.00    1.64
  10  -4  11   10.91    1.67
   4  10  11   12.55    1.99
  10  -3  -6    2.01    0.45
  10  -3  -5   13.49    1.02
  10  -3  -4    0.45    0.45
  10  -3  -3    7.88    0.89
  10  -3  -2   11.24    1.13
  10  -3  -1    3.08    0.80
  10  -3   0    1.73    0.69
  10  -3   1    1.04    0.72
  10  -3   2   10.72    1.31
  10  -3   3    7.92    1.17
  10  -3   4    0.01    0.78
  10  -3   5   12.15    1.58
  10  -3   6    1.67    0.88
  10  -3   7   38.58    2.64
  10  -3   8   21.10    2.01
  10  -3   9   14.74    1.73
  10  -3  10    9.52    1.50
  10  -3  11   16.03    1.93
  10  -2  -6   15.12    0.90
  10  -2  -5    0.45    0.38
  10  -2  -4   71.97    2.53
  10  -2  -3    4.37    0.70
  10  -2  -2   13.18    1.16
  10  -2  -1   43.43    2.17
  10  -2   0   -0.16    0.61
  -2 -10   0   -0.16    0.31
  -2 -10   1   43.90    1.66
  10  -2   1   44.45    2.34
  10  -2   2   12.96    1.41
  -2 -10   2   11.96    0.74
  10  -2   3    3.53    0.89
  -2 -10   3    3.74    0.37
  -2 -10   4   70.07    1.67
  10  -2   4   72.04    3.32
  -2 -10   5    0.08    0.71
  10  -2   5    0.40    0.86
  -2 -10   6   14.58    1.55
  10  -2   6   16.90    1.77
  10  -2   7   52.45    3.07
  -2 -10   7   56.98    3.00
  10  -2   8   50.17    3.03
  -2 -10   8   48.81    2.80
  10  -2   9    0.48    0.73
  -2 -10   9   -0.71    0.70
  -2 -10  10    2.21    0.82
  10  -2  10    0.47    0.76
  10  -2  11    6.26    1.33
  10  -2  12   39.86    2.97
  10  -1  -6    3.51    0.46
  10  -1  -5    2.89    0.52
  10  -1  -4    7.92    0.78
  10  -1  -3    4.18    0.70
  10  -1  -2   62.49    2.53
  10  -1  -1    0.39    0.60
  10  -1   0    9.04    1.10
  -1 -10   0    6.96    0.75
  10  -1   1    0.27    0.58
  -1 -10   1    0.00    0.30
  10  -1   2   60.07    2.86
  -1 -10   2   58.05    2.97
  -1 -10   3    2.57    0.78
  10  -1   3    3.97    0.93
  -1 -10   4   10.07    1.31
  10  -1   4    7.84    1.21
  10  -1   5    2.90    0.91
  -1 -10   5    2.55    0.99
  -1 -10   6    3.95    1.13
  10  -1   6    2.45    0.79
  10  -1   7   15.94    1.71
  -1 -10   7   21.47    1.87
  10  -1   8   15.39    1.82
  -1 -10   8   19.27    1.78
  10  -1   9   18.61    1.95
  -1 -10   9   19.12    1.81
  -1 -10  10    0.75    0.62
  10  -1  10    0.58    0.70
  10  -1  11   29.78    2.53
  10  -1  12    4.39    1.11
  10   0  -6    1.13    0.32
  10   0  -5    2.65    0.49
  10   0  -4  362.65    7.56
  10   0  -3   12.73    1.07
  10   0  -2    3.43    0.74
  10   0  -1    2.05    0.66
  10   0   0  162.72    4.83
   0 -10   1    0.38    0.76
  10   0   1    1.32    0.72
   0 -10   2    2.89    0.93
  10   0   2    3.46    0.86
   0 -10   3   12.44    1.47
  10   0   3   10.16    1.27
  10   0   4  348.88    8.76
   0 -10   4  345.42    8.86
   0 -10   5    3.51    1.03
  10   0   5    0.20    0.72
  10   0   6    1.35    0.81
   0 -10   6    1.59    0.83
   0 -10   7    6.18    1.14
  10   0   7    5.49    1.22
  10   0   8   36.31    2.57
   0 -10   8   35.84    2.46
   0 -10   9    4.40    1.03
  10   0   9    3.09    0.94
  10   0  10   60.11    3.52
   0 -10  10   62.44    3.37
   0 -10  11    0.96    0.71
  10   0  11    0.38    0.81
  10   0  12   43.59    3.16
  10   1  -6   25.02    1.14
  10   1  -5   71.67    2.37
  10   1  -4   89.86    2.89
   1 -10   0    0.73    0.77
   1 -10   1   63.26    3.15
   1 -10   2   13.41    1.48
   1 -10   3    1.52    0.89
   1 -10   4  100.34    4.09
   1 -10   5   73.13    3.44
   1 -10   6   25.02    2.03
   1 -10   7    8.08    1.30
  10   1   7    7.48    1.32
   1 -10   8   29.34    2.21
  10   1   8   27.23    2.26
   1 -10   9   15.19    1.65
  10   1   9   14.17    1.70
  10   1  10    7.25    1.34
   1 -10  10    9.17    1.40
   1 -10  11   -0.74    0.69
  10   1  11   -1.49    1.00
  10   1  12    2.79    1.01
  10   2  -6   11.87    0.83
   2 -10  -1   96.44    3.88
   2 -10   0   29.12    2.12
   2 -10   1  104.87    4.17
   2 -10   2    7.52    1.27
   2 -10   3   70.91    3.39
   2 -10   4   40.20    2.50
   2 -10   5   34.34    2.36
   2 -10   6   12.75    1.51
   2 -10   7   46.71    2.82
   2 -10   8   25.69    2.11
   2 -10   9   -0.03    0.71
  10   2   9   -0.03    0.84
  10   2  10    4.55    1.27
   2 -10  10    3.73    0.95
  10   2  11   12.32    1.74
   2 -10  11   11.45    1.56
   2 -10  12   11.39    1.59
  10   2  12   10.02    1.53
   3 -10  -2   18.42    1.68
   3 -10  -1   13.48    1.54
   3 -10   0    5.32    1.05
   3 -10   1   14.10    1.54
   3 -10   2   18.80    1.75
   3 -10   3    0.62    0.65
   3 -10   4    4.25    1.04
   3 -10   5    1.30    0.85
   3 -10   6    7.97    1.34
   3 -10   7   11.85    1.53
   3 -10   8   46.83    2.94
   3 -10   9   19.02    1.96
   3 -10  10    7.65    1.27
  10   3  10    9.12    1.45
  10   3  11    1.45    0.89
   3 -10  11    2.61    0.97
   4 -10  -3   89.23    3.67
   4 -10  -2    1.79    0.78
   4 -10  -1   11.30    1.47
   4 -10   0   19.63    1.84
   4 -10   1   11.19    1.46
   4 -10   2    3.16    1.04
   4 -10   3   86.85    3.81
   4 -10   4   45.05    2.74
   4 -10   5   51.83    3.02
   4 -10   6   47.31    2.95
   4 -10   7    8.24    1.36
   4 -10   8   48.89    3.04
   4 -10   9    4.00    1.17
   4 -10  10    8.89    1.38
   4 -10  11    8.64    1.51
   5 -10  -4   20.25    1.74
   5 -10  -3   39.76    2.46
   5 -10  -2   50.58    2.83
   5 -10  -1  142.97    5.02
   5 -10   0    0.73    0.79
   5 -10   1  136.39    4.93
   5 -10   2   50.80    2.91
   5 -10   3   37.99    2.60
   5 -10   4   18.51    1.87
   5 -10   5    6.77    1.35
   5 -10   6    6.40    1.25
   5 -10   7   22.63    2.13
   5 -10   8    3.11    1.11
   5 -10   9   14.56    1.73
   5 -10  10    7.70    1.45
   5 -10  11    4.01    1.14
   6 -10  -4   34.89    2.28
   6 -10  -3  106.37    4.18
   6 -10  -2   40.42    2.54
   6 -10  -1    3.77    1.01
   6 -10   0   57.34    3.06
   6 -10   1    5.23    1.08
   6 -10   2   40.44    2.63
   6 -10   3  120.34    4.77
   6 -10   4   34.85    2.52
   6 -10   5    1.59    0.93
   6 -10   6    5.83    1.23
   6 -10   7   85.67    4.18
   6 -10   8    0.64    0.85
   6 -10   9    1.97    0.94
   6 -10  10   10.61    1.61
   6 -10  11   36.42    2.99
  10   6  11   35.17    3.11
   7 -10  -5    3.14    0.84
   7 -10  -4   -0.09    0.64
   7 -10  -3    1.77    0.86
   7 -10  -2    1.23    0.76
   7 -10  -1    7.99    1.27
   7 -10   0   -0.06    0.70
   7 -10   1    8.26    1.29
   7 -10   2    3.21    1.04
   7 -10   3    3.61    1.10
   7 -10   4   -0.01    0.84
   7 -10   5    7.27    1.39
   7 -10   6    7.80    1.35
   7 -10   7    2.20    0.97
   7 -10   8    4.36    1.15
  10   7   9    2.14    0.95
   7 -10   9    5.35    1.33
  10   7  10    5.54    1.44
   7 -10  10    5.57    1.30
   8 -10  -5    0.49    0.67
   8 -10  -4   21.98    1.85
   8 -10  -3  124.50    4.68
   8 -10  -2   42.29    2.61
   8 -10  -1    2.88    1.01
   8 -10   0   14.09    1.66
   8 -10   1    2.52    0.94
   8 -10   2   44.57    2.88
   8 -10   3  119.71    4.95
   8 -10   4   19.83    2.03
   8 -10   5    3.43    1.15
   8 -10   6    1.45    0.85
  10   8   7    9.36    1.42
   8 -10   7   10.77    1.63
  10   8   8   17.39    1.98
   8 -10   8   15.03    1.96
  10   8   9    5.14    1.33
   8 -10   9    6.63    1.38
  10   8  10   -0.65    1.00
   8 -10  10    1.53    1.05
   9 -10  -6   14.64    1.52
   9 -10  -5   33.34    2.30
   9 -10  -4    1.14    0.78
   9 -10  -3   27.56    2.14
   9 -10  -2   21.81    1.94
   9 -10  -1   27.29    2.19
   9 -10   0    1.07    0.91
   9 -10   1   28.01    2.30
   9 -10   2   22.03    2.05
   9 -10   3   28.80    2.46
  10   9   4    0.14    0.57
   9 -10   4    0.96    0.85
   9 -10   5   27.22    2.42
  10   9   5   28.19    2.18
   9 -10   6   16.99    2.05
  10   9   6   14.69    1.70
   9 -10   7   21.04    2.21
  10   9   7   19.82    2.04
   9 -10   8    3.91    1.15
  10   9   8    1.95    0.95
   9 -10   9    9.50    1.68
  10   9   9   11.21    1.72
  10 -10  -5    3.65    0.93
  10 -10  -4   55.23    3.04
  10 -10  -3    0.86    0.79
  10 -10  -2   10.63    1.43
  10 -10  -1    9.83    1.41
  10 -10   0  148.51    5.56
  10  10   1    9.91    1.01
  10 -10   1   10.61    1.61
  10  10   2    9.31    1.09
  10 -10   2   11.59    1.72
  10  10   3    0.87    0.56
  10 -10   3    0.37    0.87
  10 -10   4   58.28    3.57
  10  10   4   53.90    2.92
  10 -10   5    2.97    1.07
  10  10   5    4.69    1.07
  10 -10   6   18.72    2.10
  10  10   6   19.70    2.00
  10 -10   7    5.74    1.38
  10  10   7    4.85    1.06
  10 -10   8   26.62    2.59
  10  10   8   28.86    2.59
  10 -10   9    2.38    1.14
  10  10   9    0.23    0.81
  11 -10  -5    2.44    0.91
  11 -10  -4   19.34    1.84
  11 -10  -3    2.65    1.02
  11 -10  -2   22.17    2.04
  11 -10  -1    5.78    1.29
  11 -10   0    2.44    1.10
  11 -10   1    7.81    1.36
  11 -10   2   21.63    2.18
  10  11   2   18.72    1.50
  11 -10   3    2.49    1.13
  10  11   3    2.01    0.71
  11 -10   4   19.01    2.11
  10  11   4   19.13    1.76
  11 -10   5    2.74    1.22
  10  11   5    2.66    0.88
  11 -10   6   37.17    3.02
  10  11   6   40.22    2.81
  11 -10   7    0.80    1.02
  10  11   7    1.16    0.73
  11 -10   8    2.11    1.07
  10  11   8    2.15    0.86
  11  -9  -5    4.16    0.89
  11  -9  -4   68.54    3.35
  11  -9  -3    2.74    0.83
  11  -9  -2   35.49    2.45
  11  -9  -1    3.71    0.97
  11  -9   0    0.87    0.92
  11  -9   1    4.45    1.12
   9  11   1    5.07    0.73
  11  -9   2   32.70    2.57
   9  11   2   29.06    1.83
  11  -9   3    0.16    0.88
   9  11   3    1.02    0.57
  11  -9   4   68.66    3.88
   9  11   4   66.57    3.26
  11  -9   5    3.16    1.02
   9  11   5    4.68    0.96
  11  -9   6   28.60    2.61
   9  11   6   24.91    2.17
  11  -9   7    1.59    0.98
   9  11   7    0.58    0.64
  11  -9   8   12.49    1.87
   9  11   8    7.07    1.28
  11  -8  -5   21.11    1.70
  11  -8  -4   10.29    1.28
  11  -8  -3    5.24    0.95
  11  -8  -2    4.41    0.97
  11  -8  -1   19.08    1.80
  11  -8   0    1.02    0.73
  11  -8   1   19.20    1.86
   8  11   1   17.69    1.28
  11  -8   2    6.37    1.21
   8  11   2    5.49    0.82
  11  -8   3    5.37    1.28
   8  11   3    4.48    0.83
  11  -8   4   11.77    1.71
   8  11   4    9.47    1.22
  11  -8   5   18.73    2.04
   8  11   5   21.75    1.92
  11  -8   6    3.74    1.24
   8  11   6    3.70    0.97
  11  -8   7    0.25    1.02
   8  11   7    1.00    0.86
  11  -8   8    2.15    1.08
   8  11   8    1.23    1.03
  11  -8   9    3.87    1.19
   8  11   9    4.54    1.25
  11  -7  -5   13.70    1.33
  11  -7  -4   23.44    1.80
  11  -7  -3    5.13    0.99
  11  -7  -2   76.51    3.43
  11  -7  -1    4.14    0.94
  11  -7   0    1.76    0.89
  11  -7   1    3.49    1.10
   7  11   2   70.03    2.85
  11  -7   2   75.53    3.69
  11  -7   3    3.82    1.07
   7  11   3    3.98    0.82
   7  11   4   23.23    1.81
  11  -7   4   25.65    2.27
  11  -7   5   12.68    1.71
   7  11   5   10.63    1.33
   7  11   6   75.29    3.74
  11  -7   6   81.75    4.20
   7  11   7   34.38    2.58
  11  -7   7   34.67    2.80
  11  -7   8   -0.35    0.84
   7  11   8    1.08    0.88
  11  -7   9   11.27    1.80
   7  11   9   11.51    1.75
   7  11  10   47.65    3.48
  11  -7  10   44.28    3.31
  11  -6  -5    3.32    0.71
  11  -6  -4    6.93    0.98
  11  -6  -3    3.43    0.84
  11  -6  -2   81.50    3.43
  11  -6  -1    0.61    0.74
  11  -6   0    1.08    0.72
  11  -6   1    2.85    0.98
  11  -6   2   77.61    3.68
  11  -6   3    4.15    1.13
   6  11   3    3.63    0.87
  11  -6   4    7.82    1.31
   6  11   4    6.85    1.01
   6  11   5    1.79    0.78
  11  -6   5    4.01    1.16
   6  11   6   14.69    1.65
  11  -6   6   14.54    1.79
   6  11   7    4.00    1.15
  11  -6   7    2.02    0.97
   6  11   8   37.83    2.86
  11  -6   8   32.28    2.71
  11  -6   9    5.61    1.36
   6  11   9    4.36    1.19
  11  -6  10    9.97    1.60
   6  11  10    9.68    1.67
  11  -5  -5   76.32    2.90
  11  -5  -4   31.58    1.90
  11  -5  -3    4.40    0.85
  11  -5  -2    2.95    0.79
  11  -5  -1  150.92    4.91
  11  -5   0    9.25    1.31
  11  -5   1  147.48    5.05
  11  -5   2    3.05    0.96
  11  -5   3    3.82    0.98
  11  -5   4   26.98    2.21
  11  -5   5   73.29    3.70
   5  11   5   74.41    3.47
  11  -5   6    2.59    0.99
   5  11   6    2.91    0.89
  11  -5   7   20.09    2.06
   5  11   7   21.46    2.06
  11  -5   8    6.44    1.32
   5  11   8    8.63    1.54
  11  -5   9   50.32    3.34
   5  11   9   53.09    3.47
   5  11  10    1.46    0.88
  11  -5  10    1.08    0.75
  11  -4  -5   10.80    1.05
  11  -4  -4   15.88    1.32
  11  -4  -3   66.46    2.77
  11  -4  -2   17.17    1.50
  11  -4  -1   59.68    2.80
  11  -4   0    4.21    0.95
  11  -4   1   56.64    2.89
  11  -4   2   14.37    1.58
  11  -4   3   62.54    3.22
  11  -4   4   17.89    1.86
  11  -4   5    9.57    1.45
  11  -4   6    8.12    1.36
  11  -4   7   38.76    2.74
  11  -4   8    1.71    0.89
  11  -4   9    5.88    1.29
  11  -4  10    3.64    1.24
  11  -4  11    2.98    1.13
  11  -3  -5   35.58    1.73
  11  -3  -4    3.27    0.68
  11  -3  -3    3.19    0.77
  11  -3  -2   35.64    2.03
  11  -3  -1  115.33    3.96
  11  -3   0   59.79    2.84
  11  -3   1  106.50    4.02
  11  -3   2   38.13    2.39
  11  -3   3    1.34    0.71
  11  -3   4    3.80    1.04
  11  -3   5   29.17    2.32
  11  -3   6    4.14    1.10
  11  -3   7   26.20    2.25
  11  -3   8    3.29    1.00
  11  -3   9    1.16    0.94
  11  -3  10    2.21    0.84
  11  -3  11    2.73    1.08
  11  -2  -5   11.17    0.97
  11  -2  -4   23.06    1.47
  11  -2  -3   55.18    2.39
  11  -2  -2  108.67    3.65
  11  -2  -1   30.50    1.93
  11  -2   0   -0.45    0.62
  -2 -11   1   29.61    1.39
  11  -2   1   31.41    2.09
  -2 -11   2  102.88    2.72
  11  -2   2  101.03    4.00
  11  -2   3   51.59    2.83
  11  -2   4   20.76    1.86
  11  -2   5    8.20    1.31
  11  -2   6    9.62    1.41
  -2 -11   6    9.49    1.32
  -2 -11   7   11.63    1.50
  11  -2   7   10.61    1.49
  -2 -11   8    8.47    1.30
  11  -2   8    8.22    1.40
  11  -2   9    6.60    1.31
  -2 -11   9    7.00    1.22
  11  -2  10   25.80    2.35
  -2 -11  10   27.72    2.24
  11  -2  11    3.69    1.14
  11  -1  -5   18.69    1.18
  11  -1  -4   35.15    1.78
  11  -1  -3   68.51    2.69
  11  -1  -2    8.34    1.00
  11  -1  -1   77.52    3.11
  11  -1   0    7.95    1.11
  11  -1   1   77.99    3.33
  -1 -11   1   78.14    2.59
  -1 -11   2    9.06    0.76
  11  -1   2    6.92    1.18
  11  -1   3   65.12    3.23
  -1 -11   3   64.76    3.33
  11  -1   4   32.75    2.31
  -1 -11   4   29.09    2.21
  -1 -11   5   20.97    1.92
  11  -1   5   20.71    1.97
  -1 -11   6    1.24    0.73
  11  -1   6    2.41    0.97
  11  -1   7   49.58    3.06
  -1 -11   7   48.84    2.94
  -1 -11   8   13.91    1.65
  11  -1   8   16.87    1.87
  11  -1   9   69.31    3.84
  -1 -11   9   76.74    3.82
  -1 -11  10    6.22    1.17
  11  -1  10    5.94    1.22
  11  -1  11    9.39    1.57
  11   0  -6   50.11    1.79
  11   0  -5   30.41    1.51
  11   0  -4   28.38    1.59
  11   0  -3   40.73    2.01
  11   0  -2   15.82    1.34
  11   0  -1    0.27    0.62
  11   0   0   -0.53    0.70
   0 -11   1    0.25    0.83
  11   0   1    0.23    0.68
   0 -11   2   15.04    1.62
  11   0   2   15.43    1.53
  11   0   3   34.65    2.34
   0 -11   3   34.67    2.44
  11   0   4   24.20    2.00
   0 -11   4   27.25    2.17
  11   0   5   32.11    2.37
   0 -11   5   33.88    2.43
  11   0   6   42.95    2.82
   0 -11   6   51.97    3.05
   0 -11   7    5.14    1.07
  11   0   7    6.83    1.29
  11   0   8   25.85    2.27
   0 -11   8   30.04    2.38
   0 -11   9    4.36    1.18
  11   0   9    1.85    0.90
   0 -11  10    0.90    0.87
  11   0  10    0.70    0.95
   0 -11  11    0.69    0.71
  11   0  11    0.61    0.91
  11   1  -6    7.61    0.68
  11   1  -5   18.72    1.22
  11   1  -4   28.24    1.59
  11   1  -3    6.18    0.87
   1 -11   0  103.65    4.22
   1 -11   1    1.80    0.79
   1 -11   2  189.89    6.16
   1 -11   3    5.70    1.15
   1 -11   4   24.71    2.10
   1 -11   5   16.01    1.76
  11   1   6    5.73    1.18
   1 -11   6    7.74    1.36
   1 -11   7    0.04    0.75
  11   1   7   -0.36    0.91
   1 -11   8    2.75    0.88
  11   1   8    4.22    1.09
   1 -11   9   14.19    1.71
  11   1   9   11.52    1.63
  11   1  10    7.47    1.38
   1 -11  10    8.07    1.39
   1 -11  11   -0.25    0.68
  11   1  11    0.86    0.84
  11   2  -6    0.24    0.35
   2 -11  -1  168.67    5.65
   2 -11   0    0.88    0.81
   2 -11   1  163.45    5.65
   2 -11   2   12.69    1.60
   2 -11   3   24.53    2.10
   2 -11   4    2.51    0.99
   2 -11   5    1.66    0.92
   2 -11   6   -0.96    0.91
   2 -11   7   20.49    1.94
   2 -11   8   -1.20    0.90
  11   2   8    0.14    0.78
   2 -11   9   17.25    1.91
  11   2   9   13.62    1.84
   2 -11  10    1.10    0.80
  11   2  10    4.48    1.28
  11   2  11    2.00    0.85
   2 -11  11    1.09    0.79
   3 -11  -2  229.88    6.87
   3 -11  -1    3.82    1.05
   3 -11   0   69.23    3.50
   3 -11   1    2.25    1.04
   3 -11   2  222.59    6.89
   3 -11   3    4.48    1.12
   3 -11   4   14.41    1.70
   3 -11   5    7.11    1.21
   3 -11   6  108.85    4.66
   3 -11   7   -0.01    0.75
   3 -11   8    5.13    1.17
   3 -11   9    3.87    1.07
   3 -11  10   27.74    2.43
  11   3  10   26.34    2.47
  11   3  11    2.09    0.97
   3 -11  11    2.76    0.89
   4 -11  -3   -1.89    0.96
   4 -11  -2    3.06    0.92
   4 -11  -1   44.33    2.76
   4 -11   0    1.12    0.91
   4 -11   1   46.95    2.83
   4 -11   2    4.14    1.03
   4 -11   3   -0.49    0.81
   4 -11   4   11.71    1.60
   4 -11   5   11.87    1.51
   4 -11   6    1.07    0.75
   4 -11   7    0.95    0.81
   4 -11   8   10.13    1.51
   4 -11   9    0.34    0.73
   4 -11  10    9.12    1.54
   4 -11  11    0.42    0.70
  11   4  11    0.26    0.92
   5 -11  -3   24.01    2.00
   5 -11  -2    9.71    1.49
   5 -11  -1   61.76    3.34
   5 -11   0  202.03    6.46
   5 -11   1   57.48    3.21
   5 -11   2    5.95    1.20
   5 -11   3   23.64    2.13
   5 -11   4   13.19    1.69
   5 -11   5   27.32    2.31
   5 -11   6    8.69    1.39
   5 -11   7    8.81    1.49
   5 -11   8   16.79    1.95
   5 -11   9   24.68    2.37
   5 -11  10   10.83    1.67
   6 -11  -4   20.46    1.82
   6 -11  -3   47.06    2.87
   6 -11  -2    5.76    1.27
   6 -11  -1    7.43    1.29
   6 -11   0   -1.34    1.04
   6 -11   1    8.32    1.46
   6 -11   2    4.81    1.15
   6 -11   3   45.07    2.95
   6 -11   4   18.17    1.93
   6 -11   5   67.52    3.70
   6 -11   6    0.96    0.94
   6 -11   7    7.43    1.39
   6 -11   8    2.54    0.99
   6 -11   9   19.81    2.20
   6 -11  10   -0.54    0.86
   7 -11  -5    5.40    1.04
   7 -11  -4   94.93    4.09
   7 -11  -3   23.22    2.05
   7 -11  -2  103.04    4.40
   7 -11  -1    3.12    0.95
   7 -11   0   22.36    2.05
   7 -11   1    4.85    1.08
   7 -11   2   98.90    4.43
   7 -11   3   21.86    2.09
   7 -11   4   98.20    4.58
   7 -11   5    7.80    1.43
   7 -11   6   28.37    2.53
   7 -11   7    1.40    0.87
   7 -11   8    6.19    1.38
   7 -11   9    7.95    1.46
  11   7  10    3.10    1.19
   7 -11  10    4.84    1.33
   8 -11  -5    7.92    1.23
   8 -11  -4   21.77    2.03
   8 -11  -3   10.55    1.44
   8 -11  -2   45.09    2.87
   8 -11  -1   20.20    1.96
   8 -11   0    3.00    1.08
   8 -11   1   26.82    2.27
   8 -11   2   49.85    3.16
   8 -11   3   11.06    1.65
   8 -11   4   20.00    2.13
   8 -11   5    7.01    1.45
   8 -11   6    5.14    1.39
   8 -11   7    8.07    1.53
  11   8   8   -1.16    0.95
   8 -11   8    0.20    0.84
  11   8   9    5.54    1.36
   8 -11   9    7.77    1.59
   9 -11  -5   30.03    2.30
   9 -11  -4   16.17    1.76
   9 -11  -3   88.65    4.12
   9 -11  -2    3.35    1.03
   9 -11  -1   18.87    1.96
   9 -11   0    8.80    1.46
   9 -11   1   19.12    2.01
   9 -11   2    4.01    1.04
   9 -11   3   90.19    4.46
   9 -11   4   18.68    2.06
   9 -11   5   31.31    2.68
  11   9   6    1.58    0.69
   9 -11   6    1.95    0.96
  11   9   7    2.43    0.90
   9 -11   7    4.27    1.41
  11   9   8    4.15    1.11
   9 -11   8    4.98    1.38
  10 -11  -5   20.46    1.97
  10 -11  -4    3.06    0.88
  10 -11  -3    4.70    1.17
  10 -11  -2    9.89    1.44
  10 -11  -1    6.46    1.41
  10 -11   0    2.63    1.09
  10 -11   1    3.61    1.13
  11  10   2   10.63    1.19
  10 -11   2    7.47    1.43
  11  10   3    3.60    0.82
  10 -11   3    4.79    1.30
  11  10   4    2.31    0.79
  10 -11   4    4.74    1.46
  11  10   5   21.87    1.99
  10 -11   5   21.04    2.33
  11  10   6   -0.09    0.70
  10 -11   6    0.74    1.04
  11  10   7    4.68    1.18
  10 -11   7    4.69    1.38
  11  10   8    3.48    1.12
  10 -11   8    5.34    1.47
  11 -11  -5   11.89    1.58
  11 -11  -4   18.65    1.94
  11 -11  -3    7.75    1.32
  11 -11  -2   22.61    2.15
  11 -11  -1    1.43    0.90
  11 -11   0   -0.15    0.71
  11 -11   1    1.83    0.99
  11 -11   2   24.10    2.38
  11 -11   3    9.60    1.65
  11  11   4   16.79    1.69
  11 -11   4   15.97    2.04
  11  11   5    8.69    1.30
  11 -11   5   12.92    1.93
  11  11   6    2.58    0.91
  11 -11   6    1.48    1.08
  11  11   7   -0.52    0.70
  11 -11   7   -1.38    1.15
  12 -11  -4    4.68    1.00
  12 -11  -3   24.13    2.23
  12 -11  -2   10.33    1.47
  12 -11  -1   61.52    3.67
  12 -11   0    1.14    0.86
  12 -11   1   69.88    4.02
  12 -11   2   17.73    2.13
  12 -11   3   28.47    2.71
  12 -11   4    4.25    1.35
  12 -11   5   24.53    2.65
  11  12   6    3.24    0.94
  12 -11   6    6.37    1.51
  12 -10  -4    3.19    0.97
  12 -10  -3    3.21    0.90
  12 -10  -2    2.89    0.94
  12 -10  -1   31.67    2.54
  12 -10   0   31.50    2.60
  12 -10   1   30.51    2.56
  12 -10   2    5.50    1.29
  12 -10   3    3.83    1.31
  12 -10   4    2.25    1.12
  10  12   4    3.92    0.87
  12 -10   5   14.42    1.99
  10  12   5   13.11    1.58
  12 -10   6    3.78    1.29
  10  12   6    4.40    1.03
  12 -10   7   13.61    2.00
  10  12   7   11.11    1.65
  12  -9  -4    7.18    1.17
  12  -9  -3    2.08    0.78
  12  -9  -2    1.28    0.83
  12  -9  -1   86.94    4.14
  12  -9   0    2.05    1.10
  12  -9   1   88.21    4.30
  12  -9   2    1.16    0.89
  12  -9   3    1.73    1.04
   9  12   3    2.13    0.68
  12  -9   4   10.47    1.59
   9  12   4    9.07    1.25
  12  -9   5    2.55    1.14
   9  12   5    1.19    0.62
  12  -9   6    9.89    1.80
   9  12   6    7.36    1.25
  12  -9   7    4.50    1.29
   9  12   7    3.44    1.03
  12  -9   8    3.07    1.29
   9  12   8    5.30    1.31
  12  -8  -5    0.39    0.63
  12  -8  -4   39.45    2.44
  12  -8  -3   13.65    1.56
  12  -8  -2   51.81    3.01
  12  -8  -1    2.89    0.99
  12  -8   0   12.83    1.61
  12  -8   1    2.00    0.91
  12  -8   2   51.76    3.24
  12  -8   3   11.26    1.67
   8  12   3   14.15    1.38
   8  12   4   38.60    2.42
  12  -8   4   42.66    3.05
  12  -8   5    0.07    0.96
   8  12   5    1.08    0.72
  12  -8   6    1.56    0.97
   8  12   6    0.83    0.66
   8  12   7   24.37    2.23
  12  -8   7   22.82    2.41
  12  -8   8    3.74    1.23
   8  12   8    3.31    1.13
  12  -7  -5    7.84    1.09
  12  -7  -4    2.89    0.79
  12  -7  -3    0.77    0.73
  12  -7  -2    0.76    0.61
  12  -7  -1    3.93    0.96
  12  -7   0    2.41    0.90
  12  -7   1    5.77    1.18
  12  -7   2    3.31    1.10
  12  -7   3   -0.88    1.00
  12  -7   4    1.22    0.89
   7  12   4    3.08    0.88
  12  -7   5    7.25    1.37
   7  12   5    6.16    1.14
  12  -7   6    2.68    1.01
   7  12   6    1.57    0.80
   7  12   7   27.43    2.40
  12  -7   7   30.12    2.66
  12  -7   8    0.67    0.94
   7  12   8    0.03    0.67
  12  -7   9    6.77    1.46
   7  12   9    4.84    1.22
  12  -6  -5    2.33    0.70
  12  -6  -4   33.87    2.12
  12  -6  -3   20.61    1.73
  12  -6  -2   23.20    1.87
  12  -6  -1    2.83    0.87
  12  -6   0   86.85    3.86
  12  -6   1    2.38    0.83
  12  -6   2   26.33    2.22
  12  -6   3   18.66    1.87
  12  -6   4   35.26    2.67
  12  -6   5    3.93    1.13
   6  12   6    7.46    1.32
  12  -6   6    5.33    1.22
   6  12   7    2.06    1.05
  12  -6   7    2.07    1.11
   6  12   8   35.69    2.83
  12  -6   8   32.29    2.77
  12  -6   9    3.72    1.20
   6  12   9    3.21    1.11
  12  -5  -5    6.79    0.92
  12  -5  -4   15.17    1.33
  12  -5  -3   -0.05    0.56
  12  -5  -2    1.63    0.60
  12  -5  -1   34.26    2.28
  12  -5   0    4.48    1.02
  12  -5   1   36.56    2.46
  12  -5   2    2.63    0.91
  12  -5   3    0.71    0.85
  12  -5   4   14.73    1.77
  12  -5   5    4.55    1.18
  12  -5   6    3.11    0.93
  12  -5   7   16.35    1.92
  12  -5   8    4.09    1.09
  12  -5   9    6.50    1.35
  12  -5  10    3.26    1.05
  12  -4  -5    1.77    0.61
  12  -4  -4  256.85    6.54
  12  -4  -3    0.29    0.62
  12  -4  -2    3.79    0.79
  12  -4  -1    1.69    0.77
  12  -4   0  203.38    6.10
  12  -4   1    2.51    0.89
  12  -4   2    2.23    0.80
  12  -4   3   -1.35    0.83
  12  -4   4  240.89    7.33
  12  -4   5    0.62    0.85
  12  -4   6    7.08    1.27
  12  -4   7    1.45    1.00
  12  -4   8    1.77    0.89
  12  -4   9    1.75    0.87
  12  -4  10   37.40    3.03
  12  -3  -5   10.67    1.04
  12  -3  -4   67.19    2.75
  12  -3  -3   15.61    1.35
  12  -3  -2   47.90    2.45
  12  -3  -1    2.36    0.82
  12  -3   0    7.70    1.19
  12  -3   1    1.64    0.82
  12  -3   2   46.01    2.76
  12  -3   3   15.87    1.67
  12  -3   4   69.76    3.56
  12  -3   5    8.02    1.32
  12  -3   6   11.09    1.63
  12  -3   7    4.21    1.21
  12  -3   8    1.13    0.86
  12  -3   9    6.56    1.35
  12  -3  10    5.70    1.28
  12  -2  -5   32.18    1.71
  12  -2  -4    0.60    0.48
  12  -2  -3    2.27    0.66
  12  -2  -2   54.88    2.60
  12  -2  -1  168.44    5.18
  12  -2   0    1.35    0.77
  12  -2   1  163.21    5.34
  12  -2   2   55.00    2.99
  12  -2   3    3.58    1.06
  12  -2   4    0.24    0.82
  12  -2   5   31.71    2.46
  12  -2   6    5.23    1.27
  12  -2   7   87.11    4.27
  -2 -12   7   81.77    4.00
  12  -2   8   -0.50    0.88
  -2 -12   8    0.75    0.79
  -2 -12   9    2.99    0.86
  12  -2   9    3.13    1.12
  12  -2  10   -0.88    0.91
  -2 -12  10    0.90    0.77
  12  -1  -5    9.35    0.93
  12  -1  -4   16.61    1.28
  12  -1  -3   66.71    2.78
  12  -1  -2   91.43    3.44
  12  -1  -1   27.69    1.92
  12  -1   0    2.44    0.87
  12  -1   1   28.80    2.13
  12  -1   2   90.71    3.85
  12  -1   3   70.00    3.43
  -1 -12   4   16.73    1.84
  12  -1   4   15.09    1.73
  -1 -12   5    5.89    1.14
  12  -1   5    7.85    1.39
  12  -1   6   24.94    2.21
  -1 -12   6   21.21    2.06
  -1 -12   7    6.23    1.21
  12  -1   7    5.67    1.26
  12  -1   8   29.16    2.49
  -1 -12   8   31.96    2.49
  -1 -12   9    1.12    0.71
  12  -1   9    2.93    1.00
  -1 -12  10    4.58    1.17
  12  -1  10    3.63    1.16
  12   0  -5   68.34    2.51
  12   0  -4    8.56    1.00
  12   0  -3   29.33    1.81
  12   0  -2   26.69    1.77
  12   0  -1   -0.16    0.72
  12   0   0    3.84    0.91
  12   0   1    1.67    0.72
  12   0   2   23.50    1.92
   0 -12   2   25.20    2.17
  12   0   3   29.36    2.28
   0 -12   3   26.62    2.26
   0 -12   4    8.39    1.40
  12   0   4    7.90    1.25
  12   0   5   62.59    3.43
   0 -12   5   64.48    3.57
   0 -12   6    9.99    1.48
  12   0   6   14.05    1.78
  12   0   7   10.77    1.62
   0 -12   7   13.80    1.69
   0 -12   8   14.54    1.74
  12   0   8   11.00    1.63
  12   0   9   28.29    2.55
   0 -12   9   25.24    2.32
   0 -12  10    4.60    1.18
  12   0  10    4.54    1.19
  12   1  -5   12.63    1.07
  12   1  -4    2.25    0.63
  12   1  -3   59.81    2.65
  12   1  -2    2.11    0.72
   1 -12   1   24.09    2.15
   1 -12   2    1.48    0.90
   1 -12   3   55.33    3.27
   1 -12   4    2.02    1.09
  12   1   5   12.52    1.57
   1 -12   5   12.89    1.63
   1 -12   6    1.06    0.84
  12   1   6   -0.93    0.89
  12   1   7   21.67    2.10
   1 -12   7   24.98    2.30
   1 -12   8    0.19    0.84
  12   1   8    0.20    0.78
  12   1   9    0.72    0.76
   1 -12   9    0.34    0.82
   1 -12  10   11.38    1.65
  12   1  10    8.00    1.42
  12   2  -5    0.66    0.40
   2 -12  -1   50.21    3.02
   2 -12   0   -0.18    0.99
   2 -12   1   53.97    3.19
   2 -12   2   32.35    2.50
   2 -12   3   43.86    2.94
   2 -12   4    0.29    0.73
   2 -12   5   -0.03    0.84
   2 -12   6    6.15    1.18
   2 -12   7  109.81    4.86
  12   2   8   18.42    2.02
   2 -12   8   17.67    1.98
  12   2   9    2.09    0.96
   2 -12   9    2.25    0.87
   2 -12  10    1.50    0.86
  12   2  10    1.18    0.99
   3 -12  -2    0.56    0.84
   3 -12  -1   13.77    1.61
   3 -12   0    1.54    0.98
   3 -12   1   17.35    1.85
   3 -12   2    0.81    0.91
   3 -12   3    9.19    1.43
   3 -12   4    6.88    1.31
   3 -12   5    4.17    1.12
   3 -12   6   49.01    3.15
   3 -12   7    1.52    0.93
   3 -12   8   12.38    1.67
  12   3   9    0.41    0.84
   3 -12   9    0.09    0.66
   3 -12  10    6.62    1.36
  12   3  10    4.61    1.34
   4 -12  -2   21.08    2.02
   4 -12  -1    9.39    1.45
   4 -12   0    0.37    0.89
   4 -12   1    9.40    1.55
   4 -12   2   23.87    2.18
   4 -12   3   42.50    2.88
   4 -12   4   71.67    3.78
   4 -12   5   10.12    1.48
   4 -12   6    7.77    1.38
   4 -12   7    3.46    1.08
   4 -12   8   18.81    2.12
   4 -12   9    2.70    0.92
   4 -12  10    5.96    1.46
   5 -12  -3   64.56    3.41
   5 -12  -2    5.58    1.18
   5 -12  -1    0.59    0.89
   5 -12   0    0.24    0.84
   5 -12   1    0.69    0.92
   5 -12   2    4.18    1.18
   5 -12   3   61.65    3.51
   5 -12   4    1.08    0.92
   5 -12   5   71.79    3.88
   5 -12   6    6.49    1.37
   5 -12   7   34.35    2.73
   5 -12   8    1.25    1.00
   5 -12   9    9.28    1.60
   5 -12  10    5.47    1.27
   6 -12  -4    7.76    1.31
   6 -12  -3    0.94    0.79
   6 -12  -2    1.18    0.83
   6 -12  -1    3.63    1.03
   6 -12   0  346.73    9.54
   6 -12   1    3.46    1.14
   6 -12   2    1.93    0.96
   6 -12   3    1.17    0.92
   6 -12   4   11.33    1.61
   6 -12   5   12.29    1.72
   6 -12   6   45.69    3.15
   6 -12   7    4.06    1.19
   6 -12   8   72.95    4.16
   6 -12   9    0.79    1.04
   7 -12  -4    6.38    1.20
   7 -12  -3    3.40    1.11
   7 -12  -2    6.09    1.27
   7 -12  -1    0.88    0.76
   7 -12   0   11.29    1.57
   7 -12   1    1.84    0.83
   7 -12   2    7.00    1.30
   7 -12   3    1.04    0.87
   7 -12   4    5.20    1.28
   7 -12   5   15.52    1.91
   7 -12   6   26.22    2.47
   7 -12   7    1.54    1.03
   7 -12   8    7.01    1.44
   7 -12   9   13.10    1.90
   8 -12  -5   51.48    3.09
   8 -12  -4    7.08    1.31
   8 -12  -3   10.41    1.52
   8 -12  -2    1.48    0.88
   8 -12  -1   16.29    1.85
   8 -12   0   21.50    2.13
   8 -12   1   16.27    1.92
   8 -12   2    0.82    0.74
   8 -12   3    7.23    1.45
   8 -12   4    5.55    1.41
   8 -12   5   57.31    3.69
   8 -12   6    2.58    1.16
   8 -12   7    1.22    1.13
   8 -12   8    0.95    0.97
   9 -12  -5    2.91    0.89
   9 -12  -4    6.24    1.29
   9 -12  -3    3.97    1.23
   9 -12  -2    0.63    0.74
   9 -12  -1    1.63    1.00
   9 -12   0    0.37    0.84
   9 -12   1    5.09    1.30
   9 -12   2    2.27    1.10
   9 -12   3    5.97    1.46
   9 -12   4    4.07    1.18
   9 -12   5    3.77    1.31
   9 -12   6    7.62    1.58
  12   9   7   -0.20    0.62
   9 -12   7   -0.16    0.77
  12   9   8    0.74    0.84
   9 -12   8    0.74    0.86
  10 -12  -5    1.50    0.89
  10 -12  -4    3.22    0.97
  10 -12  -3    1.11    0.80
  10 -12  -2    1.54    0.86
  10 -12  -1    7.12    1.39
  10 -12   0   76.75    4.14
  10 -12   1    5.52    1.36
  10 -12   2    3.16    1.01
  12  10   3   -0.49    0.58
  10 -12   3   -0.88    0.82
  12  10   4    4.66    1.04
  10 -12   4    5.78    1.40
  12  10   5    2.40    0.85
  10 -12   5    2.82    1.09
  12  10   6    9.78    1.49
  10 -12   6    7.83    1.52
  12  10   7   -0.59    0.75
  10 -12   7    0.65    0.87
  11 -12  -5   24.86    2.25
  11 -12  -4    4.75    1.22
  11 -12  -3    7.85    1.40
  11 -12  -2    0.22    0.78
  11 -12  -1   -0.49    0.81
  11 -12   0    1.16    1.00
  11 -12   1    0.14    0.85
  11 -12   2    1.63    1.14
  11 -12   3   11.04    1.78
  11 -12   4    4.13    1.36
  12  11   5   19.43    1.93
  11 -12   5   21.99    2.45
  12  11   6   16.68    1.93
  11 -12   6   15.93    2.13
  12 -12  -4    0.43    0.71
  12 -12  -3   51.64    3.35
  12 -12  -2    1.03    0.80
  12 -12  -1   -0.40    0.75
  12 -12   0   11.03    1.77
  12 -12   1   -0.58    0.88
  12 -12   2    1.98    1.07
  12 -12   3   56.60    3.83
  12 -12   4    0.53    1.15
  13 -12  -2   23.43    2.34
  13 -12  -1    0.36    0.76
  13 -12   0   -0.54    0.92
  13 -12   1    2.20    1.20
  13 -12   2   26.97    2.73
  13 -11  -3    2.39    1.01
  13 -11  -2   11.64    1.65
  13 -11  -1    3.41    1.16
  13 -11   0   18.36    2.13
  13 -11   1    1.63    0.82
  13 -11   2   13.94    1.94
  13 -11   3    3.02    1.27
  13 -11   4    6.94    1.68
  13 -10  -4    4.66    1.06
  13 -10  -3    3.06    0.98
  13 -10  -2    1.12    0.80
  13 -10  -1    8.68    1.47
  13 -10   0    2.82    1.11
  13 -10   1    8.49    1.51
  13 -10   2    3.16    1.17
  13 -10   3    3.36    1.10
  13 -10   4    7.59    1.51
  13 -10   5    1.29    1.04
  13  -9  -4    4.39    1.11
  13  -9  -3   30.06    2.37
  13  -9  -2    4.23    1.08
  13  -9  -1   30.33    2.48
  13  -9   0   23.63    2.21
  13  -9   1   36.12    2.81
  13  -9   2    5.40    1.36
  13  -9   3   30.06    2.65
  13  -9   4    5.33    1.43
  13  -9   5   15.73    2.08
   9  13   5   16.57    1.78
  13  -9   6   -2.61    1.30
   9  13   6    0.67    0.78
  13  -8  -4    6.50    1.13
  13  -8  -3   32.30    2.38
  13  -8  -2    2.04    1.00
  13  -8  -1   11.11    1.57
  13  -8   0    1.88    0.92
  13  -8   1   14.36    1.84
  13  -8   2    0.17    0.83
  13  -8   3   38.79    2.94
  13  -8   4    5.39    1.35
   8  13   5   43.98    2.81
  13  -8   5   42.92    3.22
   8  13   6   28.95    2.44
  13  -8   6   31.53    2.82
  13  -8   7    8.70    1.70
   8  13   7    7.73    1.38
  13  -7  -4    9.28    1.24
  13  -7  -3   12.94    1.50
  13  -7  -2    5.20    1.02
  13  -7  -1   43.15    2.77
  13  -7   0    4.16    1.03
  13  -7   1   42.55    2.88
  13  -7   2    5.90    1.36
  13  -7   3   12.23    1.68
  13  -7   4    9.17    1.63
  13  -7   5    0.80    0.81
  13  -7   6    3.20    1.10
  13  -7   7   41.78    3.21
  13  -7   8    1.10    0.99
  13  -6  -4    4.45    0.89
  13  -6  -3    6.19    1.03
  13  -6  -2    3.18    0.90
  13  -6  -1    2.60    0.88
  13  -6   0    2.87    1.02
  13  -6   1    1.31    0.97
  13  -6   2    3.03    0.99
  13  -6   3    6.29    1.26
  13  -6   4    5.34    1.21
  13  -6   5   26.84    2.42
  13  -6   6    0.38    0.75
  13  -6   7   -0.30    0.90
  13  -6   8    2.43    1.09
  13  -5  -4   67.86    3.04
  13  -5  -3   -0.17    0.55
  13  -5  -2   11.43    1.37
  13  -5  -1   16.62    1.64
  13  -5   0    9.30    1.29
  13  -5   1   17.61    1.80
  13  -5   2   14.08    1.68
  13  -5   3    2.15    1.03
  13  -5   4   62.99    3.58
  13  -5   5   28.95    2.47
  13  -5   6    1.00    0.95
  13  -5   7    3.38    1.11
  13  -5   8    6.49    1.38
  13  -5   9   33.82    2.92
  13  -4  -4    1.09    0.63
  13  -4  -3   68.23    3.10
  13  -4  -2    1.74    0.70
  13  -4  -1    4.13    0.97
  13  -4   0    1.95    0.88
  13  -4   1    4.15    1.03
  13  -4   2    0.78    0.68
  13  -4   3   65.73    3.51
  13  -4   4    2.34    0.96
  13  -4   5   36.35    2.71
  13  -4   6    5.01    1.24
  13  -4   7    1.64    1.09
  13  -4   8    1.07    0.94
  13  -4   9   11.98    1.83
  13  -3  -4    6.89    0.99
  13  -3  -3   10.49    1.20
  13  -3  -2   59.00    2.89
  13  -3  -1    9.05    1.24
  13  -3   0   32.68    2.24
  13  -3   1    9.09    1.29
  13  -3   2   59.02    3.20
  13  -3   3   11.58    1.56
  13  -3   4    7.09    1.34
  13  -3   5    7.43    1.32
  13  -3   6   30.76    2.59
  13  -3   7   -0.02    0.76
  13  -3   8    7.81    1.53
  13  -3   9    8.82    1.58
  13  -2  -4    3.97    0.76
  13  -2  -3   19.64    1.56
  13  -2  -2    6.62    0.98
  13  -2  -1   15.04    1.49
  13  -2   0    5.69    1.07
  13  -2   1   16.74    1.66
  13  -2   2    9.25    1.34
  13  -2   3   20.15    1.91
  13  -2   4    5.43    1.23
  13  -2   5   13.38    1.71
  13  -2   6   15.54    1.90
  13  -2   7    6.53    1.26
  13  -2   8   16.43    1.93
  13  -2   9    1.92    0.85
  13  -1  -5    0.74    0.40
  13  -1  -4   60.31    2.64
  13  -1  -3    6.06    0.92
  13  -1  -2   54.08    2.70
  13  -1  -1   21.21    1.70
  13  -1   0   29.33    2.13
  13  -1   1   21.90    1.90
  13  -1   2   53.15    3.03
  13  -1   3    6.15    1.23
  13  -1   4   53.07    3.15
  13  -1   5    1.28    0.97
  -1 -13   5    1.23    0.78
  13  -1   6   79.55    4.13
  -1 -13   6   73.11    3.91
  -1 -13   7   15.57    1.83
  13  -1   7   14.13    1.81
  -1 -13   8    2.83    0.95
  13  -1   8    2.87    1.14
  -1 -13   9    2.23    0.91
  13  -1   9    2.52    1.11
  13  -1  10   63.02    3.97
  -1 -13  10   61.54    3.70
  13   0  -5   11.41    1.06
  13   0  -4   26.50    1.70
  13   0  -3    7.14    0.96
  13   0  -2    1.42    0.61
  13   0  -1    3.41    0.85
  13   0   0   -0.29    0.62
  13   0   1    2.51    0.82
  13   0   2    2.72    0.90
   0 -13   3    6.43    1.33
  13   0   3    6.21    1.14
  13   0   4   25.86    2.22
   0 -13   4   26.72    2.34
   0 -13   5    7.17    1.32
  13   0   5   11.68    1.63
   0 -13   6    2.75    0.96
  13   0   6    2.42    1.06
   0 -13   7    2.85    1.07
  13   0   7    1.92    1.01
   0 -13   8   14.14    1.88
  13   0   8    8.10    1.45
   0 -13   9    5.84    1.34
  13   0   9    7.26    1.56
   0 -13  10    4.55    1.13
  13   0  10    5.15    1.26
  13   1  -5   16.78    1.30
  13   1  -4    3.07    0.74
  13   1  -3   20.93    1.60
  13   1  -2   20.66    1.68
  13   1  -1   55.76    2.82
  13   1   0   58.95    3.05
  13   1   1   60.54    3.13
   1 -13   1   53.85    3.30
   1 -13   2   20.44    2.03
  13   1   2   23.34    2.00
   1 -13   3   19.05    2.04
  13   1   3   17.47    1.81
   1 -13   4    2.56    0.92
  13   1   4    2.51    0.80
   1 -13   5   16.12    1.85
  13   1   5   10.62    1.58
   1 -13   6    9.04    1.52
  13   1   6   11.86    1.61
  13   1   7   15.05    1.84
   1 -13   7   18.73    2.07
   1 -13   8   19.78    2.13
  13   1   8   19.20    2.17
  13   1   9   23.17    2.38
   1 -13   9   26.58    2.49
   1 -13  10    2.66    1.05
  13   1  10   -1.40    0.96
  13   2  -5    5.94    0.83
  13   2  -4   17.84    1.45
   2 -13   0   -0.63    1.02
   2 -13   1    2.03    1.06
   2 -13   2   32.97    2.63
   2 -13   3    6.05    1.27
   2 -13   4   16.60    1.98
   2 -13   5    5.29    1.24
   2 -13   6   12.81    1.76
   2 -13   7    2.62    1.06
  13   2   7    2.29    0.94
   2 -13   8    1.92    0.93
  13   2   8    0.40    0.68
   2 -13   9    4.97    1.26
  13   2   9    4.44    1.34
   3 -13  -1    7.75    1.32
   3 -13   0   23.10    2.18
   3 -13   1    9.69    1.52
   3 -13   2   68.08    3.78
   3 -13   3   45.53    3.10
   3 -13   4   18.46    2.10
   3 -13   5   21.52    2.20
   3 -13   6    4.55    1.15
   3 -13   7    6.21    1.34
   3 -13   8    0.47    0.70
  13   3   9    1.41    0.92
   3 -13   9    1.58    0.74
   4 -13  -2   27.39    2.33
   4 -13  -1    3.91    1.10
   4 -13   0    0.18    0.71
   4 -13   1    2.71    1.02
   4 -13   2   30.09    2.55
   4 -13   3    7.05    1.31
   4 -13   4   17.05    1.94
   4 -13   5    1.57    0.89
   4 -13   6    9.15    1.68
   4 -13   7   13.03    1.87
   4 -13   8   -0.75    0.90
   4 -13   9   11.24    1.74
   5 -13  -3   29.11    2.42
   5 -13  -2    3.93    1.09
   5 -13  -1   17.07    1.95
   5 -13   0   17.29    1.97
   5 -13   1   19.75    2.09
   5 -13   2    3.77    1.07
   5 -13   3   25.70    2.42
   5 -13   4   -0.77    0.97
   5 -13   5   13.89    1.85
   5 -13   6    4.90    1.39
   5 -13   7    1.14    0.94
   5 -13   8   21.50    2.35
   5 -13   9   27.59    2.66
   6 -13  -3    3.01    1.07
   6 -13  -2    0.83    0.90
   6 -13  -1   71.27    3.89
   6 -13   0    2.22    1.08
   6 -13   1   73.59    4.04
   6 -13   2   -0.39    0.86
   6 -13   3    2.74    1.01
   6 -13   4    8.45    1.52
   6 -13   5    3.15    1.14
   6 -13   6   24.96    2.45
   6 -13   7    0.98    0.82
   6 -13   8    1.53    1.12
   7 -13  -4    2.97    0.91
   7 -13  -3    4.24    1.13
   7 -13  -2    8.51    1.51
   7 -13  -1    0.85    0.80
   7 -13   0   16.57    1.93
   7 -13   1    3.99    1.29
   7 -13   2    5.79    1.30
   7 -13   3    3.91    1.24
   7 -13   4    1.40    0.96
   7 -13   5   20.39    2.25
   7 -13   6   12.40    1.85
   7 -13   7   -0.21    0.95
   7 -13   8   11.89    1.93
   8 -13  -4    4.39    1.05
   8 -13  -3   14.80    1.83
   8 -13  -2    3.62    1.03
   8 -13  -1   48.68    3.26
   8 -13   0    1.02    0.87
   8 -13   1   44.47    3.14
   8 -13   2    4.01    1.30
   8 -13   3   17.28    2.13
   8 -13   4    4.23    1.17
   8 -13   5    8.47    1.60
   8 -13   6    0.76    1.01
   8 -13   7    2.72    1.08
   9 -13  -5    1.52    0.83
   9 -13  -4    1.42    0.93
   9 -13  -3   -1.55    0.94
   9 -13  -2    7.34    1.38
   9 -13  -1    0.86    0.84
   9 -13   0   79.65    4.29
   9 -13   1    1.91    1.13
   9 -13   2    8.15    1.60
   9 -13   3   -1.03    1.01
   9 -13   4    0.65    0.95
   9 -13   5    4.45    1.39
   9 -13   6   70.12    4.30
  10 -13  -5   15.99    1.88
  10 -13  -4    5.11    1.22
  10 -13  -3   14.19    1.93
  10 -13  -2    1.33    0.84
  10 -13  -1   25.25    2.43
  10 -13   0    3.30    1.21
  10 -13   1   27.78    2.57
  10 -13   2    1.68    1.02
  10 -13   3   14.12    2.00
  10 -13   4    6.75    1.55
  13  10   5   15.30    1.81
  10 -13   5   20.78    2.39
  11 -13  -4   23.20    2.34
  11 -13  -3    4.80    1.31
  11 -13  -2    0.00    0.89
  11 -13  -1   11.41    1.76
  11 -13   0   10.02    1.66
  11 -13   1    9.60    1.73
  11 -13   2   -0.03    0.88
  11 -13   3    4.66    1.48
  11 -13   4   17.65    2.26
  12 -13  -2   -0.35    0.99
  12 -13  -1   -1.27    1.15
  12 -13   0    4.30    1.19
  12 -13   1    0.65    0.98
  12 -13   2   -0.36    0.98
  14 -11  -1   -0.95    0.93
  14 -11   0    2.03    1.01
  14 -11   1   -0.67    0.99
  14 -10  -3    0.79    0.84
  14 -10  -2    2.19    0.90
  14 -10  -1    1.77    0.95
  14 -10   0   47.36    3.32
  14 -10   1    1.89    1.11
  14 -10   2    2.79    1.09
  14 -10   3    2.29    1.09
  14 -10   4   10.40    1.83
  14  -9  -3    2.38    0.96
  14  -9  -2    4.49    1.17
  14  -9  -1    8.36    1.49
  14  -9   0    2.05    0.91
  14  -9   1    5.47    1.20
  14  -9   2    4.44    1.27
  14  -9   3    2.26    0.93
  14  -9   4    3.82    1.24
  14  -9   5    1.11    1.22
  14  -8  -3    2.92    0.87
  14  -8  -2   13.63    1.71
  14  -8  -1    4.76    1.17
  14  -8   0   83.01    4.21
  14  -8   1    3.79    1.12
  14  -8   2   10.27    1.69
  14  -8   3    2.56    1.07
  14  -8   4   35.05    2.93
  14  -8   5    9.56    1.80
  14  -8   6   14.27    2.06
  14  -7  -3    0.85    0.82
  14  -7  -2   31.14    2.36
  14  -7  -1    9.00    1.38
  14  -7   0    0.64    0.75
  14  -7   1    7.62    1.45
  14  -7   2   32.14    2.67
  14  -7   3    1.15    0.84
  14  -7   4    2.08    1.04
  14  -7   5    0.83    0.78
  14  -7   6    2.79    1.11
  14  -7   7   -0.34    0.83
  14  -6  -4    3.82    0.83
  14  -6  -3    5.72    1.08
  14  -6  -2   44.53    2.76
  14  -6  -1   35.28    2.49
  14  -6   0    4.20    1.02
  14  -6   1   37.51    2.74
  14  -6   2   45.65    3.09
  14  -6   3    6.29    1.30
  14  -6   4    5.66    1.40
  14  -6   5    7.32    1.43
  14  -6   6    2.20    1.15
  14  -6   7   34.81    2.98
  14  -5  -4   11.25    1.34
  14  -5  -3   16.38    1.62
  14  -5  -2    2.14    0.80
  14  -5  -1   42.45    2.70
  14  -5   0    0.70    0.84
  14  -5   1   40.18    2.75
  14  -5   2    4.64    1.13
  14  -5   3   13.91    1.70
  14  -5   4    9.99    1.65
  14  -5   5    5.37    1.31
  14  -5   6    0.29    0.93
  14  -5   7    8.44    1.54
  14  -5   8    2.06    1.05
  14  -4  -4    4.54    0.90
  14  -4  -3    1.09    0.63
  14  -4  -2    3.97    0.93
  14  -4  -1   10.54    1.37
  14  -4   0    2.92    0.93
  14  -4   1   11.31    1.51
  14  -4   2    1.88    0.95
  14  -4   3    0.30    0.78
  14  -4   4    2.91    1.06
  14  -4   5   14.80    1.88
  14  -4   6    1.62    1.04
  14  -4   7    9.40    1.57
  14  -4   8   23.94    2.49
  14  -3  -4    0.24    0.50
  14  -3  -3   18.83    1.64
  14  -3  -2    2.36    0.75
  14  -3  -1    2.28    0.87
  14  -3   0    1.43    0.80
  14  -3   1    2.23    0.87
  14  -3   2    1.53    0.82
  14  -3   3   15.36    1.82
  14  -3   4    0.34    0.84
  14  -3   5    9.13    1.58
  14  -3   6    0.29    0.81
  14  -3   7   -0.46    0.85
  14  -3   8    3.45    1.12
  14  -2  -4   10.24    1.18
  14  -2  -3   22.55    1.75
  14  -2  -2   24.92    1.90
  14  -2  -1   21.82    1.84
  14  -2   0    4.63    1.08
  14  -2   1   19.54    1.89
  14  -2   2   23.44    2.06
  14  -2   3   27.16    2.36
  14  -2   4    8.95    1.60
  14  -2   5    4.25    1.21
  14  -2   6    2.11    0.95
  14  -2   7   10.23    1.61
  14  -2   8    4.95    1.30
  14  -2   9   -0.69    0.74
  14  -1  -4    5.30    0.88
  14  -1  -3    8.25    1.15
  14  -1  -2   11.59    1.31
  14  -1  -1   32.94    2.24
  14  -1   0    3.14    0.93
  14  -1   1   34.09    2.43
  14  -1   2    8.64    1.35
  14  -1   3    5.85    1.12
  14  -1   4    6.48    1.36
  14  -1   5    6.71    1.31
  14  -1   6   -0.08    0.95
  14  -1   7   17.91    2.12
  -1 -14   7   16.32    1.99
  14  -1   8    4.55    1.32
  -1 -14   8    3.42    1.12
  14  -1   9    7.60    1.55
  -1 -14   9   11.13    1.68
  14   0  -4  101.94    3.71
  14   0  -3    1.68    0.65
  14   0  -2    1.52    0.55
  14   0  -1   17.27    1.66
  14   0   0    0.55    0.67
  14   0   1   14.28    1.57
  14   0   2    3.80    1.08
  14   0   3    0.54    0.70
  14   0   4   93.20    4.46
   0 -14   4   96.47    4.66
   0 -14   5   12.72    1.79
  14   0   5   12.53    1.72
   0 -14   6    7.03    1.49
  14   0   6    9.32    1.62
   0 -14   7    1.33    0.85
  14   0   7   -0.20    0.93
   0 -14   8   10.12    1.59
  14   0   8   11.91    1.77
   0 -14   9    0.94    1.01
  14   0   9    1.08    1.08
  14   1  -4    3.30    0.73
  14   1  -3   51.04    2.66
  14   1  -2    2.35    0.81
  14   1  -1    1.93    0.76
  14   1   0    4.04    0.98
  14   1   1    1.45    0.80
  14   1   2    1.11    0.85
   1 -14   2    2.04    0.97
  14   1   3   45.14    2.98
   1 -14   3   46.65    3.16
   1 -14   4    3.95    1.14
  14   1   4    3.88    1.18
  14   1   5   12.92    1.67
   1 -14   5   13.44    1.82
   1 -14   6    3.02    1.10
  14   1   6    2.27    0.93
   1 -14   7   11.71    1.80
  14   1   7    9.53    1.59
  14   1   8    0.84    0.94
   1 -14   8    1.11    0.83
   1 -14   9    4.48    1.21
  14   1   9    2.36    1.06
  14   2  -4   57.12    2.73
  14   2  -3   22.50    1.80
  14   2  -2   -0.10    0.58
   2 -14   1    3.84    1.13
   2 -14   2    1.77    1.20
   2 -14   3   21.05    2.19
   2 -14   4   51.77    3.49
  14   2   5    5.86    1.34
   2 -14   5    5.72    1.26
   2 -14   6   14.13    1.96
  14   2   6   11.36    1.71
   2 -14   7    1.58    0.95
  14   2   7    2.79    1.03
  14   2   8   32.90    2.85
   2 -14   8   35.62    2.94
   2 -14   9    7.80    1.60
  14   2   9    4.85    1.31
   3 -14   0    1.58    0.95
   3 -14   1    1.55    0.87
   3 -14   2   14.93    1.94
   3 -14   3   -0.79    1.03
   3 -14   4    3.83    1.15
   3 -14   5    3.38    1.07
   3 -14   6   26.30    2.55
   3 -14   7    0.00    0.81
   3 -14   8    9.98    1.69
  14   3   8    9.68    1.72
   4 -14  -1    2.69    1.11
   4 -14   0    0.25    0.87
   4 -14   1    4.24    1.16
   4 -14   2    6.44    1.49
   4 -14   3   33.67    2.87
   4 -14   4   12.10    1.75
   4 -14   5   36.07    2.96
   4 -14   6    7.19    1.56
   4 -14   7    3.30    1.28
   4 -14   8   -0.72    0.88
   5 -14  -2    4.72    1.14
   5 -14  -1   13.95    1.89
   5 -14   0    1.04    0.92
   5 -14   1   14.04    1.89
   5 -14   2    5.68    1.37
   5 -14   3    2.90    1.11
   5 -14   4   -1.13    1.06
   5 -14   5    6.82    1.52
   5 -14   6   13.48    1.97
   5 -14   7    1.54    0.79
   5 -14   8    2.01    1.10
   6 -14  -3   17.45    1.97
   6 -14  -2    5.19    1.31
   6 -14  -1    1.12    0.86
   6 -14   0   -0.16    0.81
   6 -14   1    0.23    0.98
   6 -14   2    6.37    1.43
   6 -14   3   18.96    2.19
   6 -14   4   11.63    1.78
   6 -14   5    5.29    1.36
   6 -14   6   22.58    2.43
   6 -14   7    3.37    1.13
   7 -14  -3   14.15    1.84
   7 -14  -2    6.49    1.43
   7 -14  -1   22.16    2.29
   7 -14   0    1.03    0.83
   7 -14   1   22.98    2.39
   7 -14   2    5.46    1.43
   7 -14   3   14.73    2.01
   7 -14   4    2.28    1.25
   7 -14   5    4.26    1.30
   7 -14   6   35.07    3.04
   7 -14   7   -0.73    0.98
   8 -14  -4    0.51    0.76
   8 -14  -3   34.38    2.81
   8 -14  -2   19.43    2.18
   8 -14  -1   -0.04    0.91
   8 -14   0    1.77    0.91
   8 -14   1    0.65    0.97
   8 -14   2   18.95    2.24
   8 -14   3   36.17    2.97
   8 -14   4    1.37    1.08
   8 -14   5   11.61    1.94
   8 -14   6    4.57    1.45
   9 -14  -4    0.99    0.87
   9 -14  -3    5.05    1.37
   9 -14  -2    2.01    1.10
   9 -14  -1    6.65    1.47
   9 -14   0    0.23    0.80
   9 -14   1    6.12    1.44
   9 -14   2    2.17    1.13
   9 -14   3    4.58    1.28
   9 -14   4    2.72    1.13
   9 -14   5    7.71    1.57
  10 -14  -4    4.22    1.23
  10 -14  -3    0.82    0.96
  10 -14  -2    7.26    1.45
  10 -14  -1    1.35    0.93
  10 -14   0   28.84    2.73
  10 -14   1   -1.30    1.11
  10 -14   2    7.77    1.57
  10 -14   3    2.53    1.17
  10 -14   4    5.43    1.59
  11 -14  -1   23.16    2.48
  11 -14   0    3.57    1.27
  11 -14   1   20.88    2.39
  15  -9  -3    2.17    0.99
  15  -9  -2   20.11    2.12
  15  -9  -1   15.78    1.98
  15  -9   0    1.34    0.97
  15  -9   1   17.64    2.17
  15  -9   2   20.65    2.29
  15  -9   3    0.27    0.86
  15  -8  -3    3.77    1.01
  15  -8  -2    6.57    1.28
  15  -8  -1    3.75    1.08
  15  -8   0    4.41    1.23
  15  -8   1    3.53    1.18
  15  -8   2    6.95    1.47
  15  -8   3    3.34    1.07
  15  -8   4    0.95    1.04
  15  -7  -3   31.83    2.44
  15  -7  -2   11.18    1.54
  15  -7  -1    2.14    0.93
  15  -7   0    2.48    1.05
  15  -7   1    2.66    1.01
  15  -7   2   10.53    1.61
  15  -7   3   34.74    2.87
  15  -7   4    3.23    1.17
  15  -7   5    3.60    1.11
  15  -6  -3   -0.41    0.66
  15  -6  -2    1.34    0.85
  15  -6  -1    1.45    0.70
  15  -6   0    1.16    0.85
  15  -6   1    0.52    0.85
  15  -6   2    0.56    0.89
  15  -6   3    0.94    0.99
  15  -6   4    4.93    1.19
  15  -6   5   10.23    1.77
  15  -6   6    5.06    1.28
  15  -5  -3    2.11    0.80
  15  -5  -2   26.01    2.09
  15  -5  -1   -0.89    0.89
  15  -5   0    7.66    1.32
  15  -5   1    0.34    0.78
  15  -5   2   26.70    2.38
  15  -5   3    2.78    1.09
  15  -5   4    8.62    1.53
  15  -5   5    2.48    1.14
  15  -5   6   42.46    3.26
  15  -4  -3    1.44    0.64
  15  -4  -2   17.39    1.75
  15  -4  -1    1.75    0.76
  15  -4   0    0.02    0.81
  15  -4   1    1.90    0.93
  15  -4   2   16.16    1.88
  15  -4   3    1.01    0.95
  15  -4   4   -0.16    0.75
  15  -4   5    3.27    1.09
  15  -4   6    6.78    1.37
  15  -4   7    1.46    1.16
  15  -3  -3    2.31    0.80
  15  -3  -2    3.37    0.94
  15  -3  -1   70.04    3.52
  15  -3   0   -0.59    0.71
  15  -3   1   67.18    3.61
  15  -3   2    5.34    1.19
  15  -3   3    0.79    0.85
  15  -3   4    5.90    1.30
  15  -3   5    8.26    1.46
  15  -3   6    2.02    1.02
  15  -3   7   30.24    2.74
  15  -2  -3   18.29    1.66
  15  -2  -2   24.29    1.98
  15  -2  -1    0.65    0.72
  15  -2   0    1.87    0.90
  15  -2   1   -1.48    0.89
  15  -2   2   20.79    2.00
  15  -2   3   17.86    2.01
  15  -2   4    3.19    1.15
  15  -2   5   17.82    2.05
  15  -2   6    1.15    0.83
  15  -2   7    9.28    1.68
  15  -1  -3   11.75    1.33
  15  -1  -2    4.84    1.03
  15  -1  -1    2.24    0.85
  15  -1   0    1.80    0.81
  15  -1   1    2.14    0.91
  15  -1   2    4.30    1.10
  15  -1   3   14.41    1.78
  15  -1   4   24.70    2.37
  15  -1   5    9.48    1.53
  15  -1   6   11.11    1.78
  15  -1   7    7.20    1.44
  15   0  -3    2.13    0.81
  15   0  -2    3.59    0.93
  15   0  -1   26.41    2.14
  15   0   0   -1.10    0.87
  15   0   1   24.64    2.19
  15   0   2    2.49    1.01
  15   0   3    1.60    1.01
  15   0   4    1.09    1.02
  15   0   5    3.49    0.96
   0 -15   5    4.80    1.37
  15   0   6    3.37    1.12
   0 -15   6    3.37    1.20
   0 -15   7   10.96    1.69
  15   0   7   10.87    1.78
   0 -15   8    4.65    1.33
  15   0   8    4.71    1.18
  15   1  -3    1.07    0.61
  15   1  -2   15.86    1.62
  15   1  -1   15.46    1.66
  15   1   0   10.34    1.43
  15   1   1   14.46    1.73
  15   1   2   15.76    1.84
  15   1   3    1.02    1.02
   1 -15   3    0.05    0.75
   1 -15   4    1.54    1.04
  15   1   4    0.27    0.68
   1 -15   5   13.70    1.88
  15   1   5   14.07    1.86
   1 -15   6    0.69    0.91
  15   1   6   -1.29    1.12
   1 -15   7    2.51    1.13
  15   1   7    1.37    0.99
  15   2  -3    4.50    0.95
  15   2  -2    4.34    0.92
  15   2  -1    2.18    0.86
  15   2   0    6.02    1.22
  15   2   1    2.88    0.97
   2 -15   1    3.11    1.10
   2 -15   2    3.57    1.11
  15   2   2    5.97    1.32
   2 -15   3    3.19    1.04
  15   2   3    4.58    1.08
   2 -15   4   14.25    2.02
  15   2   4   13.37    1.83
   2 -15   5   16.62    2.13
  15   2   5   14.24    1.90
   2 -15   6   12.03    1.89
  15   2   6   16.05    2.02
   2 -15   7    6.31    1.48
  15   2   7    3.09    1.22
  15   3  -4   17.00    1.57
   3 -15   0    7.90    1.48
   3 -15   1    3.37    1.10
   3 -15   2   17.23    2.05
   3 -15   3    5.84    1.34
   3 -15   4   15.16    2.05
   3 -15   5   15.29    2.11
  15   3   6    1.38    0.89
   3 -15   6    2.32    1.16
   3 -15   7    0.05    0.84
  15   3   7    0.17    0.94
   4 -15  -1   41.20    3.13
   4 -15   0   -0.13    0.90
   4 -15   1   41.61    3.20
   4 -15   2    2.98    1.19
   4 -15   3    2.60    1.14
   4 -15   4    6.64    1.43
   4 -15   5    4.16    1.24
   4 -15   6    2.46    1.08
   4 -15   7   14.05    1.99
   5 -15  -2   21.95    2.38
   5 -15  -1    2.92    1.22
   5 -15   0   57.54    3.81
   5 -15   1   -1.11    1.06
   5 -15   2   29.15    2.77
   5 -15   3    0.28    0.83
   5 -15   4    0.84    1.06
   5 -15   5    0.52    1.04
   5 -15   6   63.83    4.20
   6 -15  -2    5.79    1.40
   6 -15  -1   11.91    1.88
   6 -15   0    0.83    1.01
   6 -15   1   11.19    1.89
   6 -15   2    7.88    1.63
   6 -15   3    2.02    1.32
   6 -15   4    1.24    1.16
   6 -15   5    1.01    1.02
   6 -15   6    1.04    0.99
   7 -15  -3   33.93    2.92
   7 -15  -2    0.65    0.91
   7 -15  -1   12.15    1.91
   7 -15   0    6.29    1.62
   7 -15   1   13.71    2.01
   7 -15   2    1.93    1.18
   7 -15   3   35.59    3.11
   7 -15   4    4.48    1.18
   7 -15   5   34.26    3.08
   8 -15  -3    1.90    1.18
   8 -15  -2    1.08    1.08
   8 -15  -1    2.57    1.32
   8 -15   0    3.60    1.19
   8 -15   1    1.20    1.10
   8 -15   2    1.15    1.09
   8 -15   3    2.60    0.98
   8 -15   4    8.53    1.76
   9 -15  -3    4.36    1.29
   9 -15  -2   26.31    2.66
   9 -15  -1    6.27    1.58
   9 -15   0   32.67    2.97
   9 -15   1    2.78    1.06
   9 -15   2   27.50    2.77
   9 -15   3    5.80    1.64
  16  -7  -2   11.82    1.65
  16  -7  -1   15.08    1.85
  16  -7   0    2.81    1.11
  16  -7   1   16.37    1.96
  16  -7   2   14.69    2.00
  16  -7   3    1.89    1.06
  16  -6  -2   19.80    1.98
  16  -6  -1    1.27    0.75
  16  -6   0   13.16    1.72
  16  -6   1    0.24    0.78
  16  -6   2   22.05    2.29
  16  -6   3    3.69    1.27
  16  -6   4   17.48    2.19
  16  -5  -2    0.35    0.67
  16  -5  -1   18.95    1.96
  16  -5   0    1.69    0.87
  16  -5   1   17.25    1.97
  16  -5   2    1.06    0.81
  16  -5   3    3.62    1.14
  16  -5   4    6.21    1.46
  16  -5   5    3.88    1.28
  16  -4  -3   12.31    1.49
  16  -4  -2    4.12    1.00
  16  -4  -1    5.48    1.12
  16  -4   0   10.86    1.56
  16  -4   1    4.74    1.17
  16  -4   2    5.46    1.26
  16  -4   3   11.28    1.77
  16  -4   4   31.52    2.73
  16  -4   5    4.97    1.38
  16  -3  -3    8.15    1.24
  16  -3  -2   12.41    1.53
  16  -3  -1    6.28    1.22
  16  -3   0    4.48    1.19
  16  -3   1    5.10    1.18
  16  -3   2   14.36    1.78
  16  -3   3    8.25    1.49
  16  -3   4    0.93    0.77
  16  -3   5    2.62    1.09
  16  -3   6   19.48    2.30
  16  -2  -3    6.13    1.11
  16  -2  -2    0.62    0.61
  16  -2  -1    1.96    0.91
  16  -2   0  104.19    4.59
  16  -2   1   -0.38    0.82
  16  -2   2    1.04    0.71
  16  -2   3    5.65    1.32
  16  -2   4   35.18    2.85
  16  -2   5    3.16    1.23
  16  -2   6   12.92    1.81
  16  -1  -3    4.13    0.95
  16  -1  -2    0.30    0.66
  16  -1  -1    8.56    1.35
  16  -1   0    0.37    0.79
  16  -1   1    8.01    1.35
  16  -1   2   -0.10    0.69
  16  -1   3    4.10    1.10
  16  -1   4    7.48    1.52
  16  -1   5   -0.44    0.70
  16  -1   6   10.24    1.75
  16   0  -3    8.82    1.24
  16   0  -2   23.61    2.01
  16   0  -1   25.28    2.16
  16   0   0   17.93    1.88
  16   0   1   23.43    2.23
  16   0   2   20.14    2.08
  16   0   3    8.36    1.43
  16   0   4    0.92    0.96
  16   0   5    7.26    1.42
  16   0   6    2.28    1.05
  16   1  -3   18.74    1.75
  16   1  -2   18.07    1.80
  16   1  -1   19.69    1.96
  16   1   0   -0.09    0.71
  16   1   1   17.07    1.96
  16   1   2   20.58    2.17
  16   1   3   20.50    2.18
  16   1   4    3.20    1.15
   1 -16   4    5.04    1.38
   1 -16   5   12.50    1.92
  16   1   5   15.45    2.01
   1 -16   6   -0.74    1.07
  16   1   6   -0.84    0.83
  16   2  -3   19.84    1.86
  16   2  -2   30.40    2.31
  16   2  -1    6.59    1.22
  16   2   0   13.80    1.67
  16   2   1    4.54    1.15
  16   2   2   34.97    2.74
   2 -16   2   30.35    2.82
   2 -16   3   21.76    2.48
  16   2   3   18.60    2.08
   2 -16   4    3.28    1.06
  16   2   4    3.07    1.13
  16   2   5    4.16    1.18
   2 -16   5    4.98    1.41
   2 -16   6    7.01    1.48
  16   2   6    5.21    1.33
  16   3  -3   15.30    1.64
  16   3  -2    1.82    0.67
   3 -16   1    0.26    0.90
   3 -16   2    5.10    1.39
   3 -16   3   17.05    2.29
   3 -16   4    2.63    1.00
  16   3   4    3.68    1.15
   3 -16   5   19.96    2.40
  16   3   5   21.96    2.40
   3 -16   6    2.25    1.14
  16   3   6   -0.01    0.83
   4 -16   0   18.60    2.26
   4 -16   1    5.87    1.41
   4 -16   2   16.63    2.19
   4 -16   3    6.59    1.45
   4 -16   4   10.63    1.90
   4 -16   5    2.81    1.40
   5 -16  -1    1.49    0.96
   5 -16   0    0.39    1.06
   5 -16   1    1.88    1.07
   5 -16   2   -1.16    1.26
   5 -16   3   17.75    2.30
   5 -16   4    4.51    1.48
   5 -16   5   23.38    2.69
   6 -16  -2    1.94    1.11
   6 -16  -1    8.17    1.64
   6 -16   0   37.62    3.19
   6 -16   1   12.84    2.03
   6 -16   2    2.56    1.08
   6 -16   3   -0.26    1.02
   6 -16   4    3.45    1.17
   7 -16  -2    0.72    1.06
   7 -16  -1    8.93    1.66
   7 -16   0    2.81    1.09
   7 -16   1   13.01    2.08
   7 -16   2    3.31    1.38
   7 -16   3   19.80    2.57
  17  -5  -1    4.38    1.25
  17  -5   0    2.41    1.02
  17  -5   1    4.02    1.08
  17  -4  -2    4.84    1.11
  17  -4  -1   14.34    1.76
  17  -4   0    4.55    1.20
  17  -4   1   11.72    1.69
  17  -4   2    5.37    1.19
  17  -4   3    1.12    0.87
  17  -3  -2    9.75    1.46
  17  -3  -1    3.92    1.04
  17  -3   0    7.47    1.43
  17  -3   1    6.32    1.32
  17  -3   2    6.76    1.38
  17  -3   3    8.24    1.62
  17  -2  -2    5.92    1.17
  17  -2  -1    2.37    0.83
  17  -2   0    0.54    0.84
  17  -2   1    3.42    1.05
  17  -2   2    8.10    1.54
  17  -2   3   13.24    1.86
  17  -2   4    4.98    1.45
  17  -1  -2   24.09    2.10
  17  -1  -1    1.63    0.85
  17  -1   0   15.62    1.87
  17  -1   1    1.29    1.02
  17  -1   2   23.59    2.37
  17  -1   3   -0.16    0.80
  17  -1   4    2.38    1.03
  17   0  -2    1.50    0.80
  17   0  -1    9.53    1.47
  17   0   0    0.27    0.79
  17   0   1    6.00    1.27
  17   0   2    0.05    0.72
  17   0   3    4.36    1.25
  17   0   4    7.17    1.55
  17   1  -2   21.69    1.99
  17   1  -1   13.49    1.62
  17   1   0   16.05    1.84
  17   1   1   12.61    1.74
  17   1   2   20.05    2.19
  17   1   3    2.31    1.04
  17   1   4    6.84    1.49
  17   2  -2   21.50    2.07
  17   2  -1    2.40    1.02
  17   2   0    0.11    0.77
  17   2   1    3.19    1.04
  17   2   2   18.31    2.08
  17   2   3    1.83    0.88
  17   2   4    5.57    1.31
   2 -17   4    6.60    1.45
  17   3  -2    0.73    0.76
  17   3  -1   12.16    1.63
  17   3   0    0.67    0.86
  17   3   1    9.03    1.56
  17   3   2    1.08    0.92
   3 -17   2    0.53    1.07
  17   3   3   37.40    2.99
   3 -17   3   40.14    3.36
   4 -17   1   19.73    2.37
   4 -17   2    6.25    1.50
   4 -17   3    1.96    1.17
   5 -17   0   49.41    3.76
   5 -17   1   -0.25    0.99
   0   0   0    0.00    0.00
;
_shelx_hkl_checksum              17188
loop_
_space_group_symop_operation_xyz
'x, y, z'
'-x, -y, z'
'-y, x, z+1/2'
'y, -x, z+1/2'
loop_
_atom_site_label
_atom_site_type_symbol
_atom_site_fract_x
_atom_site_fract_y
_atom_site_fract_z
_atom_site_U_iso_or_equiv
_atom_site_adp_type
_atom_site_occupancy
_atom_site_site_symmetry_order
_atom_site_calc_flag
_atom_site_refinement_flags_posn
_atom_site_refinement_flags_adp
_atom_site_refinement_flags_occupancy
I5 I 0.90304(12) 0.69372(12) -1.47626(14) 0.0275(4) Uani 1 1 d . . .
I6 I 0.92634(12) 0.64244(12) -1.84455(13) 0.0288(4) Uani 1 1 d . . .
I3 I 0.69406(13) 0.61369(13) -1.22928(13) 0.0283(4) Uani 1 1 d . . .
I4 I 0.80938(13) 0.88428(13) -1.70195(13) 0.0288(4) Uani 1 1 d . . .
I2 I 0.59816(11) 0.80493(12) -1.46647(13) 0.0264(4) Uani 1 1 d . . .
I1 I 0.56385(11) 0.86294(12) -1.11797(13) 0.0265(4) Uani 1 1 d . . .
Cu8 Cu 0.5000 0.5000 -1.7801(3) 0.0224(9) Uani 1 2 d S T P
Cu1 Cu 1.0000 1.0000 -1.1560(3) 0.0278(11) Uani 1 2 d S T P
Cu5 Cu 0.8256(2) 0.7076(2) -1.6764(3) 0.0351(9) Uani 1 1 d . . .
Cu2 Cu 0.6766(3) 0.7871(2) -1.2657(3) 0.0354(9) Uani 1 1 d . . .
Cu4 Cu 0.7663(3) 0.8448(3) -1.5090(3) 0.0486(12) Uani 1 1 d . . .
Cu3 Cu 0.7334(3) 0.6563(3) -1.4252(3) 0.0441(11) Uani 1 1 d . . .
Cu7 Cu 1.0763(4) 0.5393(4) -1.8178(5) 0.0863(17) Uani 1 1 d . . .
Cu6 Cu 0.9616(3) 0.5859(3) -1.6423(4) 0.0645(12) Uani 1 1 d . . .
N3 N 0.9136(14) 0.9438(14) -1.2529(15) 0.0196(17) Uani 1 1 d . . .
N8 N 0.5923(13) 0.5506(13) -1.6812(15) 0.019(4) Uani 1 1 d . . .
N4 N 0.8884(14) 0.9487(14) -1.3591(17) 0.021(5) Uani 1 1 d . . .
N9 N 0.6117(16) 0.5526(14) -1.5741(16) 0.023(5) Uani 1 1 d . . .
N11 N 0.7139(13) 0.6315(13) -1.6608(15) 0.0196(17) Uani 1 1 d . . .
N6 N 0.7923(14) 0.8581(14) -1.2723(15) 0.0196(17) Uani 1 1 d . . .
N10 N 0.6822(13) 0.6024(13) -1.5659(16) 0.015(4) Uani 1 1 d . . .
N5 N 0.8173(16) 0.8976(16) -1.3701(17) 0.031(6) Uani 1 1 d . . .
C5 C 0.8539(14) 0.8880(15) -1.2037(17) 0.017(5) Uani 1 1 d . . .
C7 C 0.6560(14) 0.6059(14) -1.8552(18) 0.0196(17) Uani 1 1 d . . .
H7A H 0.7157 0.5907 -1.8839 0.024 Uiso 1 1 calc R U .
N2 N 0.9238(13) 0.9435(15) -1.0436(17) 0.022(5) Uani 1 1 d . . .
H2D H 0.9192 0.9623 -0.9772 0.027 Uiso 1 1 calc R U .
N1 N 0.0000 0.5000 -1.221(3) 0.035(6) Uani 1 2 d S T P
C2 C -0.038(2) 0.574(2) -1.153(3) 0.065(11) Uani 1 1 d . . .
H2A H -0.0622 0.6199 -1.1998 0.097 Uiso 1 1 calc R U .
H2B H -0.0857 0.5504 -1.1074 0.097 Uiso 1 1 calc R U .
H2C H 0.0081 0.5990 -1.1074 0.097 Uiso 1 1 calc R U .
C1 C 0.0720(18) 0.540(2) -1.290(3) 0.044(8) Uani 1 1 d . . .
H1A H 0.0470 0.5877 -1.3341 0.066 Uiso 1 1 calc R U .
H1B H 0.1190 0.5638 -1.2448 0.066 Uiso 1 1 calc R U .
H1C H 0.0965 0.4945 -1.3377 0.066 Uiso 1 1 calc R U .
C4 C 0.8739(14) 0.8626(13) -1.0892(17) 0.018(5) Uani 1 1 d . . .
H4A H 0.9166 0.8122 -1.0914 0.021 Uiso 1 1 calc R U .
C8 C 0.6565(17) 0.5974(17) -1.7335(19) 0.0196(17) Uani 1 1 d . . .
C3 C 0.7938(15) 0.8328(17) -1.0209(19) 0.033(6) Uani 1 1 d . . .
H3A H 0.8137 0.8178 -0.9483 0.050 Uiso 1 1 calc R U .
H3B H 0.7506 0.8808 -1.0171 0.050 Uiso 1 1 calc R U .
H3C H 0.7664 0.7809 -1.0540 0.050 Uiso 1 1 calc R U .
C6 C 0.6321(13) 0.7003(13) -1.8882(17) 0.0196(17) Uani 1 1 d . . .
H6A H 0.6766 0.7413 -1.8605 0.029 Uiso 1 1 calc R U .
H6B H 0.6302 0.7044 -1.9667 0.029 Uiso 1 1 calc R U .
H6C H 0.5742 0.7157 -1.8587 0.029 Uiso 1 1 calc R U .
N7 N 0.5902(14) 0.5408(15) -1.8955(16) 0.026(5) Uani 1 1 d . . .
H7B H 0.5896 0.5214 -1.9618 0.031 Uiso 1 1 calc R U .
loop_
_atom_site_aniso_label
_atom_site_aniso_U_11
_atom_site_aniso_U_22
_atom_site_aniso_U_33
_atom_site_aniso_U_23
_atom_site_aniso_U_13
_atom_site_aniso_U_12
I5 0.0241(10) 0.0300(10) 0.0283(9) -0.0021(8) -0.0037(8) 0.0021(8)
I6 0.0272(9) 0.0303(9) 0.0288(8) 0.0029(8) 0.0030(7) 0.0020(7)
I3 0.0323(10) 0.0232(9) 0.0293(9) 0.0027(8) 0.0033(8) -0.0008(7)
I4 0.0374(11) 0.0254(9) 0.0236(8) 0.0005(8) 0.0027(8) -0.0048(7)
I2 0.0243(10) 0.0258(10) 0.0292(9) -0.0004(8) -0.0014(8) 0.0007(7)
I1 0.0216(8) 0.0277(9) 0.0301(8) 0.0044(8) 0.0002(7) 0.0042(6)
Cu8 0.022(2) 0.027(3) 0.0185(19) 0.000 0.000 -0.014(2)
Cu1 0.022(3) 0.045(3) 0.016(2) 0.000 0.000 -0.017(2)
Cu5 0.032(2) 0.037(2) 0.037(2) 0.0022(17) -0.0001(17) -0.0127(16)
Cu2 0.032(2) 0.033(2) 0.041(2) -0.0004(17) 0.0018(17) -0.0126(16)
Cu4 0.046(3) 0.079(3) 0.0204(17) -0.0044(19) -0.0033(16) -0.026(2)
Cu3 0.052(3) 0.059(3) 0.0221(17) -0.0051(18) -0.0008(17) -0.024(2)
Cu7 0.095(4) 0.086(4) 0.077(4) 0.005(3) 0.002(3) 0.012(3)
Cu6 0.056(3) 0.068(3) 0.069(3) 0.000(3) 0.002(3) 0.014(2)
N3 0.020(4) 0.023(4) 0.017(4) -0.002(3) 0.005(3) -0.004(3)
N8 0.024(10) 0.017(9) 0.015(9) -0.003(8) -0.001(8) 0.006(7)
N4 0.022(11) 0.018(11) 0.024(11) -0.002(9) -0.005(10) -0.010(9)
N9 0.039(14) 0.014(11) 0.015(10) -0.005(9) -0.001(10) -0.004(10)
N11 0.020(4) 0.023(4) 0.017(4) -0.002(3) 0.005(3) -0.004(3)
N6 0.020(4) 0.023(4) 0.017(4) -0.002(3) 0.005(3) -0.004(3)
N10 0.011(10) 0.014(10) 0.022(10) -0.002(9) -0.006(8) 0.001(8)
N5 0.037(14) 0.040(15) 0.016(11) 0.015(10) 0.007(10) -0.009(11)
C5 0.017(11) 0.026(12) 0.009(9) -0.008(9) 0.000(9) -0.011(9)
C7 0.020(4) 0.023(4) 0.017(4) -0.002(3) 0.005(3) -0.004(3)
N2 0.016(10) 0.032(12) 0.019(9) -0.007(9) 0.000(8) -0.014(9)
N1 0.03(2) 0.05(3) 0.020(12) 0.000 0.000 -0.02(2)
C2 0.04(2) 0.07(3) 0.08(3) -0.03(2) 0.02(2) -0.021(18)
C1 0.019(15) 0.06(2) 0.056(19) 0.014(17) 0.002(14) -0.025(14)
C4 0.022(11) 0.005(10) 0.026(11) 0.007(8) -0.003(9) -0.002(8)
C8 0.020(4) 0.023(4) 0.017(4) -0.002(3) 0.005(3) -0.004(3)
C3 0.026(13) 0.048(16) 0.026(13) 0.012(11) -0.002(11) -0.008(11)
C6 0.020(4) 0.023(4) 0.017(4) -0.002(3) 0.005(3) -0.004(3)
N7 0.025(11) 0.040(13) 0.013(9) -0.006(9) -0.004(9) -0.017(9)
loop_
_atom_type_symbol
_atom_type_description
_atom_type_scat_dispersion_real
_atom_type_scat_dispersion_imag
_atom_type_scat_source
C C 0.0033 0.0016 'International Tables Vol C Tables 4.2.6.8 and 6.1.1.4'
H H 0.0000 0.0000 'International Tables Vol C Tables 4.2.6.8 and 6.1.1.4'
N N 0.0061 0.0033 'International Tables Vol C Tables 4.2.6.8 and 6.1.1.4'
Cu Cu 0.3201 1.2651 'International Tables Vol C Tables 4.2.6.8 and 6.1.1.4'
I I -0.4742 1.8119 'International Tables Vol C Tables 4.2.6.8 and 6.1.1.4'
loop_
_geom_angle_atom_site_label_1
_geom_angle_atom_site_label_2
_geom_angle_atom_site_label_3
_geom_angle
_geom_angle_site_symmetry_1
_geom_angle_site_symmetry_3
Cu3 I5 Cu5 79.95(11) . .
Cu3 I5 Cu6 110.77(15) . .
Cu5 I5 Cu6 60.59(14) . .
Cu3 I5 Cu4 63.48(12) . .
Cu5 I5 Cu4 62.84(11) . .
Cu6 I5 Cu4 123.12(14) . .
Cu6 I6 Cu5 61.27(13) . .
Cu6 I6 Cu7 65.05(15) . 2_765
Cu5 I6 Cu7 104.76(16) . 2_765
Cu6 I6 Cu7 63.27(14) . .
Cu5 I6 Cu7 124.03(16) . .
Cu7 I6 Cu7 55.9(3) 2_765 .
Cu3 I3 Cu2 67.62(14) . .
Cu4 I4 Cu5 71.44(14) . .
Cu4 I2 Cu7 107.28(17) . 4_575
Cu4 I2 Cu2 78.06(12) . .
Cu7 I2 Cu2 66.02(17) 4_575 .
Cu4 I2 Cu3 64.21(13) . .
Cu7 I2 Cu3 125.72(17) 4_575 .
Cu2 I2 Cu3 59.74(11) . .
Cu7 I1 Cu6 64.81(16) 4_575 4_575
Cu7 I1 Cu6 66.08(17) 4_575 3_655
Cu6 I1 Cu6 63.32(18) 4_575 3_655
Cu7 I1 Cu2 66.99(17) 4_575 .
Cu6 I1 Cu2 104.99(15) 4_575 .
Cu6 I1 Cu2 131.83(15) 3_655 .
N8 Cu8 N8 104.7(12) 2_665 .
N8 Cu8 N7 173.0(9) 2_665 .
N8 Cu8 N7 81.6(8) . .
N8 Cu8 N7 81.6(8) 2_665 2_665
N8 Cu8 N7 173.0(9) . 2_665
N7 Cu8 N7 92.4(11) . 2_665
N3 Cu1 N3 104.5(11) 2_775 .
N3 Cu1 N2 173.0(9) 2_775 .
N3 Cu1 N2 82.0(8) . .
N3 Cu1 N2 82.0(8) 2_775 2_775
N3 Cu1 N2 173.0(9) . 2_775
N2 Cu1 N2 91.5(12) . 2_775
N11 Cu5 I4 119.4(6) . .
N11 Cu5 I5 102.8(5) . .
I4 Cu5 I5 102.71(13) . .
N11 Cu5 I6 108.9(6) . .
I4 Cu5 I6 108.25(13) . .
I5 Cu5 I6 114.91(14) . .
N11 Cu5 Cu6 102.8(6) . .
I4 Cu5 Cu6 137.47(18) . .
I5 Cu5 Cu6 60.01(14) . .
I6 Cu5 Cu6 58.35(14) . .
N11 Cu5 Cu4 94.2(5) . .
I4 Cu5 Cu4 52.10(11) . .
I5 Cu5 Cu4 64.13(12) . .
I6 Cu5 Cu4 155.89(16) . .
Cu6 Cu5 Cu4 123.83(18) . .
N6 Cu2 I3 115.8(6) . .
N6 Cu2 I1 109.7(6) . .
I3 Cu2 I1 110.84(14) . .
N6 Cu2 I2 106.1(5) . .
I3 Cu2 I2 106.83(13) . .
I1 Cu2 I2 107.14(14) . .
N6 Cu2 Cu3 94.4(6) . .
I3 Cu2 Cu3 54.82(11) . .
I1 Cu2 Cu3 155.97(16) . .
I2 Cu2 Cu3 65.29(12) . .
N6 Cu2 Cu7 102.8(6) . 4_575
I3 Cu2 Cu7 141.26(19) . 4_575
I1 Cu2 Cu7 55.22(14) . 4_575
I2 Cu2 Cu7 56.17(14) . 4_575
Cu3 Cu2 Cu7 121.42(19) . 4_575
N5 Cu4 I4 127.1(6) . .
N5 Cu4 I2 106.2(6) . .
I4 Cu4 I2 118.80(15) . .
N5 Cu4 Cu5 136.3(8) . .
I4 Cu4 Cu5 56.46(11) . .
I2 Cu4 Cu5 105.09(15) . .
N5 Cu4 Cu3 97.8(6) . .
I4 Cu4 Cu3 125.16(15) . .
I2 Cu4 Cu3 64.46(12) . .
Cu5 Cu4 Cu3 69.60(12) . .
N5 Cu4 I5 85.8(7) . .
I4 Cu4 I5 97.21(15) . .
I2 Cu4 I5 116.25(17) . .
Cu5 Cu4 I5 53.04(12) . .
Cu3 Cu4 I5 51.83(10) . .
N10 Cu3 I3 127.5(6) . .
N10 Cu3 I5 103.7(6) . .
I3 Cu3 I5 119.43(15) . .
N10 Cu3 Cu2 136.5(6) . .
I3 Cu3 Cu2 57.56(11) . .
I5 Cu3 Cu2 107.21(15) . .
N10 Cu3 Cu4 97.9(6) . .
I3 Cu3 Cu4 125.93(14) . .
I5 Cu3 Cu4 64.70(12) . .
Cu2 Cu3 Cu4 69.60(12) . .
N10 Cu3 I2 84.2(6) . .
I3 Cu3 I2 100.69(15) . .
I5 Cu3 I2 115.98(15) . .
Cu2 Cu3 I2 54.97(12) . .
Cu4 Cu3 I2 51.33(10) . .
Cu7 Cu7 I1 111.62(15) 2_765 3_754
Cu7 Cu7 I2 137.30(14) 2_765 3_754
I1 Cu7 I2 111.0(2) 3_754 3_754
Cu7 Cu7 I6 62.1(3) 2_765 2_765
I1 Cu7 I6 104.7(2) 3_754 2_765
I2 Cu7 I6 104.6(2) 3_754 2_765
Cu7 Cu7 I6 62.0(2) 2_765 .
I1 Cu7 I6 108.3(2) 3_754 .
I2 Cu7 I6 105.9(2) 3_754 .
I6 Cu7 I6 122.1(2) 2_765 .
Cu7 Cu7 Cu6 64.9(2) 2_765 .
I1 Cu7 Cu6 57.84(13) 3_754 .
I2 Cu7 Cu6 146.3(3) 3_754 .
I6 Cu7 Cu6 109.0(3) 2_765 .
I6 Cu7 Cu6 57.33(17) . .
Cu7 Cu7 Cu6 62.1(2) 2_765 2_765
I1 Cu7 Cu6 57.80(14) 3_754 2_765
I2 Cu7 Cu6 147.2(2) 3_754 2_765
I6 Cu7 Cu6 56.52(16) 2_765 2_765
I6 Cu7 Cu6 106.9(2) . 2_765
Cu6 Cu7 Cu6 58.5(2) . 2_765
Cu7 Cu7 Cu2 158.3(3) 2_765 3_754
I1 Cu7 Cu2 57.79(15) 3_754 3_754
I2 Cu7 Cu2 57.81(15) 3_754 3_754
I6 Cu7 Cu2 136.3(2) 2_765 3_754
I6 Cu7 Cu2 101.5(2) . 3_754
Cu6 Cu7 Cu2 94.69(19) . 3_754
Cu6 Cu7 Cu2 114.7(2) 2_765 3_754
I1 Cu6 I6 109.71(19) 3_754 .
I1 Cu6 I1 115.10(18) 3_754 4_564
I6 Cu6 I1 104.90(19) . 4_564
I1 Cu6 I5 107.68(19) 3_754 .
I6 Cu6 I5 116.25(18) . .
I1 Cu6 I5 103.34(18) 4_564 .
I1 Cu6 Cu5 145.5(2) 3_754 .
I6 Cu6 Cu5 60.39(13) . .
I1 Cu6 Cu5 99.28(18) 4_564 .
I5 Cu6 Cu5 59.40(13) . .
I1 Cu6 Cu6 58.98(17) 3_754 2_765
I6 Cu6 Cu6 111.62(11) . 2_765
I1 Cu6 Cu6 57.70(18) 4_564 2_765
I5 Cu6 Cu6 131.79(11) . 2_765
Cu5 Cu6 Cu6 154.5(3) . 2_765
I1 Cu6 Cu7 57.35(16) 3_754 .
I6 Cu6 Cu7 59.40(14) . .
I1 Cu6 Cu7 102.2(2) 4_564 .
I5 Cu6 Cu7 154.3(2) . .
Cu5 Cu6 Cu7 119.3(2) . .
Cu6 Cu6 Cu7 62.0(2) 2_765 .
I1 Cu6 Cu7 101.3(2) 3_754 2_765
I6 Cu6 Cu7 58.43(14) . 2_765
I1 Cu6 Cu7 56.12(17) 4_564 2_765
I5 Cu6 Cu7 150.1(2) . 2_765
Cu5 Cu6 Cu7 99.64(18) . 2_765
Cu6 Cu6 Cu7 59.5(2) 2_765 2_765
Cu7 Cu6 Cu7 52.9(3) . 2_765
N4 N3 C5 106.1(19) . .
N4 N3 Cu1 138.4(16) . .
C5 N3 Cu1 115.2(14) . .
N9 N8 C8 108(2) . .
N9 N8 Cu8 138.9(17) . .
C8 N8 Cu8 113.5(15) . .
N5 N4 N3 106.9(19) . .
N10 N9 N8 105(2) . .
N10 N11 C8 103.4(19) . .
N10 N11 Cu5 123.9(15) . .
C8 N11 Cu5 132.6(16) . .
C5 N6 N5 102.8(19) . .
C5 N6 Cu2 137.9(16) . .
N5 N6 Cu2 119.0(16) . .
N9 N10 N11 114.1(19) . .
N9 N10 Cu3 126.4(16) . .
N11 N10 Cu3 118.5(14) . .
N4 N5 N6 112(2) . .
N4 N5 Cu4 127.9(16) . .
N6 N5 Cu4 117.5(16) . .
N6 C5 N3 112.2(19) . .
N6 C5 C4 131(2) . .
N3 C5 C4 116.4(18) . .
N7 C7 C8 106.4(18) . .
N7 C7 C6 111.7(18) . .
C8 C7 C6 110.4(18) . .
N7 C7 H7A 109.4 . .
C8 C7 H7A 109.4 . .
C6 C7 H7A 109.4 . .
C4 N2 Cu1 111.2(14) . .
C4 N2 H2D 124.4 . .
Cu1 N2 H2D 124.4 . .
C2 N1 C2 112(4) 2_565 .
C2 N1 C1 107(2) 2_565 2_565
C2 N1 C1 110(2) . 2_565
C2 N1 C1 110(2) 2_565 .
C2 N1 C1 107(2) . .
C1 N1 C1 110(3) 2_565 .
N1 C2 H2A 109.5 . .
N1 C2 H2B 109.5 . .
H2A C2 H2B 109.5 . .
N1 C2 H2C 109.5 . .
H2A C2 H2C 109.5 . .
H2B C2 H2C 109.5 . .
N1 C1 H1A 109.5 . .
N1 C1 H1B 109.5 . .
H1A C1 H1B 109.5 . .
N1 C1 H1C 109.5 . .
H1A C1 H1C 109.5 . .
H1B C1 H1C 109.5 . .
C5 C4 N2 104.1(16) . .
C5 C4 C3 115.9(18) . .
N2 C4 C3 114.2(18) . .
C5 C4 H4A 107.4 . .
N2 C4 H4A 107.4 . .
C3 C4 H4A 107.4 . .
N11 C8 N8 110(2) . .
N11 C8 C7 129(2) . .
N8 C8 C7 121(2) . .
C4 C3 H3A 109.5 . .
C4 C3 H3B 109.5 . .
H3A C3 H3B 109.5 . .
C4 C3 H3C 109.5 . .
H3A C3 H3C 109.5 . .
H3B C3 H3C 109.5 . .
C7 C6 H6A 109.5 . .
C7 C6 H6B 109.5 . .
H6A C6 H6B 109.5 . .
C7 C6 H6C 109.5 . .
H6A C6 H6C 109.5 . .
H6B C6 H6C 109.5 . .
C7 N7 Cu8 113.8(14) . .
C7 N7 H7B 123.1 . .
Cu8 N7 H7B 123.1 . .
loop_
_geom_bond_atom_site_label_1
_geom_bond_atom_site_label_2
_geom_bond_distance
_geom_bond_site_symmetry_2
I5 Cu3 2.653(5) .
I5 Cu5 2.709(4) .
I5 Cu6 2.726(5) .
I5 Cu4 3.051(5) .
I6 Cu6 2.661(5) .
I6 Cu5 2.718(4) .
I6 Cu7 2.718(7) 2_765
I6 Cu7 2.721(6) .
I3 Cu3 2.543(4) .
I3 Cu2 2.626(4) .
I4 Cu4 2.511(4) .
I4 Cu5 2.652(4) .
I2 Cu4 2.618(5) .
I2 Cu7 2.677(7) 4_575
I2 Cu2 2.727(4) .
I2 Cu3 3.026(5) .
I1 Cu7 2.627(6) 4_575
I1 Cu6 2.642(5) 4_575
I1 Cu6 2.678(5) 3_655
I1 Cu2 2.707(4) .
Cu8 N8 1.975(19) 2_665
Cu8 N8 1.975(19) .
Cu8 N7 2.04(2) .
Cu8 N7 2.04(2) 2_665
Cu1 N3 1.93(2) 2_775
Cu1 N3 1.93(2) .
Cu1 N2 1.97(2) .
Cu1 N2 1.97(2) 2_775
Cu5 N11 2.02(2) .
Cu5 Cu6 2.742(6) .
Cu5 Cu4 3.016(6) .
Cu2 N6 2.02(2) .
Cu2 Cu3 2.877(5) .
Cu2 Cu7 2.944(8) 4_575
Cu4 N5 2.02(2) .
Cu4 Cu3 3.019(4) .
Cu3 N10 2.042(19) .
Cu7 Cu7 2.549(13) 2_765
Cu7 I1 2.627(6) 3_754
Cu7 I2 2.677(7) 3_754
Cu7 I6 2.719(7) 2_765
Cu7 Cu6 2.824(7) .
Cu7 Cu6 2.893(7) 2_765
Cu7 Cu2 2.944(8) 3_754
Cu6 I1 2.642(5) 3_754
Cu6 I1 2.678(5) 4_564
Cu6 Cu6 2.792(10) 2_765
Cu6 Cu7 2.893(7) 2_765
N3 N4 1.35(3) .
N3 C5 1.35(3) .
N8 N9 1.34(3) .
N8 C8 1.34(3) .
N4 N5 1.31(3) .
N9 N10 1.29(3) .
N11 N10 1.32(3) .
N11 C8 1.33(3) .
N6 C5 1.32(3) .
N6 N5 1.38(3) .
C5 C4 1.48(3) .
C7 N7 1.46(3) .
C7 C8 1.49(3) .
C7 C6 1.50(3) .
C7 H7A 0.9800 .
N2 C4 1.52(3) .
N2 H2D 0.8600 .
N1 C2 1.49(4) 2_565
N1 C2 1.49(4) .
N1 C1 1.49(3) 2_565
N1 C1 1.49(3) .
C2 H2A 0.9600 .
C2 H2B 0.9600 .
C2 H2C 0.9600 .
C1 H1A 0.9600 .
C1 H1B 0.9600 .
C1 H1C 0.9600 .
C4 C3 1.52(3) .
C4 H4A 0.9800 .
C3 H3A 0.9600 .
C3 H3B 0.9600 .
C3 H3C 0.9600 .
C6 H6A 0.9600 .
C6 H6B 0.9600 .
C6 H6C 0.9600 .
N7 H7B 0.8600 .
