#------------------------------------------------------------------------------
#$Date: 2019-11-23 04:42:05 +0200 (Sat, 23 Nov 2019) $
#$Revision: 232150 $
#$URL: file:///home/coder/svn-repositories/cod/cif/4/34/70/4347062.cif $
#------------------------------------------------------------------------------
#
# This file is available in the Crystallography Open Database (COD),
# http://www.crystallography.net/
#
# All data on this site have been placed in the public domain by the
# contributors.
#
data_4347062
loop_
_publ_author_name
'Bia\/lek, Micha\/l J'
'Latos-Gra\.zy\'nski, Lechos\/law'
_publ_section_title
;
 Palladium(II), Ruthenium(II), and Ruthenium(III) Complexes of
 23-Thiaazuliporphyrin: The Case of Coordination-Induced Contraction.
;
_journal_issue                   4
_journal_name_full               'Inorganic chemistry'
_journal_page_first              1758
_journal_page_last               1769
_journal_paper_doi               10.1021/acs.inorgchem.5b02684
_journal_volume                  55
_journal_year                    2016
_chemical_formula_sum            'C57 H43 Cl9 N2 O Ru S'
_chemical_formula_weight         1224.11
_space_group_crystal_system      monoclinic
_space_group_IT_number           14
_space_group_name_Hall           '-P 2ybc'
_space_group_name_H-M_alt        'P 1 21/c 1'
_atom_sites_solution_hydrogens   geom
_audit_creation_method           SHELXL-2013
_cell_angle_alpha                90
_cell_angle_beta                 99.31(2)
_cell_angle_gamma                90
_cell_formula_units_Z            4
_cell_length_a                   10.995(2)
_cell_length_b                   20.962(4)
_cell_length_c                   23.410(8)
_cell_measurement_reflns_used    8403
_cell_measurement_temperature    100.1(4)
_cell_measurement_theta_max      28.81
_cell_measurement_theta_min      2.70
_cell_volume                     5324(2)
_computing_structure_refinement  'SHELXL-2013 (Sheldrick, 2013)'
_diffrn_ambient_temperature      100.1(4)
_diffrn_detector_area_resol_mean 10.35
_diffrn_measured_fraction_theta_full 0.998
_diffrn_measured_fraction_theta_max 0.999
_diffrn_measurement_device_type  'Xcalibur, Ruby'
_diffrn_measurement_method       '\w scans'
_diffrn_radiation_source         'Enhance (Mo) X-ray Source'
_diffrn_radiation_type           'Mo K\a'
_diffrn_radiation_wavelength     0.7107
_diffrn_reflns_av_R_equivalents  0.0241
_diffrn_reflns_av_unetI/netI     0.0380
_diffrn_reflns_Laue_measured_fraction_full 0.998
_diffrn_reflns_Laue_measured_fraction_max 0.999
_diffrn_reflns_limit_h_max       12
_diffrn_reflns_limit_h_min       -13
_diffrn_reflns_limit_k_max       25
_diffrn_reflns_limit_k_min       -17
_diffrn_reflns_limit_l_max       28
_diffrn_reflns_limit_l_min       -19
_diffrn_reflns_number            23673
_diffrn_reflns_point_group_measured_fraction_full 0.998
_diffrn_reflns_point_group_measured_fraction_max 0.999
_diffrn_reflns_theta_full        26.000
_diffrn_reflns_theta_max         25.998
_diffrn_reflns_theta_min         2.702
_exptl_absorpt_coefficient_mu    0.828
_exptl_absorpt_correction_type   none
_exptl_crystal_colour            'dark gold'
_exptl_crystal_density_diffrn    1.527
_exptl_crystal_description       plate
_exptl_crystal_F_000             2480
_exptl_crystal_size_max          0.200
_exptl_crystal_size_mid          0.050
_exptl_crystal_size_min          0.020
_refine_diff_density_max         1.093
_refine_diff_density_min         -1.224
_refine_diff_density_rms         0.078
_refine_ls_extinction_method     none
_refine_ls_goodness_of_fit_ref   1.018
_refine_ls_hydrogen_treatment    constr
_refine_ls_matrix_type           full
_refine_ls_number_parameters     658
_refine_ls_number_reflns         10465
_refine_ls_number_restraints     0
_refine_ls_restrained_S_all      1.018
_refine_ls_R_factor_all          0.0528
_refine_ls_R_factor_gt           0.0390
_refine_ls_shift/su_max          0.001
_refine_ls_shift/su_mean         0.000
_refine_ls_structure_factor_coef Fsqd
_refine_ls_weighting_details
;
 w=1/[\s^2^(Fo^2^)+(0.0339P)^2^+9.2166P]
 where P=(Fo^2^+2Fc^2^)/3
;
_refine_ls_weighting_scheme      calc
_refine_ls_wR_factor_gt          0.0848
_refine_ls_wR_factor_ref         0.0918
_reflns_Friedel_coverage         0.000
_reflns_number_gt                8552
_reflns_number_total             10465
_reflns_threshold_expression     'I > 2\s(I)'
_cod_data_source_file            ic5b02684_si_002.cif
_cod_data_source_block           '[Ru(SAz)Cl(CO)]'
_cod_original_sg_symbol_H-M      'P 21/c'
_cod_database_code               4347062
_shelx_space_group_comment
;
The symmetry employed for this shelxl refinement is uniquely defined
by the following loop, which should always be used as a source of
symmetry information in preference to the above space-group names.
They are only intended as comments.
;
_shelx_estimated_absorpt_t_min   0.852
_shelx_estimated_absorpt_t_max   0.984
_shelxl_version_number           2013-2
_shelx_res_file
;
TITL Ru-SAz
CELL  0.71073   10.995   20.962   23.410    90.00    99.31    90.00
ZERR        4    0.002    0.004    0.008     0.00     0.02     0.00
LATT   1
SYMM             - X ,    0.50000 + Y ,    0.50000 - Z
SFAC  C  H Cl  N  O Ru  S
UNIT 228 172 36 8 4 4 4
LIST 4
L.S. 10
FMAP 2
PLAN -20
ACTA 52
BOND $H
Temp -173
SIZE 0.20 0.05 0.02
OMIT -3 52
EXYZ C28 C29
EADP C28 C29
CONF
WGHT    0.033900    9.216594
FVAR       0.87521   0.79773
RU1   6    0.445594    0.360731    0.165037    11.00000    0.01503    0.01042 =
         0.01466    0.00028    0.00178    0.00032
CL1   3    0.305056    0.367855    0.237679    11.00000    0.01965    0.01771 =
         0.02010   -0.00133    0.00587   -0.00042
C1    1    0.579233    0.469276    0.235542    11.00000    0.01475    0.01356 =
         0.01908   -0.00124    0.00406    0.00119

C2    1    0.598312    0.537581    0.231774    11.00000    0.01684    0.01545 =
         0.01753   -0.00098    0.00737    0.00161
C2A   1    0.693091    0.572462    0.264519    11.00000    0.01958    0.02019 =
         0.02039   -0.00213    0.00416    0.00018
AFIX  43
H2A   2    0.746756    0.548228    0.292203    11.00000   -1.20000
AFIX   0
C2B   1    0.721460    0.637129    0.263047    11.00000    0.02077    0.02038 =
         0.02436   -0.00575    0.00651   -0.00339
AFIX  43
H2B   2    0.789203    0.650704    0.290848    11.00000   -1.20000
AFIX   0
C2C   1    0.665056    0.684457    0.226863    11.00000    0.02593    0.01414 =
         0.02558   -0.00511    0.01081   -0.00450
AFIX  43
H2C   2    0.696535    0.726429    0.233888    11.00000   -1.20000
AFIX   0

C3    1    0.508498    0.561340    0.183533    11.00000    0.01657    0.01560 =
         0.01881   -0.00072    0.00709    0.00017
C3A   1    0.499970    0.623686    0.162689    11.00000    0.01625    0.01872 =
         0.02328    0.00034    0.00408    0.00043
AFIX  43
H3A   2    0.437373    0.630465    0.130216    11.00000   -1.20000
AFIX   0
C3B   1    0.568366    0.677602    0.181778    11.00000    0.02686    0.01289 =
         0.02800    0.00151    0.01089    0.00061
AFIX  43
H3B   2    0.544918    0.715469    0.160529    11.00000   -1.20000
AFIX   0

C4    1    0.437568    0.506440    0.159043    11.00000    0.01549    0.01410 =
         0.01680   -0.00134    0.00499   -0.00106
C5    1    0.328275    0.506059    0.116964    11.00000    0.01713    0.01565 =
         0.01591    0.00085    0.00433    0.00047
C5A   1    0.264624    0.567383    0.097450    11.00000    0.01504    0.01328 =
         0.01983   -0.00196   -0.00169   -0.00105
C5B   1    0.188295    0.595960    0.131745    11.00000    0.01715    0.01741 =
         0.02194   -0.00287    0.00189   -0.00175
AFIX  43
H5B   2    0.178703    0.577456    0.167793    11.00000   -1.20000
AFIX   0
C5C   1    0.125850    0.651844    0.113107    11.00000    0.01656    0.02061 =
         0.03331   -0.00818    0.00058    0.00232
AFIX  43
H5C   2    0.072561    0.671084    0.136260    11.00000   -1.20000
AFIX   0
C5D   1    0.140821    0.679379    0.061381    11.00000    0.02090    0.01680 =
         0.03370   -0.00164   -0.00536    0.00423
AFIX  43
H5D   2    0.098960    0.717927    0.049316    11.00000   -1.20000
AFIX   0
C5E   1    0.216402    0.651271    0.026892    11.00000    0.03255    0.01846 =
         0.02614    0.00491    0.00012    0.00197
AFIX  43
H5E   2    0.226404    0.670363   -0.008859    11.00000   -1.20000
AFIX   0
C5F   1    0.277985    0.594772    0.044722    11.00000    0.02559    0.01895 =
         0.02111    0.00105    0.00316    0.00467
AFIX  43
H5F   2    0.329102    0.574975    0.020833    11.00000   -1.20000
AFIX   0

C6    1    0.266133    0.451883    0.092489    11.00000    0.01767    0.01516 =
         0.01767    0.00217    0.00395    0.00213
C7    1    0.156682    0.453081    0.049003    11.00000    0.01834    0.01748 =
         0.01953    0.00091    0.00317    0.00184
AFIX  43
H7    2    0.108030    0.489500    0.036654    11.00000   -1.20000
AFIX   0
CL8   3    0.048890    0.595763    0.426466    11.00000    0.06165    0.06375 =
         0.06217   -0.00959    0.02929   -0.01773
C8    1    0.136368    0.393112    0.029224    11.00000    0.01758    0.01898 =
         0.01859    0.00100    0.00083   -0.00076
AFIX  43
H8    2    0.071203    0.379603    0.000018    11.00000   -1.20000
AFIX   0
C9    1    0.231090    0.353136    0.060265    11.00000    0.01760    0.01501 =
         0.01511   -0.00001    0.00343   -0.00136
C10   1    0.248957    0.287297    0.044932    11.00000    0.01745    0.01659 =
         0.01598    0.00077    0.00333   -0.00204
C10A  1    0.192120    0.265632   -0.013783    11.00000    0.01505    0.01715 =
         0.02040   -0.00148    0.00210    0.00236
C10B  1    0.208455    0.299510   -0.063038    11.00000    0.01883    0.01806 =
         0.02356   -0.00107    0.00314   -0.00224
AFIX  43
H10B  2    0.253517    0.338364   -0.059138    11.00000   -1.20000
AFIX   0
C10C  1    0.160033    0.277418   -0.117549    11.00000    0.01976    0.02719 =
         0.01957    0.00148    0.00317    0.00449
AFIX  43
H10C  2    0.172126    0.301469   -0.150565    11.00000   -1.20000
AFIX   0
C10D  1    0.093853    0.220604   -0.125081    11.00000    0.01526    0.02703 =
         0.02415   -0.00788    0.00171    0.00534
C10E  1    0.076421    0.186915   -0.075961    11.00000    0.02032    0.01689 =
         0.03117   -0.00623    0.00047   -0.00163
AFIX  43
H10E  2    0.030396    0.148368   -0.080074    11.00000   -1.20000
AFIX   0
C10F  1    0.125097    0.208590   -0.020922    11.00000    0.02250    0.01775 =
         0.02470   -0.00127    0.00148   -0.00031
AFIX  43
H10F  2    0.112836    0.184562    0.012081    11.00000   -1.20000
AFIX   0
C11   1    0.323478    0.244028    0.078244    11.00000    0.02039    0.01485 =
         0.01716   -0.00228    0.00255   -0.00470
C12   1    0.384090    0.187841    0.062861    11.00000    0.02844    0.01570 =
         0.02060   -0.00369    0.00501   -0.00055
AFIX  43
H12   2    0.360501    0.166258    0.027101    11.00000   -1.20000
AFIX   0
C13   1    0.478473    0.167889    0.103799    11.00000    0.02801    0.01483 =
         0.02140   -0.00158    0.00464    0.00180
AFIX  43
H13   2    0.527049    0.131474    0.098732    11.00000   -1.20000
AFIX   0
C14   1    0.498810    0.206013    0.155031    11.00000    0.01985    0.01108 =
         0.02212    0.00276    0.00550    0.00104
C15   1    0.594927    0.210126    0.200502    11.00000    0.01831    0.01261 =
         0.02044    0.00188    0.00486    0.00016
C15A  1    0.686839    0.157305    0.208797    11.00000    0.01987    0.01409 =
         0.01709    0.00148    0.00659    0.00199
C15B  1    0.647214    0.093908    0.206636    11.00000    0.01853    0.01777 =
         0.01978    0.00113    0.00369   -0.00045
AFIX  43
H15B  2    0.561443    0.084848    0.200942    11.00000   -1.20000
AFIX   0
C15C  1    0.730891    0.044088    0.212656    11.00000    0.02865    0.01522 =
         0.01937   -0.00150    0.00253    0.00215
AFIX  43
H15C  2    0.701885    0.001344    0.211503    11.00000   -1.20000
AFIX   0
C15D  1    0.857142    0.055895    0.220385    11.00000    0.02440    0.02145 =
         0.02146   -0.00071    0.00363    0.00852
C15E  1    0.896649    0.118812    0.223167    11.00000    0.01830    0.02705 =
         0.02850   -0.00040    0.00544    0.00307
AFIX  43
H15E  2    0.982471    0.127763    0.229103    11.00000   -1.20000
AFIX   0
C15F  1    0.812989    0.169004    0.217430    11.00000    0.02028    0.01733 =
         0.02840    0.00007    0.00645   -0.00141
AFIX  43
H15F  2    0.842250    0.211717    0.219424    11.00000   -1.20000
AFIX   0
C16   1    0.617007    0.263819    0.239692    11.00000    0.01440    0.01373 =
         0.02008    0.00253    0.00523    0.00043
C17   1    0.688207    0.258947    0.296342    11.00000    0.01901    0.01745 =
         0.02102    0.00270    0.00401    0.00263
AFIX  43
H17   2    0.723912    0.221079    0.313995    11.00000   -1.20000
AFIX   0
C18   1    0.695685    0.317805    0.320318    11.00000    0.01889    0.01868 =
         0.01744    0.00284    0.00154   -0.00006
AFIX  43
H18   2    0.734972    0.328736    0.358223    11.00000   -1.20000
AFIX   0
C19   1    0.632718    0.360727    0.277409    11.00000    0.01360    0.01644 =
         0.01693   -0.00111    0.00183    0.00062
C20   1    0.633352    0.427382    0.280694    11.00000    0.01348    0.01723 =
         0.01977   -0.00153    0.00351   -0.00091
C20A  1    0.689410    0.454302    0.338206    11.00000    0.02392    0.01134 =
         0.02079    0.00041    0.00038   -0.00071
C20B  1    0.812926    0.446135    0.361082    11.00000    0.02490    0.01880 =
         0.03039   -0.00191   -0.00079    0.00047
AFIX  43
H20B  2    0.865506    0.423636    0.339640    11.00000   -1.20000
AFIX   0
C20C  1    0.859862    0.470739    0.415189    11.00000    0.02965    0.02631 =
         0.03572   -0.00279   -0.01130    0.00037
AFIX  43
H20C  2    0.944629    0.465232    0.430514    11.00000   -1.20000
AFIX   0
C20D  1    0.784051    0.503218    0.446936    11.00000    0.04964    0.02494 =
         0.02136   -0.00548   -0.00784    0.00076
AFIX  43
H20D  2    0.816728    0.520161    0.483876    11.00000   -1.20000
AFIX   0
C20E  1    0.661225    0.510933    0.424903    11.00000    0.04662    0.02004 =
         0.02226   -0.00222    0.00475    0.00443
AFIX  43
H20E  2    0.608782    0.532793    0.446858    11.00000   -1.20000
AFIX   0
C20F  1    0.613848    0.486910    0.370800    11.00000    0.02943    0.01663 =
         0.02148    0.00090    0.00394    0.00231
AFIX  43
H20F  2    0.529028    0.492691    0.355721    11.00000   -1.20000
AFIX   0
C21   1    0.491385    0.450460    0.187005    11.00000    0.01480    0.01483 =
         0.01518   -0.00124    0.00547    0.00131
N22   4    0.305265    0.389376    0.100451    11.00000    0.01771    0.01294 =
         0.01595    0.00018    0.00301    0.00011
C22   1    0.043064    0.196895   -0.184721    11.00000    0.02727    0.03677 =
         0.02515   -0.01103    0.00024    0.00078
AFIX 137
H22A  2    0.068759    0.225567   -0.213615    11.00000   -1.50000
H22B  2   -0.047132    0.195785   -0.189604    11.00000   -1.50000
H22C  2    0.074426    0.153865   -0.189858    11.00000   -1.50000
AFIX   0
S23   7    0.373340    0.257780    0.151548    11.00000    0.01757    0.01197 =
         0.01695   -0.00008    0.00183    0.00017
N23   4    0.580184    0.325576    0.229463    11.00000    0.01527    0.01407 =
         0.01632   -0.00007    0.00287   -0.00027
C23   1    0.947307    0.001465    0.225890    11.00000    0.03252    0.02612 =
         0.04206   -0.00226    0.00515    0.01105
AFIX 137
H23A  2    0.956282   -0.013871    0.187245    11.00000   -1.50000
H23B  2    0.916977   -0.033277    0.247815    11.00000   -1.50000
H23C  2    1.027443    0.016060    0.246197    11.00000   -1.50000
AFIX   0
O24   5    0.606250    0.356218    0.074121    11.00000    0.03223    0.03396 =
         0.02706   -0.00140    0.01314   -0.00226
C24   1    0.547130    0.357390    0.109771    11.00000    0.02088    0.00901 =
         0.02178    0.00108   -0.00466   -0.00233
MOLE 2
C25   1    0.379561    0.366248    0.387931    11.00000    0.04975    0.06367 =
         0.03564   -0.00995    0.00792   -0.02395
AFIX  23
H25A  2    0.316011    0.332359    0.382930    11.00000   -1.20000
H25B  2    0.399783    0.376607    0.349286    11.00000   -1.20000
AFIX   0
CL2   3    0.511749    0.337952    0.432341    11.00000    0.05182    0.08078 =
         0.04389    0.00762    0.01852   -0.00298
CL3   3    0.319446    0.435118    0.417393    11.00000    0.06264    0.05617 =
         0.04946    0.00431    0.02276   -0.00957
MOLE 0
MOLE 3
C26   1    0.262896   -0.004409    0.400221    11.00000    0.03388    0.02950 =
         0.03186   -0.00314    0.00585    0.00458
AFIX  23
H26A  2    0.299422   -0.016254    0.365723    11.00000   -1.20000
H26B  2    0.240052   -0.044306    0.418487    11.00000   -1.20000
AFIX   0
CL4   3    0.374183    0.036344    0.449461    11.00000    0.02690    0.03363 =
         0.03074    0.00266    0.00765    0.00250
CL5   3    0.129503    0.040725    0.378106    11.00000    0.05499    0.05064 =
         0.05721   -0.02305   -0.02565    0.02535
MOLE 0
MOLE 4
C27   1    0.002549    0.350715    0.156902    11.00000    0.02912    0.05082 =
         0.04195    0.01013    0.00645   -0.00986
AFIX  23
H27A  2   -0.000642    0.376340    0.121166    11.00000   -1.20000
H27B  2    0.074112    0.365455    0.185012    11.00000   -1.20000
AFIX   0
CL6   3   -0.134314    0.363267    0.186171    11.00000    0.02471    0.05239 =
         0.04206    0.01938    0.00213    0.00033
CL7   3    0.022629    0.269509    0.140699    11.00000    0.06123    0.06143 =
         0.07490   -0.01639    0.03950   -0.02085
MOLE 0
MOLE 5
PART 1
CL9   3    0.228976    0.693036    0.467257    21.00000    0.07509    0.04954 =
         0.22276   -0.06897   -0.07120    0.02554
C28   1    0.204081    0.621072    0.435171    21.00000    0.06137    0.05650 =
         0.05323   -0.01305    0.02484   -0.01819
AFIX  23
H28A  2    0.256246    0.589014    0.458625    21.00000   -1.20000
H28B  2    0.230109    0.622830    0.396647    21.00000   -1.20000
AFIX   0
PART 2
CL10  3    0.215973    0.672292    0.488166   -21.00000    0.13357    0.23807 =
         0.02306    0.01185    0.02141   -0.07291
C29   1    0.204081    0.621072    0.435171   -21.00000    0.05898    0.05733 =
         0.05406   -0.01048    0.02362   -0.01829
AFIX  23
H29A  2    0.260977    0.584699    0.445173   -21.00000   -1.20000
H29B  2    0.222459    0.641460    0.399385   -21.00000   -1.20000
PART 0
MOLE 0

AFIX   0
HKLF 4

REM  Ru-SAz
REM R1 =  0.0390 for    8552 Fo > 4sig(Fo)  and  0.0528 for all   10465 data
REM    658 parameters refined using      0 restraints

END

WGHT      0.0338      9.2460

REM Highest difference peak  1.093,  deepest hole -1.224,  1-sigma level  0.078
Q1    1  -0.0106  0.6185  0.3994  11.00000  0.05    1.09
Q2    1  -0.0417  0.2906  0.1167  11.00000  0.05    0.85
Q3    1   0.4550  0.3330  0.4019  11.00000  0.05    0.55
Q4    1   0.5209  0.2889  0.4338  11.00000  0.05    0.55
Q5    1   0.2322  0.7008  0.4412  11.00000  0.05    0.54
Q6    1   0.1355  0.6538  0.4989  11.00000  0.05    0.50
Q7    1   0.2582  0.5657  0.4303  11.00000  0.05    0.49
Q8    1   0.1849  0.0506  0.3571  11.00000  0.05    0.46
Q9    1   0.4090  0.4164  0.4299  11.00000  0.05    0.45
Q10   1   0.1598  0.6535  0.4079  11.00000  0.05    0.45
Q11   1   0.3706  0.3619  0.1998  11.00000  0.05    0.43
Q12   1   0.3988  0.3613  0.2102  11.00000  0.05    0.43
Q13   1   0.3923  0.4061  0.4216  11.00000  0.05    0.39
Q14   1   0.4724  0.3614  0.1211  11.00000  0.05    0.39
Q15   1   0.4798  0.5342  0.1681  11.00000  0.05    0.38
Q16   1   0.8508  0.5127  0.4286  11.00000  0.05    0.37
Q17   1   0.5286  0.3662  0.1563  11.00000  0.05    0.35
Q18   1   0.5517  0.5547  0.2094  11.00000  0.05    0.35
Q19   1   0.4086  0.2926  0.1597  11.00000  0.05    0.34
Q20   1   0.3622  0.2546  0.1067  11.00000  0.05    0.34
;
_shelx_res_checksum              28825
_shelx_hkl_file
;
   0   0   4 27716.6 199.255   2
   0   0  -4 27960.5 195.669   2
   0   0  -5 39.2738 23.1734   2
   0   0   5 31.4076 28.1048   2
   0   0   6 15914.6 187.071   2
   0   0  -6 15992.6 183.220   2
   0   0  -7 7.83993 24.7697   2
   0   0   7 65.4727 34.0151   2
   0   0   8 23064.6 257.891   2
   0   0  -8 23586.0 255.202   2
   0   0  -9 70.4400 29.1472   2
   0   0   9 41.1298 35.6383   2
   0   0 -10 21694.6 269.634   2
   0   0  10 21375.1 275.688   2
   0   0 -11 36.5987 34.7576   2
   0   0  11 75.9472 41.6302   2
   0   0 -12 8303.32 185.834   2
   0   0  12 7583.29 182.691   2
   0   0  13 85.2393 42.5909   2
   0   0 -13 30.9243 29.5800   2
   0   0  14 1329.36 90.2715   2
   0   0 -14 1404.06 86.0744   2
   0   0  15 37.3616 41.1251   2
   0   0  16 699.422 73.7715   2
   0   0  17 54.4027 42.9800   2
   0   0  18 10132.2 260.532   2
   0   0  19 19.9874 43.6671   2
   0   0  20 2777.31 148.092   2
   0   0  21 66.4666 54.4165   2
   0   0  22 1603.32 120.835   2
   0   0  23-35.2682 46.0436   2
   0   0  24 74.6105 49.9600   2
   0   0  25 15.4137 49.7888   2
   0   0  26 723.443 97.2842   2
   0   0  27-1.10790 49.6931   2
   0   0  28 2893.66 183.453   2
   0   0  29 11.1710 54.6623   2
   0   1   3 15839.1 145.157   2
   0  -1   4 28897.5 178.839   2
   0  -1  -4 27723.2 221.110   2
   0   1   4 29388.4 222.420   2
   0   1  -4 28878.5 178.693   2
   0  -1  -5 118.825 30.9379   2
   0   1  -5 74.3471 23.7072   2
   0  -1   5 74.7291 23.4587   2
   0   1   5 158.406 35.2696   2
   0  -1  -6 3203.19 90.1436   2
   0   1   6 3243.51 94.3040   2
   0   1  -6 3173.14 77.9219   2
   0  -1   6 3170.50 79.1829   2
   0  -1  -7 41844.2 330.162   2
   0  -1   7 39871.9 296.253   2
   0   1   7 40902.1 336.655   2
   0   1  -7 40844.4 293.992   2
   0   1  -8 4469.93 105.657   2
   0  -1   8 4367.55 108.651   2
   0   1   8 4566.40 124.091   2
   0  -1  -8 4441.89 117.074   2
   0   1  -9 10690.8 171.807   2
   0  -1  -9 10329.3 187.973   2
   0  -1   9 10420.9 173.414   2
   0   1   9 10277.6 192.273   2
   0   1  10 938.593 71.0347   2
   0  -1  10 937.068 62.6597   2
   0  -1 -10 843.233 62.1137   2
   0   1 -10 846.299 57.7535   2
   0  -1 -11 53.4790 35.8193   2
   0  -1  11 11.1627 33.4270   2
   0   1 -11 36.3308 28.9825   2
   0   1  11 14.1612 38.1672   2
   0   1  12 9429.48 212.263   2
   0  -1 -12 9655.85 207.855   2
   0  -1  12 9283.07 193.093   2
   0   1 -12 9422.97 190.073   2
   0  -1 -13 10397.3 224.382   2
   0  -1  13 9975.54 211.541   2
   0   1  13 10336.9 228.632   2
   0   1 -13 10467.9 208.774   2
   0   1  14 18320.7 314.906   2
   0  -1  14 18773.0 299.297   2
   0   1 -14 18728.3 289.280   2
   0  -1  15 18379.5 304.676   2
   0   1  15 18649.0 326.941   2
   0   1  16 2278.21 125.950   2
   0  -1  16 2157.46 112.859   2
   0  -1  17 9693.73 239.068   2
   0   1  17 9316.80 248.240   2
   0  -1  18 3240.19 147.059   2
   0   1  18 3231.80 155.503   2
   0  -1  19 1084.02 92.7721   2
   0   1  19 1115.93 100.683   2
   0   1  20 165.174 57.1780   2
   0  -1  20 168.223 53.9653   2
   0   1  21 1462.83 116.720   2
   0  -1  21 1399.46 110.138   2
   0   1  22 761.439 91.1815   2
   0  -1  22 718.740 84.2129   2
   0  -1  23 444.444 72.7987   2
   0   1  23 148.099 53.4012   2
   0   1  24 2134.55 146.132   2
   0  -1  24 2131.17 141.609   2
   0  -1  25 992.013 104.849   2
   0   1  25 989.356 109.994   2
   0   1  26 1339.41 130.708   2
   0  -1  26 1527.59 128.326   2
   0   1  27 2309.80 165.328   2
   0  -1  27 2363.34 158.522   2
   0   1  28 519.183 89.5105   2
   0  -1  28 462.335 84.1750   2
   0   1  29 127.621 66.0906   2
   0   1  30 75.1120 60.4815   2
   0   2   3 326.517 32.9939   2
   0  -2  -3 314.070 30.6050   2
   0  -2   4 656.239 26.4127   2
   0   2  -4 595.823 25.7789   2
   0  -2  -4 603.126 43.7260   2
   0   2   4 628.136 45.9374   2
   0  -2   5 26910.5 177.280   2
   0   2   5 27659.4 253.388   2
   0   2  -5 26734.9 176.322   2
   0  -2  -5 27633.1 247.904   2
   0   2  -6 35257.0 229.976   2
   0  -2   6 35565.4 231.498   2
   0  -2  -6 36727.8 305.765   2
   0   2   6 36231.8 311.047   2
   0   2  -7 3978.91 87.6562   2
   0  -2  -7 4038.07 111.855   2
   0   2   7 3888.46 117.283   2
   0  -2   7 4062.18 90.6247   2
   0  -2  -8-23.5064 28.6545   2
   0  -2   8 3.18449 24.8386   2
   0   2  -8-17.4435 21.9476   2
   0   2  -9 1728.53 68.2601   2
   0   2   9 1716.25 89.3725   2
   0  -2   9 1588.14 68.2155   2
   0  -2  -9 1556.50 84.2748   2
   0  -2  10 2195.21 84.2940   2
   0  -2 -10 2333.25 100.867   2
   0   2  10 2353.20 105.904   2
   0   2 -10 2164.51 81.7677   2
   0   2 -11 27828.4 296.660   2
   0   2  11 27432.0 353.461   2
   0  -2  11 26496.4 295.256   2
   0  -2 -11 28517.7 348.457   2
   0  -2  12 1599.58 81.8584   2
   0   2  12 1661.63 98.1364   2
   0   2 -12 1691.77 82.1616   2
   0  -2 -12 1730.97 95.2384   2
   0   2  13 20504.7 330.646   2
   0  -2  13 20885.0 289.217   2
   0   2 -13 20831.0 286.670   2
   0  -2  14 1425.25 85.0465   2
   0   2  14 1330.55 96.8208   2
   0  -2  15-22.7347 33.3497   2
   0   2  15 107.892 53.0447   2
   0  -2  16 2.65621 36.4061   2
   0   2  16 76.0371 47.5053   2
   0   2  17 888.393 90.0618   2
   0  -2  17 939.533 82.7765   2
   0  -2  18 239.128 52.6312   2
   0   2  18 258.498 61.5926   2
   0  -2  19 800.893 79.4458   2
   0   2  19 845.876 88.2685   2
   0  -2  20 134.876 49.0489   2
   0   2  20 71.7779 50.0539   2
   0  -2  21 65.1547 46.5702   2
   0   2  21 150.426 61.1474   2
   0  -2  22 3255.51 156.980   2
   0   2  22 3146.10 173.130   2
   0  -2  23 1130.92 101.919   2
   0   2  23 1282.81 117.734   2
   0   2  24 1092.74 113.190   2
   0  -2  24 1002.85 102.590   2
   0   2  25 177.860 65.7025   2
   0  -2  25 16.4192 42.4884   2
   0  -2  26 111.394 57.0510   2
   0   2  26 20.8969 54.1945   2
   0   2  27 247.947 76.7291   2
   0  -2  27 223.946 70.4403   2
   0   2  28 228.433 73.3030   2
   0   2  29 1329.48 133.401   2
   0   2  30 68.5137 60.3927   2
   0   3   0 32.3758 13.9006   2
   0   3   0 27.6826 13.6743   3
   0   3   1 122.755 20.8953   2
   0   3   1 93.1818 19.7173   3
   0   3   1 142.210 26.5222   1
   0  -3  -1 109.949 20.9877   1
   0  -3  -2 2621.42 66.5311   3
   0   3   2 2683.09 67.9845   2
   0  -3  -2 2314.83 66.7843   2
   0  -3  -2 2791.54 64.8465   1
   0   3   3 28933.5 237.065   2
   0  -3  -3 29214.7 235.706   2
   0  -3  -3 29360.8 232.672   3
   0   3   4 5563.02 116.634   2
   0  -3  -4 5951.53 115.885   2
   0  -3  -5 5678.83 121.917   2
   0  -3   5 5729.16 70.4977   2
   0   3  -5 5668.87 70.8963   2
   0   3   5 5164.18 125.874   2
   0   3   6 33157.0 316.083   2
   0   3  -6 32461.2 197.230   2
   0  -3   6 32468.7 198.775   2
   0  -3  -6 33427.6 307.998   2
   0  -3   7 9007.66 120.991   2
   0  -3  -7 9354.17 174.318   2
   0   3   7 8868.83 177.946   2
   0   3  -7 8898.51 118.162   2
   0   3  -8 11009.5 143.587   2
   0  -3  -8 11083.0 198.196   2
   0   3   8 11268.3 207.272   2
   0  -3   8 10893.7 145.049   2
   0  -3  -9 13194.7 238.147   2
   0   3   9 14163.2 245.200   2
   0   3  -9 14424.9 178.401   2
   0  -3   9 13892.2 178.570   2
   0   3  10 2419.16 109.566   2
   0   3 -10 2433.40 81.3739   2
   0  -3  10 2427.44 82.9363   2
   0  -3 -10 2418.82 105.483   2
   0  -3 -11 204.658 43.9609   2
   0   3 -11 235.788 35.7152   2
   0   3  11 233.970 54.9459   2
   0  -3  11 224.612 36.5497   2
   0  -3  12 4510.26 123.855   2
   0   3  12 4508.57 157.449   2
   0  -3  13 9792.75 190.597   2
   0   3  13 10011.7 238.826   2
   0  -3  14 1658.88 87.5170   2
   0   3  14 1485.52 102.766   2
   0   3  15 9450.97 246.048   2
   0  -3  15 9060.64 201.868   2
   0   3  16 1761.62 118.725   2
   0  -3  16 1852.48 99.5947   2
   0   3  17 505.313 76.0610   2
   0  -3  17 499.184 57.6985   2
   0   3  18 4096.53 180.205   2
   0  -3  18 4076.83 152.263   2
   0  -3  19 54.2563 45.2651   2
   0   3  19 11.1509 51.1894   2
   0  -3  20 1588.02 105.280   2
   0   3  20 1467.52 122.334   2
   0  -3  21 1059.51 92.6834   2
   0   3  21 967.695 105.698   2
   0  -3  22 190.266 54.5966   2
   0   3  22 122.511 62.7064   2
   0  -3  23 27.4931 42.5035   2
   0   3  23 19.4114 52.4001   2
   0   3  24 539.302 91.5725   2
   0  -3  24 435.683 71.1827   2
   0   3  25 1386.31 128.871   2
   0  -3  25 1488.80 116.896   2
   0   3  26 124.991 63.6405   2
   0  -3  26 28.9825 45.2228   2
   0   3  27 1191.22 130.642   2
   0   3  28 2376.26 177.471   2
   0   3  29 112.642 68.1096   2
   0   3  30 3.65645 63.1041   2
   0   3  31 581.747 96.5170   2
   0  -4   0 19805.6 153.083   3
   0  -4   0 19256.1 146.230   2
   0   4   0 19301.6 148.163   2
   0   4   0 19857.2 153.927   3
   0  -4  -1 15580.9 150.060   2
   0   4  -1 15808.5 120.278   3
   0  -4  -1 15716.1 154.226   3
   0   4   1 15517.2 155.078   3
   0   4  -1 15969.9 110.818   2
   0   4   1 16076.6 166.676   1
   0  -4   1 15917.3 118.754   3
   0   4   1 15416.4 153.021   2
   0  -4   1 15553.3 107.953   2
   0  -4  -1 16043.6 164.496   1
   0  -4  -2 9985.18 136.645   3
   0   4   2 10112.1 134.865   1
   0  -4  -2 10517.3 135.212   1
   0  -4  -2 10099.2 135.291   2
   0   4   2 9796.72 138.227   2
   0  -4  -3 117.522 27.8939   2
   0  -4  -3 190.977 31.8909   1
   0   4   3 128.614 33.6385   2
   0  -4  -3 122.409 29.2827   3
   0  -4  -4 3161.88 90.2440   2
   0  -4  -4 3120.15 91.1722   3
   0   4   4 2859.25 94.0103   2
   0  -4  -5 1432.33 69.3709   3
   0   4   5 1416.49 73.9733   2
   0  -4  -5 1442.10 69.3086   2
   0   4   6 92.3957 42.0694   2
   0  -4   6 64.1389 14.9214   2
   0  -4  -6 108.010 34.9155   2
   0   4   7 765.447 67.8350   2
   0  -4   7 783.640 33.6963   2
   0  -4  -7 777.048 57.1572   2
   0  -4   8 13381.2 146.763   2
   0   4   8 13899.7 240.203   2
   0  -4  -8 14486.2 233.689   2
   0   4   9 732.507 70.1818   2
   0  -4   9 629.361 39.9251   2
   0  -4  -9 825.236 68.5019   2
   0   4  10 356.397 63.3121   2
   0  -4  10 362.540 37.2163   2
   0  -4 -10 354.673 55.7803   2
   0   4  11 3459.38 140.822   2
   0  -4 -11 3709.26 136.160   3
   0  -4 -11 3744.58 138.835   2
   0  -4  11 3584.91 98.4163   2
   0   4  12 19441.8 333.275   2
   0  -4  12 19252.8 241.073   2
   0  -4  13 1007.52 62.7374   2
   0   4  13 941.042 86.9890   2
   0  -4  14 4851.20 136.472   2
   0   4  14 5020.23 179.589   2
   0   4  15 2751.74 142.778   2
   0  -4  15 2777.90 109.492   2
   0  -4  16 453.590 54.0383   2
   0   4  16 674.440 81.5026   2
   0   4  17 57.4658 56.9695   2
   0  -4  17-50.2366 40.7308   2
   0  -4  18 5089.47 163.701   2
   0   4  18 4952.99 202.278   2
   0  -4  19 1854.70 106.064   2
   0   4  19 1948.81 136.039   2
   0   4  20 4369.01 201.880   2
   0  -4  20 4351.82 163.585   2
   0   4  21 154.541 64.0866   2
   0  -4  21 87.9772 40.8688   2
   0  -4  22 1743.51 110.381   2
   0   4  22 1949.06 145.572   2
   0  -4  23 191.204 50.3111   2
   0   4  23 241.890 75.4664   2
   0   4  24 254.623 70.9778   2
   0  -4  24 352.494 61.3784   2
   0  -4  25-54.9845 46.9826   2
   0   4  25-24.4376 58.6200   2
   0   4  26 331.717 81.2618   2
   0   4  27 60.9721 65.8664   2
   0   4  28 115.603 61.1720   2
   0   4  29 2.10089 56.9570   2
   0   4  30 5707.69 270.800   2
   0   5   0 28.7923 22.0793   2
   0   5   0 34.1888 20.9968   3
   0  -5   0 8.56367 19.2136   3
   0  -5   0 20.2192 21.1523   2
   0   5  -1 4695.21 77.7925   3
   0   5   1 4995.42 107.071   1
   0  -5  -1 4730.14 94.0455   3
   0   5   1 4599.53 92.9644   2
   0  -5   1 4737.48 75.6497   3
   0   5  -1 4647.46 70.9296   2
   0  -5   1 4772.85 70.2474   2
   0  -5  -1 4775.38 93.1037   2
   0  -5   2 44751.0 202.121   3
   0  -5  -2 43926.9 305.492   3
   0   5   2 44531.9 314.099   1
   0   5   2 42948.9 305.925   2
   0   5  -2 43886.1 202.810   3
   0  -5  -2 44704.3 306.781   1
   0  -5  -2 44043.9 296.689   2
   0  -5  -3 472.244 44.8557   2
   0   5   3 506.559 50.3947   2
   0  -5   3 434.013 21.9315   3
   0   5  -3 408.106 21.2715   3
   0  -5  -3 462.550 45.9457   3
   0  -5  -3 516.566 43.5309   1
   0  -5  -4 7054.05 130.863   1
   0  -5  -4 6976.32 140.042   2
   0  -5  -4 7021.19 139.659   3
   0   5   4 6781.37 144.115   2
   0   5   5 7973.87 165.306   2
   0  -5  -5 7769.44 155.820   3
   0  -5  -5 8055.94 157.746   2
   0  -5  -6 500.061 48.4342   2
   0   5   6 420.897 58.4145   2
   0  -5  -6 425.196 44.6330   3
   0  -5   7 2388.16 47.8457   2
   0  -5  -7 2570.37 102.310   2
   0  -5  -7 2647.11 102.582   3
   0   5   7 2787.78 110.948   2
   0   5   8 477.310 61.9509   2
   0  -5   8 457.243 27.9248   2
   0  -5  -8 403.600 50.0181   3
   0  -5  -8 425.146 50.5391   2
   0  -5  -9 4123.58 136.445   3
   0  -5  -9 4117.29 137.276   2
   0  -5   9 3914.95 80.5770   2
   0   5   9 3949.19 142.068   2
   0  -5  10 948.025 46.7327   2
   0   5  10 953.693 80.5861   2
   0  -5 -10 838.140 71.4675   2
   0  -5 -10 1086.41 79.2577   3
   0  -5  11 5716.95 116.993   2
   0   5  11 5526.49 175.969   2
   0  -5  12 1839.78 72.8232   2
   0   5  12 2113.20 121.207   2
   0  -5  13 1300.42 65.0922   2
   0   5  13 1242.58 97.4738   2
   0  -5  14 3667.25 113.752   2
   0   5  14 3814.81 162.230   2
   0   5  15 440.967 69.6670   2
   0  -5  15 415.319 46.9585   2
   0   5  16 9619.12 268.718   2
   0  -5  16 9577.31 197.313   2
   0  -5  17 155.511 37.7584   2
   0   5  17 265.651 69.9082   2
   0   5  18 1074.94 105.944   2
   0  -5  18 1068.89 75.9399   2
   0   5  19 291.015 74.0373   2
   0  -5  19 61.4840 36.2352   2
   0  -5  20 1777.42 103.164   2
   0   5  20 1909.30 140.344   2
   0   5  21 10.4371 54.5262   2
   0  -5  21 174.096 47.4330   2
   0  -5  22 1597.17 103.213   2
   0   5  22 1417.98 129.268   2
   0  -5  23-62.4452 46.0730   2
   0   5  23 47.3349 59.4518   2
   0  -5  24 23.1879 39.0196   2
   0   5  24 68.4746 59.8832   2
   0   5  25 11.6988 55.1754   2
   0   5  26 6933.56 291.996   2
   0   5  27 963.222 122.368   2
   0   5  28 1557.48 152.192   2
   0   5  29 344.088 96.9367   2
   0   5  30 68.9196 61.1738   2
   0  -6   0 37761.1 247.746   2
   0  -6   0 37873.1 256.058   3
   0   6   0 37024.6 260.866   3
   0   6   0 37425.6 253.569   2
   0  -6   1 28462.9 204.259   3
   0  -6  -1 26839.0 238.617   2
   0  -6   1 28104.2 191.833   2
   0   6  -1 28178.0 208.413   3
   0   6   1 28080.9 241.084   2
   0   6   1 28681.8 275.364   1
   0   6  -1 28392.1 195.517   2
   0  -6  -1 28543.1 244.443   3
   0  -6  -2 129.287 32.8133   1
   0   6   2 82.1659 35.4851   1
   0   6  -2 165.129 19.8090   2
   0   6   2 152.265 36.4503   2
   0   6  -2 96.3704 19.6828   3
   0  -6  -2 112.412 30.4670   2
   0  -6   2 102.795 19.2723   3
   0  -6  -2 92.0971 29.1883   3
   0   6  -3 230.330 19.0829   3
   0  -6   3 248.712 20.5728   3
   0  -6  -3 190.416 34.5252   1
   0  -6  -3 264.284 38.0126   3
   0  -6  -3 272.856 38.5026   2
   0   6   3 219.281 41.3031   2
   0  -6  -4 677.926 50.3869   1
   0  -6  -4 696.051 51.7832   3
   0   6   4 502.096 54.8660   2
   0   6  -4 579.452 23.9144   3
   0  -6  -4 698.533 53.9553   2
   0  -6  -5 3.58795 27.5370   3
   0   6  -5 11.1741 9.71822   3
   0  -6  -5 45.4954 32.6381   2
   0  -6  -5-13.8145 27.7821   1
   0   6   5-5.83653 35.7958   2
   0   6   6 21.7379 41.4669   2
   0  -6  -6 65.5107 35.0685   3
   0  -6  -6 66.8544 33.3697   2
   0   6  -6 29.8054 10.2555   3
   0  -6  -7 7576.18 174.870   3
   0   6   7 7555.66 182.520   2
   0  -6  -7 6833.48 172.637   2
   0  -6  -8 5097.78 149.855   3
   0  -6   8 4682.73 64.5025   2
   0   6   8 5317.19 162.070   2
   0  -6  -8 5088.19 151.943   2
   0  -6  -9 79.1944 38.4189   3
   0  -6   9 104.384 16.6925   2
   0   6   9 65.8674 50.0228   2
   0  -6  -9 109.866 44.4096   2
   0   6  10 535.564 69.3755   2
   0  -6  10 383.469 27.7698   2
   0  -6  11 1319.00 52.9122   2
   0   6  11 1324.95 97.4678   2
   0  -6  12 1615.11 62.3020   2
   0   6  12 1580.15 107.590   2
   0   6  13 1364.21 107.001   2
   0  -6  13 1537.22 65.4284   2
   0   6  14 3418.25 159.248   2
   0  -6  14 3390.88 101.450   2
   0   6  15 4968.57 195.969   2
   0  -6  15 4665.89 124.897   2
   0   6  16 1017.99 99.7719   2
   0  -6  16 950.556 64.2141   2
   0  -6  17 5960.94 155.304   2
   0   6  17 6515.25 233.800   2
   0   6 -17 6344.72 158.671   3
   0   6  18 12101.9 324.112   2
   0  -6  18 11234.6 220.443   2
   0   6 -18 12302.5 221.372   3
   0  -6  19 7298.69 185.599   2
   0   6  19 7772.35 270.498   2
   0   6  20 1920.63 146.260   2
   0  -6  20 2019.95 103.464   2
   0  -6  21 2015.69 107.605   2
   0   6  21 2112.93 154.218   2
   0   6  22 787.903 104.796   2
   0  -6  22 847.149 75.0770   2
   0  -6  23 672.768 70.5656   2
   0   6  23 791.139 107.883   2
   0   6  24 104.415 71.7458   2
   0   6  25 150.757 69.4945   2
   0   6  26 210.973 74.4030   2
   0   6  27 204.068 76.1949   2
   0   6  28 134.675 73.4854   2
   0   6  29 1798.92 165.838   2
   0   7   0 20.9070 24.5430   2
   0   7   0 85.3357 45.8618   1
   0  -7   0 18.1492 23.6454   2
   0  -7   0 18.5524 22.3239   3
   0   7   0 1.71492 24.0474   3
   0  -7   1 11629.7 134.340   2
   0   7  -1 11460.2 135.891   2
   0   7   1 11315.5 165.569   2
   0  -7  -1 11489.5 165.821   3
   0   7  -1 11270.8 143.546   3
   0   7   1 11686.2 191.288   1
   0  -7   1 11622.0 141.663   3
   0  -7  -1 11402.1 158.863   2
   0  -7   2 56227.9 285.478   3
   0   7  -2 55612.3 292.679   3
   0   7  -2 55788.6 259.093   2
   0   7   2 54162.1 389.409   2
   0  -7  -2 56379.5 378.198   2
   0  -7  -2 56874.5 386.239   3
   0   7   2 55356.0 412.391   1
   0  -7  -3 29689.6 292.917   2
   0   7   3 29532.0 302.730   1
   0   7   3 29067.3 301.420   2
   0  -7  -3 30093.0 298.465   3
   0   7  -3 28434.5 152.311   2
   0  -7  -3 30622.3 299.150   1
   0   7  -3 29413.6 192.896   3
   0  -7   3 29702.9 191.070   3
   0   7  -4 1432.41 40.5074   3
   0  -7  -4 1364.30 76.6563   2
   0  -7  -4 1599.90 77.2394   3
   0   7   4 1577.85 83.5418   2
   0  -7  -4 1715.49 77.3373   1
   0  -7  -5 9539.14 174.643   1
   0   7   5 9138.43 190.583   2
   0  -7  -5 9532.09 186.476   2
   0  -7  -5 9514.04 186.904   3
   0   7  -5 8855.62 89.8677   3
   0   7   6 1000.14 76.0725   2
   0   7  -6 971.360 31.9497   3
   0  -7  -6 1102.71 71.2054   3
   0  -7  -6 1174.37 68.3179   1
   0  -7  -6 1064.17 69.2478   2
   0   7   7 438.352 61.2718   2
   0  -7  -7 315.854 48.2232   3
   0   7  -7 337.568 21.0954   3
   0  -7  -7 442.576 54.1740   2
   0   7   8 871.701 77.0346   2
   0  -7  -8 798.916 67.3236   3
   0  -7  -8 765.854 69.0657   2
   0  -7   9 8471.79 78.7119   2
   0   7   9 10279.7 237.353   2
   0  -7  10 7485.35 92.0220   2
   0   7  10 8031.96 218.682   2
   0  -7  11 9277.10 117.905   2
   0   7  11 9169.92 243.224   2
   0  -7  12 5797.54 103.655   2
   0   7  12 5788.57 198.780   2
   0  -7  13 4559.30 100.148   2
   0   7  13 4491.82 183.809   2
   0  -7  14 189.647 29.4310   2
   0   7  14 291.474 67.9457   2
   0   7  15 11654.7 300.778   2
   0  -7  15 11333.1 180.248   2
   0   7  16 43.0132 58.5853   2
   0  -7  16 37.0677 24.6459   2
   0   7 -17 644.201 51.9620   3
   0  -7  17 570.766 50.5229   2
   0   7  17 652.760 92.3671   2
   0  -7  18 1406.68 76.0476   2
   0   7 -18 1454.16 75.5909   3
   0   7  18 1676.41 132.238   2
   0   7  19 170.084 76.1702   2
   0  -7  19 117.341 33.6281   2
   0   7  20 258.740 76.8811   2
   0  -7  20 304.630 46.7702   2
   0  -7  21 5300.01 162.450   2
   0   7  21 5905.01 250.231   2
   0   7  22 253.363 78.3436   2
   0   7  23 194.151 72.0493   2
   0   7  24 1658.11 151.386   2
   0   7  25 4228.89 234.535   2
   0   7  26 154.879 79.7577   2
   0   7  27 2199.73 179.283   2
   0   7  28-9.74845 63.7787   2
   0   7  29 77.4889 67.0187   2
   0  -8   0 11243.8 161.009   3
   0   8   0 11491.7 205.429   1
   0   8   0 10929.4 159.417   2
   0  -8   0 10951.7 155.577   2
   0  -8   1 10856.9 147.797   3
   0   8  -1 10470.4 151.968   3
   0  -8  -1 10800.1 169.584   3
   0  -8  -1 10993.8 165.559   2
   0   8   1 10710.7 197.611   1
   0  -8   1 10820.9 140.335   2
   0   8  -1 10810.3 143.617   2
   0   8   1 10786.9 170.138   2
   0  -8  -2 13448.0 195.005   2
   0  -8   2 13370.5 152.979   3
   0   8   2 13773.5 222.875   1
   0   8  -2 13335.5 156.627   3
   0  -8  -2 13860.9 200.971   3
   0   8  -2 13745.7 142.870   2
   0   8   2 13119.9 199.965   2
   0  -8   3 984.701 41.1845   3
   0   8   3 944.057 69.2006   1
   0   8  -3 1002.86 34.8973   2
   0   8   3 922.499 68.2137   2
   0   8  -3 928.076 40.9230   3
   0  -8  -3 986.322 63.0908   1
   0  -8  -3 825.432 58.9917   3
   0  -8  -3 915.293 60.0845   2
   0  -8  -4 8229.62 173.759   3
   0  -8  -4 7871.07 167.883   2
   0  -8  -4 8586.43 171.984   1
   0   8  -4 7746.47 100.609   3
   0  -8   4 8094.36 99.4112   3
   0   8   4 7923.78 177.397   2
   0  -8  -5 341.383 49.3000   3
   0  -8  -5 442.008 50.5127   1
   0  -8  -5 304.269 51.1941   2
   0   8   5 421.519 57.0310   2
   0   8  -5 295.113 21.1075   3
   0  -8  -6 8975.46 195.995   3
   0   8  -6 8280.33 88.8326   3
   0  -8  -6 8186.20 190.410   2
   0  -8  -6 8606.78 179.659   1
   0   8   6 8198.43 197.821   2
   0   8  -7 4004.03 64.0386   3
   0  -8  -7 4599.37 137.132   1
   0  -8  -7 5174.70 153.881   2
   0   8   7 4622.12 153.780   2
   0  -8  -7 4500.74 147.212   3
   0   8  -8 5054.97 76.1631   3
   0   8   8 5743.80 178.582   2
   0   8  -9 8768.30 104.634   3
   0   8   9 8909.33 226.872   2
   0   8  10 7292.24 215.456   2
   0   8  11 23497.1 388.925   2
   0  -8  11 20328.5 138.181   2
   0   8  12 6774.81 221.992   2
   0  -8  12 6465.33 92.7796   2
   0   8  13 3856.25 169.919   2
   0  -8  13 3653.78 78.8415   2
   0   8  14 991.342 98.9704   2
   0  -8  14 989.445 46.9471   2
   0  -8  15 244.467 28.6833   2
   0   8  15 270.381 66.2523   2
   0  -8  16 2016.79 75.4975   2
   0   8  16 1862.80 136.030   2
   0   8  17 5.22451 56.0443   2
   0   8 -17 63.4806 27.7665   3
   0  -8  17 28.2593 21.7461   2
   0  -8  18 1876.37 81.4701   2
   0   8  18 1624.20 135.169   2
   0  -8  19 2440.34 97.1151   2
   0   8  19 2501.55 165.091   2
   0   8  20 310.560 82.4245   2
   0  -8  20 306.494 41.5026   2
   0   8  21-38.1227 63.1573   2
   0   8  22 5077.84 242.402   2
   0   8  23 1766.68 155.095   2
   0   8  24 744.262 115.772   2
   0   8  25 108.380 70.9730   2
   0   8  26 549.822 102.384   2
   0   8  27 125.478 81.6584   2
   0   8  28 991.452 131.243   2
   0   9   0 50.9108 27.7676   2
   0   9   0 46.0627 48.4895   1
   0  -9   0 44.5283 26.0634   2
   0  -9   0 8.13285 23.8592   3
   0   9   1 1274.39 68.8462   2
   0  -9   1 1362.30 60.0802   3
   0  -9  -1 1397.57 66.3889   3
   0   9  -1 1266.64 56.6946   2
   0  -9  -1 1204.13 64.2683   2
   0   9   1 1302.61 82.5971   1
   0   9  -2 27574.0 241.854   3
   0   9  -2 28485.7 222.271   2
   0  -9   2 28342.9 237.315   3
   0  -9  -2 28652.4 293.040   2
   0   9   2 27789.3 305.504   2
   0  -9  -2 28579.5 301.881   3
   0   9   2 28630.3 338.211   1
   0   9  -3 1220.83 50.2056   3
   0  -9   3 1290.58 49.2130   3
   0   9   3 1233.17 82.3685   1
   0   9   3 1296.09 78.8749   2
   0  -9  -3 1252.30 70.9991   2
   0   9  -3 1171.61 41.7321   2
   0  -9  -3 1242.02 71.1709   3
   0   9  -4 27771.2 209.016   3
   0  -9  -4 28665.1 333.401   3
   0  -9  -4 29477.4 337.136   1
   0  -9   4 29017.4 204.418   3
   0  -9  -4 27940.6 327.651   2
   0   9   4 27898.3 338.206   2
   0   9  -5 272.573 22.2141   3
   0  -9  -5 272.012 44.6007   2
   0  -9  -5 222.839 44.1380   3
   0  -9  -5 254.343 41.7707   1
   0   9   5 319.322 55.3871   2
   0   9   6 140.251 47.2250   2
   0  -9  -6 200.690 41.4429   1
   0  -9  -6 121.714 36.5350   3
   0  -9  -6 159.715 37.9926   2
   0   9  -6 124.032 14.8214   3
   0  -9  -7 3286.82 119.291   1
   0   9   7 3167.83 134.456   2
   0   9  -7 2698.76 53.6120   3
   0  -9  -7 3325.83 128.054   2
   0   9   8 2517.84 124.801   2
   0  -9  -8 2640.68 108.658   1
   0   9  -8 2188.12 46.7803   3
   0   9   9 577.996 75.7965   2
   0   9  -9 440.144 23.3690   3
   0  -9  -9 475.802 57.6460   1
   0   9  10 19257.7 352.098   2
   0   9 -10 18472.8 151.539   3
   0   9 -11-9.29127 11.4940   3
   0   9  11 9.15282 49.5009   2
   0   9  12 1696.78 116.673   2
   0  -9  13 2003.86 46.0082   2
   0   9  13 2645.65 148.609   2
   0   9  14 17157.0 371.774   2
   0  -9  14 15431.7 146.771   2
   0   9  15 373.013 77.7620   2
   0  -9  15 353.381 28.1178   2
   0   9  16 3009.33 171.167   2
   0   9 -16 2761.29 86.5950   3
   0  -9  16 2597.63 75.1375   2
   0  -9  17 1408.92 60.4973   2
   0   9 -17 1508.22 67.9080   3
   0   9  17 1297.19 121.281   2
   0   9  18 214.194 71.6598   2
   0  -9  18 212.481 30.2737   2
   0  -9  19 262.939 35.8541   2
   0   9  19 334.774 79.1754   2
   0   9  20-147.673 77.1803   2
   0   9  21 26.9706 62.1769   2
   0   9  22-49.8146 70.5074   2
   0   9  23 224.141 80.4508   2
   0   9  24 639.831 103.615   2
   0   9  25 78.3286 65.5246   2
   0   9  26 320.904 84.9129   2
   0   9  27 251.183 83.2583   2
   0 -10   0 47882.7 369.592   3
   0  10   0 48871.6 468.897   1
   0  10   0 48032.8 370.707   2
   0 -10  -1 22602.0 259.864   2
   0  10   1 23184.4 322.595   1
   0  10  -1 22299.9 233.225   2
   0  10   1 21985.1 268.883   2
   0 -10  -1 22928.0 267.106   3
   0 -10   1 23101.4 240.592   3
   0 -10  -2 16820.3 242.559   3
   0  10  -2 16981.3 184.966   2
   0  10   2 16206.6 246.023   2
   0 -10  -2 16776.1 235.763   2
   0 -10   2 16853.9 194.046   3
   0  10   2 17149.4 278.001   1
   0  10  -3 1531.21 51.0437   2
   0  10   3 1326.57 81.4074   2
   0  10  -3 1343.39 57.7610   3
   0  10   3 1471.96 89.9885   1
   0 -10  -3 1443.63 76.9847   2
   0 -10  -3 1517.15 78.8903   3
   0 -10   3 1371.97 54.7827   3
   0 -10   4 4905.11 92.0187   3
   0 -10  -4 4840.32 144.407   3
   0  10   4 4904.29 148.952   2
   0 -10  -4 5252.54 150.394   1
   0 -10  -4 4874.34 141.603   2
   0  10  -4 4883.95 94.7202   3
   0  10  -4 4713.88 72.8575   2
   0 -10  -5 5530.53 160.864   3
   0 -10  -5 5496.95 156.585   1
   0 -10  -5 5585.08 158.600   2
   0  10  -5 5144.74 89.4189   3
   0  10   5 5247.88 161.316   2
   0  10   6 3161.69 132.699   2
   0 -10  -6 3314.58 123.911   1
   0  10  -6 2965.71 62.8114   3
   0 -10  -6 3184.70 125.440   2
   0 -10  -6 3239.42 129.153   3
   0  10   7 1219.34 90.7740   2
   0 -10  -7 1259.89 81.2144   1
   0  10  -7 1110.13 35.5080   3
   0  10  -8 114.891 12.4582   3
   0  10   8 158.940 53.2437   2
   0  10  -9 2579.85 48.5560   3
   0  10   9 2771.82 139.066   2
   0  10 -10 1884.68 44.7679   3
   0  10  10 2344.23 133.950   2
   0  10 -11 518.647 26.5799   3
   0  10  11 689.385 80.3431   2
   0  10  12 7295.90 237.978   2
   0  10 -12 7428.93 99.6787   3
   0  10 -13 3988.81 79.6738   3
   0  10  13 4166.70 186.898   2
   0  10  14 124.192 62.5587   2
   0  10 -15 9.50308 15.1956   3
   0 -10  15 3.14365 6.43964   2
   0  10  15-7.71363 49.4462   2
   0  10  16 1471.98 127.623   2
   0  10 -16 1491.24 59.8884   3
   0 -10  16 1051.29 38.8907   2
   0  10  17 620.050 96.2997   2
   0 -10  17 518.521 32.2041   2
   0  10  18 2431.15 166.291   2
   0  10  19 218.669 76.3489   2
   0  10  20-2.28555 63.0775   2
   0  10  21 164.250 67.9461   2
   0  10  22 446.730 89.2235   2
   0  10  23 111.272 69.2293   2
   0  10  24 884.824 122.029   2
   0  10  25 35.9467 69.4220   2
   0  10  26 66.4211 65.7289   2
   0  10  27 11.6967 61.9296   2
   0  11   0 149.535 37.6385   2
   0 -11   0 154.072 33.9653   3
   0  11   0 151.312 62.5251   1
   0  11  -1 40317.3 330.050   2
   0 -11   1 41341.5 337.500   3
   0 -11  -1 41197.7 373.995   3
   0  11  -1 40463.7 453.853   1
   0  11   1 40991.5 451.789   1
   0 -11  -1 41392.2 363.856   2
   0  11   1 40098.4 374.809   2
   0 -11  -2 631.079 54.7026   3
   0  11  -2 528.660 41.4186   2
   0 -11  -2 503.001 51.5762   2
   0 -11   2 569.345 43.5974   3
   0  11   2 611.662 70.7350   1
   0  11   2 530.578 58.3293   2
   0  11   3 13852.7 263.944   1
   0 -11   3 13973.2 176.349   3
   0 -11  -3 14267.3 241.692   3
   0  11   3 13822.3 244.910   2
   0 -11  -3 13318.4 236.984   2
   0  11  -3 14386.8 160.761   2
   0 -11   4 6477.20 111.464   3
   0  11   4 6179.01 172.840   2
   0  11  -4 6216.84 91.4703   2
   0 -11  -4 6334.07 171.061   3
   0 -11  -4 6575.34 169.777   2
   0 -11  -5 1718.02 95.5588   2
   0  11   5 1547.70 98.1897   2
   0  11  -5 1845.22 58.6175   3
   0 -11  -5 1798.29 96.6720   3
   0 -11   5 1764.83 55.8558   3
   0  11  -6 3334.58 71.0984   3
   0  11   6 3057.84 137.417   2
   0  11   7 731.377 75.2891   2
   0  11  -7 666.201 30.3819   3
   0  11   8 4116.66 166.314   2
   0  11  -8 3602.63 61.0741   3
   0  11  -9 14148.2 106.683   3
   0  11   9 17407.2 337.106   2
   0  11  10 107.160 58.3517   2
   0  11  11 521.803 79.8047   2
   0  11 -12 857.721 29.3372   3
   0  11  12 1204.06 108.495   2
   0  11 -13 1841.04 46.8925   3
   0  11  13 2299.74 146.350   2
   0  11 -13 1779.99 47.1271   3
   0  11 -14 49.4604 12.2894   3
   0  11 -14 49.4344 12.4104   3
   0  11  14 36.0154 53.8250   2
   0  11  15 2366.81 155.645   2
   0  11 -15 2214.26 60.6207   3
   0  11 -15 2219.99 60.7768   3
   0  11  16 977.392 112.346   2
   0  11 -16 835.279 42.3102   3
   0  11  17 4878.30 229.197   2
   0  11  18 58.8158 64.6167   2
   0  11  19-38.4793 64.1233   2
   0  11  20 875.046 115.445   2
   0  11  21 73.7147 71.2794   2
   0  11  22 93.8645 71.5227   2
   0  11  23 450.980 92.2700   2
   0  11  24 75.7805 78.5709   2
   0  11  25 1576.11 157.665   2
   0  11  26 169.363 78.0707   2
   0  12   0 8205.50 218.476   1
   0 -12   0 8270.81 169.510   3
   0  12   0 8281.31 169.810   2
   0 -12   1 34420.7 327.203   3
   0  12  -1 34426.8 440.538   1
   0  12   1 35495.4 440.191   1
   0  12   1 33921.9 360.092   2
   0  12  -1 34434.4 320.522   2
   0 -12  -1 34532.4 360.740   3
   0  12  -2 1827.62 70.8102   2
   0  12   2 1669.19 92.4919   2
   0 -12  -2 1764.84 88.7474   3
   0 -12   2 1859.80 73.2762   3
   0  12   2 2008.48 111.878   1
   0  12   3 7200.06 186.721   2
   0  12  -3 7714.27 126.923   2
   0  12   3 7549.48 206.258   1
   0 -12  -3 7444.41 182.170   2
   0 -12   3 7420.78 136.049   3
   0 -12  -3 7385.34 182.842   3
   0  12   4 116.224 42.7291   2
   0 -12  -4 106.313 35.0110   3
   0  12   4 119.523 45.4848   1
   0  12  -4 94.7659 17.2762   2
   0 -12  -4 144.111 37.5918   2
   0 -12   4 98.4723 20.0697   3
   0  12  -5 1296.80 36.6322   2
   0  12   5 1496.04 94.6255   2
   0 -12   5 1500.15 54.8400   3
   0  12   6 1787.56 106.960   2
   0  12   7 9127.07 241.356   2
   0  12   8 85.9757 46.8608   2
   0  12   9 108.886 54.6856   2
   0  12  10 1759.84 122.687   2
   0  12  11 20250.8 401.161   2
   0  12  12 50.3090 54.9270   2
   0  12  13 82.8192 49.4211   2
   0  12  14 6246.92 245.612   2
   0  12 -15 163.354 13.1470   3
   0  12  15 342.766 77.9164   2
   0  12  16 252.197 72.0048   2
   0  12  17 1898.52 148.779   2
   0  12  18 1687.32 146.460   2
   0  12  19 1706.78 146.649   2
   0  12  20 39.2144 60.2263   2
   0  12  21 879.386 119.255   2
   0  12  22 14.7131 69.7902   2
   0  12  23 1156.49 137.277   2
   0  12  24 886.256 127.433   2
   0  12  25 212.246 88.3640   2
   0  13   0-0.73931 26.1381   2
   0 -13   0 69.6445 29.2721   3
   0  13   0 27.5001 43.9014   1
   0  13  -1 1001.41 88.2548   1
   0 -13   1 1062.91 63.6943   3
   0 -13  -1 1059.77 70.4781   3
   0  13   1 952.342 70.2999   2
   0  13   1 1042.44 94.1982   1
   0  13  -1 971.742 61.1402   2
   0 -13   2 4065.93 113.205   3
   0  13  -2 4062.17 107.883   2
   0  13   2 4016.54 158.962   1
   0 -13  -2 3954.68 132.809   3
   0  13   2 4045.29 137.005   2
   0  13   3 3356.09 146.663   1
   0 -13   3 3410.96 97.9909   3
   0  13   3 3056.84 126.764   2
   0  13  -3 3385.61 89.5731   2
   0 -13  -3 3350.53 127.974   3
   0  13  -4 9904.75 133.097   2
   0 -13   4 9621.51 152.867   3
   0  13   4 9625.01 227.114   2
   0  13   4 9370.22 238.160   1
   0  13   5 512.067 66.8947   2
   0  13  -5 352.169 22.1539   2
   0 -13   5 429.514 33.1811   3
   0  13   6 2900.86 137.281   2
   0  13   7 14790.9 311.182   2
   0  13   8 4345.33 178.762   2
   0  13   9 3934.04 173.564   2
   0  13  10 3929.18 181.275   2
   0  13  11 2443.76 149.066   2
   0  13  12 81.7083 59.8450   2
   0  13  13 685.728 90.2419   2
   0  13  14 219.054 73.3939   2
   0  13  15 1090.29 118.678   2
   0  13  16 10160.5 325.873   2
   0  13  17 908.859 111.656   2
   0  13  18 266.729 78.8402   2
   0  13  19 433.487 94.8888   2
   0  13  20 126.761 66.0484   2
   0  13  21 1089.70 129.145   2
   0  13  22 161.207 76.4295   2
   0  13  23 265.370 84.6218   2
   0  13  24-8.97486 64.0685   2
   0  13  25-53.2115 70.8901   2
   0  14   0 6182.43 156.702   2
   0 -14   0 6248.19 158.085   3
   0  14   0 6113.75 203.525   1
   0  14   1 544.800 55.5206   2
   0 -14   1 567.981 49.4531   3
   0 -14  -1 519.393 49.9235   3
   0  14   1 549.443 73.7554   1
   0  14  -1 563.133 48.2516   2
   0  14  -1 569.399 71.9849   1
   0 -14   2 5098.03 131.838   3
   0  14  -2 4993.27 186.960   1
   0  14   2 4962.82 182.742   1
   0  14   2 4920.14 155.638   2
   0  14  -2 5245.62 128.601   2
   0 -14  -2 5298.22 155.964   3
   0  14   3-29.3841 47.3972   1
   0  14   3-0.56637 34.0706   2
   0  14  -3 22.6253 22.4502   2
   0 -14   3 16.3481 21.0450   3
   0 -14   4 2279.41 79.1623   3
   0  14   4 2209.43 116.794   2
   0  14   4 2258.63 128.215   1
   0  14  -4 2210.14 68.3885   2
   0  14   5 64.9839 45.4304   2
   0  14  -5 113.981 15.9291   2
   0 -14   5 142.836 24.3121   3
   0  14   6 4295.12 169.836   2
   0  14   7 88.9979 51.4252   2
   0  14   8 237.423 61.6231   2
   0  14   9 2390.71 142.833   2
   0  14  10 140.329 56.4672   2
   0  14  11 164.518 59.7296   2
   0  14  12 5493.59 224.064   2
   0  14  13 4524.55 212.636   2
   0  14  14 2554.28 164.587   2
   0  14  15 498.428 88.4597   2
   0  14  16 733.679 105.634   2
   0  14  17 121.934 72.0047   2
   0  14  18 1960.44 160.594   2
   0  14  19 4.64754 70.3591   2
   0  14  20 804.683 113.054   2
   0  14  21 137.544 69.3891   2
   0  14  22 1736.51 164.644   2
   0  14  23 421.005 101.196   2
   0  14  24 1825.33 177.133   2
   0  15   0 52.2744 59.1870   1
   0 -15   0 84.4167 27.8079   3
   0  15   0 51.8128 30.7878   2
   0 -15  -1 258.240 43.9284   3
   0  15  -1 341.440 43.3294   2
   0 -15   1 306.336 40.5308   3
   0  15   1 326.044 47.3091   2
   0  15   1 288.261 62.1287   1
   0  15  -1 253.245 62.1767   1
   0  15  -2 1772.59 80.7059   2
   0  15  -2 1738.59 123.589   1
   0  15   2 1671.10 96.9880   2
   0  15   2 1794.60 121.513   1
   0 -15   2 1693.57 80.7093   3
   0  15   3 6573.39 193.324   2
   0  15  -3 6788.44 136.921   2
   0  15   3 6629.10 216.438   1
   0 -15   3 6391.89 145.078   3
   0  15  -4 3633.55 90.9309   2
   0  15   4 3489.44 160.906   1
   0  15   4 3618.35 150.643   2
   0 -15   4 3492.21 101.457   3
   0  15   5 677.565 76.7869   2
   0 -15   5 579.851 42.1280   3
   0  15  -5 621.585 33.0587   2
   0  15   6-0.73890 42.6330   2
   0  15   7 33.9461 45.3469   2
   0  15   8 1373.94 112.501   2
   0  15   9 3778.41 181.729   2
   0  15  10 6798.96 246.562   2
   0  15  11 12223.8 330.612   2
   0  15  12 191.149 68.7412   2
   0  15  13 719.435 99.2499   2
   0  15  14 68.8742 61.1445   2
   0  15  15 1081.22 121.171   2
   0  15  16 825.064 110.947   2
   0  15  17 378.132 88.3839   2
   0  15  18 268.051 83.3843   2
   0  15  19 707.399 113.847   2
   0  15  20 426.068 89.7384   2
   0  15  21 4190.26 243.355   2
   0  15  22 529.241 99.3050   2
   0  15  23-14.1343 67.2565   2
   0 -16   0 2708.59 110.233   3
   0  16   0 2604.00 146.695   1
   0  16   0 2740.77 113.623   2
   0  16   1 5873.57 170.740   2
   0 -16   1 5869.50 153.773   3
   0  16  -1 5985.25 218.569   1
   0  16  -1 6156.69 158.124   2
   0  16   1 5827.69 214.144   1
   0  16  -2 4193.27 184.311   1
   0  16  -2 4277.32 123.938   2
   0  16   2 4213.53 151.716   2
   0 -16   2 4212.59 125.950   3
   0  16   2 4297.14 183.238   1
   0 -16   3 245.146 35.5504   3
   0  16  -3 261.030 35.3409   2
   0  16  -3 220.218 62.2205   1
   0  16   3 324.113 56.7493   2
   0  16   3 132.301 57.2891   1
   0  16  -4 56.1090 19.0875   2
   0 -16   4 65.6108 23.9448   3
   0  16   4 98.9125 46.3291   2
   0  16   4 45.8558 52.5473   1
   0 -16   5 751.177 48.8709   3
   0  16  -5 850.642 40.1558   2
   0  16   5 878.759 85.2446   2
   0  16   6 298.276 60.0102   2
   0  16   7 1658.49 119.053   2
   0  16   8-63.5957 52.4226   2
   0  16   9 493.014 77.1679   2
   0  16  10 6.72557 49.7864   2
   0  16  11 219.534 72.7914   2
   0  16  12 5550.07 234.648   2
   0  16  13 1787.70 141.801   2
   0  16  14-41.4063 57.6057   2
   0  16  15 317.206 75.6904   2
   0  16  16 928.369 117.148   2
   0  16  17 1712.56 154.048   2
   0  16  18 38.5434 69.7222   2
   0  16  19 6965.33 302.963   2
   0  16  20 104.646 75.9270   2
   0  16  21 254.036 86.6996   2
   0  16  22 65.4187 64.2834   2
   0  17   0 34.1816 56.2713   1
   0  17   0 35.2017 30.5851   2
   0  17   1 1250.28 115.255   1
   0 -17   1 1338.53 77.4652   3
   0  17  -1 1398.21 81.2551   2
   0  17  -1 1187.99 109.786   1
   0  17   1 1317.21 87.9880   2
   0  17  -2 4164.55 126.147   2
   0  17  -2 3836.49 187.482   1
   0 -17   2 3984.85 123.674   3
   0  17   2 4163.47 188.993   1
   0  17   2 3987.49 150.859   2
   0  17  -3 33.6377 24.5774   2
   0  17   3 8.21617 38.5204   2
   0  17   3-50.9538 54.4478   1
   0 -17   3 59.2524 24.3774   3
   0  17  -3-3.03542 62.3142   1
   0  17   4 676.561 75.4657   2
   0  17  -4 836.199 49.5596   2
   0  17  -4 675.575 86.2121   1
   0 -17   4 774.036 51.7219   3
   0 -17   5 42.7737 20.9732   3
   0  17   5 34.7167 44.8236   2
   0  17  -5 22.8112 14.6599   2
   0  17   6 154.610 54.8523   2
   0  17  -6 53.9024 9.23880   2
   0  17   7 384.948 68.6557   2
   0  17   8 8360.87 263.467   2
   0  17   9 2229.65 148.829   2
   0  17  10 350.300 77.1651   2
   0  17  11 83.5048 61.0837   2
   0  17  12 1974.14 148.513   2
   0  17  13 80.8182 62.2816   2
   0  17  14 1402.85 135.526   2
   0  17  15 742.502 107.428   2
   0  17  16 3493.53 209.331   2
   0  17  17 2536.34 186.263   2
   0  17  18 1671.04 154.877   2
   0  17  19 253.703 83.3204   2
   0  17  20 292.359 94.8004   2
   0  17  21 2032.65 181.246   2
   0  17  22 99.9010 78.1071   2
   0  18   0 7484.19 259.302   1
   0  18   0 7936.65 198.279   2
   0  18   1 3473.09 140.813   2
   0  18  -1 3539.79 179.581   1
   0  18   1 3444.39 179.843   1
   0  18  -1 3718.81 130.418   2
   0  18  -2 2150.02 147.148   1
   0  18   2 2378.16 151.102   1
   0  18  -2 2339.92 98.9654   2
   0  18   2 2419.70 124.305   2
   0  18  -3 197.321 63.2811   1
   0  18   3 221.320 58.2413   2
   0  18   3 96.0934 58.6555   1
   0  18  -3 205.509 36.9492   2
   0  18   4 12.4515 44.3916   2
   0  18  -4 14.0770 21.4799   2
   0  18  -4-58.7052 58.0375   1
   0  18  -5 96.8786 19.2652   2
   0  18   5 100.431 46.5647   2
   0  18   6 3578.37 169.681   2
   0  18   7 752.415 95.0524   2
   0  18   8 1919.89 138.514   2
   0  18   9 540.598 88.8854   2
   0  18  10 5450.21 230.648   2
   0  18  11 123.126 59.9888   2
   0  18  12 6981.38 273.720   2
   0  18  13 2469.14 173.090   2
   0  18  14 625.950 100.382   2
   0  18  15-62.1992 69.6356   2
   0  18  16 309.276 83.4016   2
   0  18  17 39.6945 65.6288   2
   0  18  18 2149.04 175.824   2
   0  18  19 1113.50 143.100   2
   0  18  20-0.12726 66.8850   2
   0  18  21 41.4534 65.4478   2
   0  19   0 78.9580 41.7784   2
   0  19   0 48.6973 55.2758   1
   0  19   1 741.871 98.1208   1
   0  19  -1 834.624 68.6358   2
   0  19   1 780.951 72.6225   2
   0  19  -1 935.728 106.921   1
   0  19   2 6885.47 206.382   2
   0  19  -2 6929.61 260.556   1
   0  19  -2 6920.52 171.605   2
   0  19   2 7174.09 259.628   1
   0  19   3 7403.69 263.541   1
   0  19   3 7066.26 219.270   2
   0  19  -3 7490.18 165.062   2
   0  19  -3 7383.14 269.837   1
   0  19  -4 2842.29 170.479   1
   0  19   4 2809.70 144.448   2
   0  19  -4 3023.29 95.5695   2
   0  19   5 3218.15 160.165   2
   0  19  -5 3513.78 191.364   1
   0  19   6 76.7550 44.8715   2
   0  19   7 220.485 58.7103   2
   0  19   8 2848.94 164.467   2
   0  19   9 1532.95 130.602   2
   0  19  10 8738.97 295.738   2
   0  19  11 643.781 99.9583   2
   0  19  12 63.5732 61.4587   2
   0  19  13 5401.08 249.935   2
   0  19  14 3003.00 193.107   2
   0  19  15 1042.25 122.903   2
   0  19  16-29.6357 62.7225   2
   0  19  17 294.527 93.9293   2
   0  19  18 13.3759 68.7020   2
   0  19  19 668.232 114.472   2
   0  19  20 1481.75 162.913   2
   0  20   0 3997.47 151.391   2
   0  20   0 3688.87 196.432   1
   0  20  -1 11224.0 336.161   1
   0  20   1 11607.6 264.565   2
   0  20  -1 11833.0 243.542   2
   0  20   1 11387.0 334.471   1
   0  20  -2 1207.84 77.5626   2
   0  20   2 940.566 87.6427   2
   0  20  -2 1149.80 116.429   1
   0  20   2 1074.85 114.859   1
   0  20  -3 3208.46 186.133   1
   0  20  -3 3514.75 117.080   2
   0  20   3 3463.73 157.141   2
   0  20   3 3420.46 188.042   1
   0  20   4 1769.54 120.308   2
   0  20  -4 1850.40 145.569   1
   0  20  -5 10623.4 334.950   1
   0  20   5 10853.7 290.562   2
   0  20  -6 1376.17 131.654   1
   0  20   6 1460.90 118.639   2
   0  20   7 1880.62 132.579   2
   0  20   8 1682.48 133.402   2
   0  20   9 88.4081 61.5021   2
   0  20  10 240.457 69.2667   2
   0  20  11 6203.66 259.809   2
   0  20  12 231.702 78.5398   2
   0  20  13 4264.43 225.637   2
   0  20  14 121.508 73.7614   2
   0  20  15 314.667 82.7544   2
   0  20  16 318.820 89.4089   2
   0  20  17 3025.17 213.785   2
   0  20  18 103.097 65.6729   2
   0  20  19 207.725 85.4034   2
   0  21   0 130.245 45.0449   2
   0  21   0 70.1986 60.7025   1
   0  21   1 4795.71 226.869   1
   0  21   1 4851.69 177.931   2
   0  21  -1 4465.09 154.905   2
   0  21  -1 4843.67 229.620   1
   0  21   2-38.6812 56.0886   1
   0  21   2 99.1633 48.5951   2
   0  21  -2 67.7337 69.7273   1
   0  21   3 7705.50 284.355   1
   0  21   3 7886.90 240.532   2
   0  21  -3 7838.15 293.437   1
   0  21  -4 1895.57 154.385   1
   0  21   4 1904.16 125.898   2
   0  21  -5-10.5906 61.2170   1
   0  21   5 98.5762 53.3549   2
   0  21  -6 16.7355 58.4887   1
   0  21   6 42.5769 43.8053   2
   0  21  -7 2724.36 182.863   1
   0  21   7 2690.55 163.151   2
   0  21   8-37.9401 50.1774   2
   0  21   9 2025.42 152.743   2
   0  21  10 53.7852 59.3229   2
   0  21  11 36.4802 55.8772   2
   0  21  12-39.8843 55.2576   2
   0  21  13 1269.30 134.578   2
   0  21  14 1296.15 140.032   2
   0  21  15 2195.22 177.988   2
   0  21  16 170.080 77.0040   2
   0  21  17 130.394 79.6664   2
   0  21  18 1181.03 145.575   2
   0  22   0 12761.9 370.119   1
   0  22  -1 2505.71 175.367   1
   0  22   1 2417.88 171.434   1
   0  22   1 2270.76 125.361   2
   0  22   2 3131.64 151.848   2
   0  22  -2 3319.97 199.095   1
   0  22   2 2899.07 183.868   1
   0  22   3 347.456 62.2243   2
   0  22  -3 577.353 96.9235   1
   0  22   4 265.817 63.6645   2
   0  22  -4 199.414 66.2993   1
   0  22  -5 3608.21 208.868   1
   0  22   5 3564.84 180.765   2
   0  22   6 2012.32 143.884   2
   0  22  -6 2043.43 161.324   1
   0  22   7 634.227 88.5165   2
   0  22  -7 699.854 110.297   1
   0  22   8-11.9642 58.9816   2
   0  22  -8 65.2506 60.6111   1
   0  22   9-6.91950 53.3075   2
   0  22  10 1787.25 147.912   2
   0  22  11 825.328 107.528   2
   0  22  12 1244.42 131.407   2
   0  22  13 5.52202 58.6783   2
   0  22  14 769.231 115.904   2
   0  22  15 115.351 69.9716   2
   0  22  16 137.008 77.1735   2
   0  22  17 995.586 132.172   2
   0  23   0 184.889 65.6569   1
   0  23  -1 226.465 72.7542   1
   0  23   1 262.180 74.1609   1
   0  23   2 2049.97 159.183   1
   0  23  -2 2332.93 172.765   1
   0  23   3 40.6735 41.8001   2
   0  23  -3 63.3493 62.9231   1
   0  23  -4-21.7456 60.9009   1
   0  23   4 37.7091 46.7110   2
   0  23   5 82.4289 50.5981   2
   0  23  -5 89.7044 68.7107   1
   0  23  -6 601.499 97.3787   1
   0  23   6 494.118 82.5082   2
   0  23   7 925.976 103.570   2
   0  23  -7 716.411 111.183   1
   0  23   8 892.579 106.666   2
   0  23  -8 1047.15 124.384   1
   0  23   9 166.591 61.6385   2
   0  23  -9 1.59598 64.9805   1
   0  23  10 3375.06 202.839   2
   0  23  11 52.0090 59.3370   2
   0  23  12-78.4212 65.3351   2
   0  23  13 128.766 75.0422   2
   0  23  14 1293.39 141.949   2
   0  23  15 145.497 74.5136   2
   0  23  16 1140.74 135.710   2
   0  24   0 145.501 68.8884   1
   0  24  -1 1328.08 140.417   1
   0  24   1 1341.62 138.011   1
   0  24  -2 160.279 77.0879   1
   0  24   2-1.57116 65.3324   1
   0  24  -3 8.30764 60.7378   1
   0  24  -4 499.527 91.3783   1
   0  24  -5 179.637 73.7305   1
   0  24   5 60.6330 43.1105   2
   0  24  -6 593.347 102.186   1
   0  24   6 581.679 84.9865   2
   0  24   7 657.797 91.5729   2
   0  24  -7 1015.64 124.577   1
   0  24   8 103.404 59.9572   2
   0  24  -8 134.223 74.1522   1
   0  24   9 111.377 65.9245   2
   0  24  -9 100.145 68.3826   1
   0  24  10 85.2083 60.5069   2
   0  24 -10 55.9419 71.3665   1
   0  24  11 438.780 86.0792   2
   0  24 -11 565.802 105.805   1
   0  24  12 1724.11 157.675   2
   0  24  13 2059.26 171.181   2
   0  24  14 143.152 69.9650   2
   0  24  15 918.759 125.185   2
   0  25   0-32.9129 65.0820   1
   0  25   1 191.670 70.5050   1
   0  25  -1 322.008 82.4033   1
   0  25  -2 667.870 110.578   1
   0  25  -3 2069.31 171.342   1
   0  25  -4 155.582 75.6454   1
   0  25  -5 2161.58 179.074   1
   0  25  -6 1516.62 155.819   1
   0  25   7 109.969 56.7523   2
   0  25  -7 220.128 81.3678   1
   0  25  -8 1490.51 154.654   1
   0  25   8 1369.00 131.159   2
   0  25   9 1805.59 146.097   2
   0  25  10 104.529 59.2219   2
   0  25  11 747.189 109.877   2
   0  25  12 104.353 61.9162   2
   0  25  13 0.12308 56.4340   2
   0  26   0 1721.83 165.373   1
   0  26   1 783.263 120.038   1
   0  26  -1 858.766 122.507   1
   0  26  -2 2475.70 190.646   1
   0  26  -3 267.304 84.7113   1
   0  26  -4 216.696 74.1674   1
   0  26  -5 375.044 93.2182   1
   0  26   9 277.408 70.9196   2
   0  26  10 211.893 64.9465   2
   0  26  11 284.704 74.0775   2
   0  26  12 1590.17 146.914   2
  -1   0  30 2451.76 171.570   2
  -1   0  29-0.60105 51.6937   2
  -1   0  28-9.57110 53.9036   2
  -1   0  27-55.7054 50.0538   2
  -1   0  26 103.443 63.9175   2
  -1   0  25 78.0926 55.2245   2
  -1   0  24 3486.87 182.829   2
  -1   0  23 16.9694 52.5335   2
  -1   0  22 6017.43 225.113   2
  -1   0  21 31.4543 50.9915   2
  -1   0  20 1319.80 104.908   2
  -1   0  19 260.626 62.8852   2
  -1   0  18 23438.6 394.307   2
  -1   0  17-4.92615 39.5864   2
  -1   0  16 236.285 53.4482   2
  -1   0  15 87.4284 48.9868   2
  -1   0  14 12177.6 250.108   2
   1   0 -14 12519.0 241.822   3
  -1   0  13 40.3843 49.0377   2
   1   0 -13 103.082 41.3575   3
   1   0 -12 49780.8 442.502   3
  -1   0  12 50181.4 465.094   2
   1   0 -11 28.2657 30.8837   3
  -1   0  11-10.8861 37.8623   2
   1   0 -10 4321.82 122.016   3
  -1   0  10 4404.02 129.989   2
   1   0  -9 16.4781 25.4291   3
  -1   0   9-23.9100 34.3496   2
   1   0  -8 73038.5 436.571   3
  -1   0   8 74256.0 457.553   2
   1   0  -7 5.54187 24.4468   3
  -1   0   7 30.5531 32.5746   2
  -1   0   6 16654.1 183.480   3
   1   0  -6 16625.9 181.315   3
  -1   0   5 3.24464 24.2065   3
   1   0  -5 3.99686 22.1286   3
  -1   0   4 379.656 30.8201   3
   1   0  -4 307.430 27.2259   3
  -1   0   3 33.8184 17.3226   3
  -1   0  -3 13.7902 19.0489   2
   1   0   3 29.5632 23.3909   2
   1   0   4 1556.92 57.1455   2
  -1   0  -4 1460.35 54.4698   2
   1   0   5 0.56705 28.9303   2
  -1   0  -5 27.6050 24.1677   2
   1   0   6 3528.28 96.5903   2
  -1   0  -6 3759.08 96.4743   2
  -1   0  -7 9.50378 26.1330   2
   1   0   7-18.0216 34.8462   2
   1   0   8 730.598 57.6251   2
  -1   0  -8 750.620 52.7628   2
  -1   0  -9-16.6919 25.4931   2
   1   0   9-8.02295 34.6727   2
   1   0  10 20620.9 281.492   2
  -1   0 -10 21006.4 276.820   2
  -1   0 -11 2.29014 29.0982   2
   1   0  11 37.0993 44.6224   2
   1   0  12 8009.70 192.948   2
  -1   0 -12 8467.05 196.015   2
   1   0  13 53.2806 42.1830   2
  -1   0 -13 18.3185 28.6929   2
   1   0  14 1276.05 87.8880   2
   1   0  15 9.82622 37.5204   2
   1   0  16 19813.6 345.053   2
   1   0  17 126.911 58.3462   2
   1   0  18 4174.34 174.083   2
   1   0  19 29.1707 44.0003   2
   1   0  20 66.2297 46.0888   2
   1   0  21-39.2128 45.4690   2
   1   0  22 929.760 97.0319   2
   1   0  23-67.9761 52.4952   2
   1   0  24 6.95168 49.1645   2
   1   0  25-99.8780 53.0385   2
   1   0  26 893.331 107.333   2
   1   0  27 110.236 64.2828   2
   1   0  28 5108.49 238.259   2
   1   0  29 80.8085 61.1809   2
  -1   1  30 24.9123 55.0171   2
  -1  -1  29 236.045 69.8998   2
  -1   1  29 42.0251 59.2630   2
  -1  -1  28 2377.75 161.093   2
  -1   1  28 2549.32 173.435   2
  -1   1  27 145.866 66.6145   2
  -1  -1  27 141.222 62.3991   2
  -1  -1  26 5223.36 227.543   2
  -1   1  26 5106.38 229.890   2
  -1  -1  25 100.062 53.4065   2
  -1   1  25 36.3877 49.7959   2
  -1   1  24 1771.28 135.549   2
  -1  -1  24 1816.87 132.997   2
  -1   1  23 1600.59 127.347   2
  -1  -1  23 1607.57 120.460   2
  -1   1  22 372.765 73.4234   2
  -1  -1  22 491.706 72.9821   2
  -1  -1  21 399.637 67.4611   2
  -1   1  21 431.361 72.9133   2
  -1  -1  20 3683.97 166.733   2
  -1   1  20 3748.40 172.918   2
  -1  -1  19 960.055 88.1132   2
  -1   1  19 888.726 93.7702   2
  -1  -1  18 83.9860 44.6532   2
  -1   1  18 126.972 57.0336   2
  -1   1  17 5286.51 191.094   2
  -1  -1  17 5115.64 176.469   2
  -1  -1  16 5050.68 171.653   2
  -1   1  16 4847.07 174.982   2
   1   1 -15 23711.1 332.538   3
  -1  -1  15 23564.1 345.101   2
  -1   1  15 23863.1 368.822   2
   1   1 -14 3778.18 130.721   3
  -1  -1  14 3912.89 138.851   2
  -1   1  14 3856.28 150.333   2
   1   1 -13 1852.78 89.2140   3
  -1  -1  13 1762.55 91.7951   2
  -1   1  13 1646.49 97.8127   2
   1  -1 -13 1746.74 95.8113   3
  -1   1  12 9566.61 212.943   2
  -1  -1  12 9728.81 196.680   2
   1  -1 -12 9794.31 205.971   3
   1   1 -12 9699.04 188.475   3
   1  -1 -11 72.1839 36.2350   3
  -1   1  11 147.834 49.4984   2
  -1  -1  11 92.7851 40.1097   2
   1   1 -11 107.978 32.8580   3
   1   1 -10 13753.9 202.792   3
  -1   1  10 12739.8 231.935   2
   1  -1 -10 14311.9 223.761   3
  -1  -1  10 14171.1 216.889   2
  -1  -1   9 3408.65 102.875   2
   1   1  -9 3204.52 94.7867   3
  -1   1   9 3448.84 115.048   2
   1  -1  -9 3328.47 106.012   3
  -1   1   8 12058.4 196.154   2
   1  -1  -8 12262.9 188.523   3
  -1  -1   8 12564.2 180.704   2
   1   1  -8 12219.5 169.477   3
   1   1  -7 1416.51 56.7202   3
  -1  -1   7 1530.26 62.7332   2
   1  -1  -7 1407.54 64.9385   3
  -1   1   7 1400.77 69.3370   2
   1  -1  -6 9281.72 145.421   3
   1   1  -6 9154.72 124.889   3
  -1   1   6 9165.86 153.037   2
  -1   1   6 9466.85 148.861   3
  -1  -1   5 1996.30 56.3768   3
  -1   1   5 2022.42 68.7300   3
   1   1  -5 1904.16 53.2260   3
   1  -1  -5 1979.49 66.3892   3
   1   1  -4 21980.8 152.917   3
  -1   1   4 22600.3 196.531   3
  -1  -1   4 22289.2 155.307   3
   1  -1  -4 21552.4 190.587   3
   1   1  -3 17359.1 121.532   3
  -1   1   3 17862.8 158.249   3
  -1  -1   3 17568.0 122.449   3
   1  -1  -3 17414.0 156.857   3
   1   1   2 1910.12 55.2124   2
   1  -1   3 1592.95 48.1513   2
  -1  -1  -3 1539.89 54.7082   2
  -1   1  -3 1510.03 47.5382   2
   1   1   3 1477.56 56.1464   2
  -1  -1  -4 447.329 38.4510   2
   1  -1   4 424.742 33.9021   2
   1   1   4 442.921 40.3171   2
  -1   1  -4 434.169 30.5041   2
  -1   1  -5 24313.1 208.876   2
  -1  -1  -5 24494.2 235.204   2
   1  -1   5 24361.9 210.623   2
   1   1   5 23961.6 238.372   2
   1   1   6 262.451 42.9137   2
  -1  -1  -6 252.360 35.4456   2
  -1   1  -6 308.447 33.6346   2
   1  -1   6 285.411 37.7755   2
  -1  -1  -7 1518.60 71.1968   2
  -1   1  -7 1440.21 63.0878   2
   1  -1   7 1469.23 66.2965   2
   1   1   7 1397.98 72.0871   2
  -1  -1  -8 422.577 43.9916   2
   1  -1   8 396.224 44.1708   2
  -1   1  -8 460.272 41.8558   2
   1   1   8 416.087 54.2520   2
  -1  -1  -9 13097.6 216.469   2
  -1   1  -9 13124.4 199.492   2
   1   1   9 12248.4 216.574   2
   1  -1   9 12637.7 201.969   2
  -1  -1 -10 7182.40 168.741   2
   1   1  10 7244.16 175.034   2
  -1   1 -10 7022.10 154.443   2
   1  -1  10 6644.25 154.132   2
  -1  -1 -11 1869.88 92.7878   2
   1  -1  11 1912.10 93.2103   2
   1   1  11 1684.97 93.2439   2
  -1   1 -11 1928.39 89.5129   2
   1   1  12 4885.74 155.155   2
   1  -1  12 4674.31 144.747   2
  -1   1 -12 4752.40 143.142   2
  -1  -1 -12 5027.17 157.206   2
  -1   1 -13 15738.1 265.599   2
   1  -1  13 15378.8 266.584   2
   1   1  13 15258.4 285.556   2
  -1   1 -14 8571.94 200.365   2
   1  -1  14 8240.24 203.547   2
   1   1  14 8189.97 216.264   2
   1   1  15 1691.41 109.029   2
   1  -1  15 1694.48 99.7839   2
   1   1  16 2001.28 120.077   2
   1  -1  16 1770.11 106.668   2
   1  -1  17 37.4642 43.8022   2
   1   1  17 119.366 51.1551   2
   1   1  18 1676.43 118.556   2
   1  -1  18 1544.98 107.714   2
   1   1  19 214.521 58.4926   2
   1  -1  19 224.580 54.1514   2
   1   1  20 1939.60 130.105   2
   1  -1  20 1655.96 115.631   2
   1   1  21-20.7977 48.9206   2
   1  -1  21 3.58635 47.7615   2
   1  -1  22 78.2136 49.7996   2
   1   1  22 91.4663 58.0640   2
   1  -1  23 696.685 89.1227   2
   1   1  23 708.031 90.9720   2
   1  -1  24 1567.52 124.597   2
   1   1  24 1874.38 140.469   2
   1   1  25 1162.10 120.304   2
   1  -1  25 1100.62 110.459   2
   1   1  26 1144.94 120.049   2
   1  -1  26 1168.11 114.602   2
   1  -1  27 1035.01 109.548   2
   1   1  27 1017.44 116.194   2
   1   1  28 115.736 64.1897   2
   1  -1  28 27.5607 51.1080   2
   1   1  29 203.516 70.8780   2
   1   1  30 57.4091 61.1206   2
  -1   2  31 1553.76 144.369   2
  -1   2  30-9.68436 55.8996   2
  -1   2  29 498.294 94.9003   2
  -1   2  28 46.5115 59.3101   2
  -1  -2  28 94.2866 58.1263   2
  -1  -2  27 844.015 98.0521   2
  -1   2  27 590.036 94.5269   2
  -1  -2  26 255.521 64.8736   2
  -1   2  26 231.805 72.8165   2
  -1  -2  25 265.896 64.8487   2
  -1   2  25 94.6137 55.6654   2
  -1   2  24 225.509 66.3597   2
  -1  -2  24 233.317 58.0557   2
  -1  -2  23 3414.68 167.137   2
  -1   2  23 3785.38 192.127   2
  -1   2  22 1301.98 117.314   2
  -1  -2  22 1344.54 106.630   2
  -1   2  21 120.345 61.1788   2
  -1  -2  21 237.105 54.2995   2
  -1  -2  20 95.4214 57.4314   2
  -1   2  20 201.407 62.0856   2
  -1  -2  19 24525.6 389.141   2
  -1   2  19 24678.1 432.232   2
  -1  -2  18 2913.88 133.559   2
  -1   2  18 2866.16 152.640   2
  -1  -2  17 845.783 76.0147   2
  -1   2  17 828.131 87.3890   2
  -1  -2  16 1142.85 84.1987   2
  -1   2  16 1062.48 93.4508   2
   1   2 -16 1215.11 78.1818   3
  -1  -2  15 56.8675 37.0290   2
   1   2 -15 65.4921 32.1481   3
  -1   2  15 113.291 47.4768   2
   1   2 -14 856.450 64.7484   3
  -1   2  14 691.674 74.6041   2
  -1  -2  14 886.650 70.6248   2
  -1   2  13 7392.70 202.130   2
  -1  -2  13 7256.10 173.078   2
   1   2 -13 7391.16 166.827   3
   1  -2 -13 7369.94 190.652   3
   1  -2 -12 8210.62 195.094   3
   1   2 -12 7669.66 160.960   3
  -1   2  12 7645.92 196.044   2
  -1  -2  12 7567.60 169.331   2
  -1   2  11 42889.2 439.280   2
   1   2 -11 40643.9 347.585   3
  -1  -2  11 42250.0 374.637   2
   1  -2 -11 42028.0 418.365   3
   1   2 -10 1472.71 67.4873   3
  -1   2  10 1474.16 87.2713   2
   1  -2 -10 1521.02 81.4943   3
  -1  -2  10 1506.73 72.8341   2
  -1   2   9 199.657 46.4001   2
   1  -2  -9 126.482 36.6373   3
  -1  -2   9 132.057 33.8284   2
   1   2  -9 126.678 26.6453   3
  -1   2   8 49.5382 41.7147   2
   1   2  -8 53.9343 25.5719   3
   1  -2  -8 21.4413 29.0164   3
  -1  -2   8 18.4792 28.1922   2
  -1  -2   7 13487.0 165.040   2
  -1   2   7 13488.3 204.677   2
   1   2  -7 12919.9 149.619   3
   1  -2  -7 13169.1 194.623   3
   1  -2  -6 2140.82 78.9816   3
   1   2  -6 2068.70 55.9221   3
  -1   2   6 1844.77 80.8939   2
  -1   2   6 2247.72 84.7203   3
  -1   2   5 24445.4 239.650   3
  -1  -2   5 24253.0 159.424   3
   1   2  -5 23809.2 158.597   3
   1  -2  -5 23392.5 230.620   3
   1  -2  -4 1148.58 51.6997   3
   1   2  -4 1131.60 31.8061   3
  -1   2   4 1188.37 55.5838   3
  -1  -2   4 1188.02 32.4542   3
  -1   2   3 365.604 33.4028   3
   1  -2  -3 353.385 31.5810   3
  -1   2   2 1598.57 52.0307   3
   1   2  -2 1466.16 37.8729   2
  -1   2   1 46882.6 243.773   3
  -1   2   0 705.580 31.9877   3
  -1   2  -1 2824.19 51.9308   2
  -1   2  -1 3043.46 60.1559   3
   1   2   1 2947.83 65.3602   2
   1  -2   2 1783.94 43.0659   2
  -1  -2  -2 1771.06 57.5773   2
  -1   2  -2 1842.68 43.3764   2
   1   2   2 1857.76 58.9358   2
   1  -2   3 23676.9 161.316   2
  -1  -2  -3 23744.8 214.251   2
  -1   2  -3 23603.1 159.545   2
   1   2   3 23521.1 215.151   2
   1   2   4 353.882 41.7437   2
  -1   2  -4 348.195 27.3086   2
   1  -2   4 374.043 28.2645   2
  -1  -2  -4 325.860 37.1042   2
  -1   2  -5 8571.13 116.753   2
  -1  -2  -5 8988.39 151.576   2
   1   2   5 8749.47 154.897   2
   1  -2   5 8805.80 119.901   2
  -1   2  -6 1554.75 56.8754   2
   1   2   6 1506.60 74.7144   2
   1  -2   6 1651.35 59.4072   2
  -1  -2  -6 1610.59 72.2568   2
  -1   2  -7 421.683 36.9530   2
   1   2   7 346.252 47.1454   2
  -1  -2  -7 431.578 46.7034   2
   1  -2   7 395.948 37.7098   2
   1  -2   8 892.594 53.6775   2
   1   2   8 813.188 65.9296   2
  -1  -2  -8 878.459 60.1336   2
  -1   2  -8 912.282 51.1901   2
   1   2   9 23.0411 37.3031   2
  -1   2  -9-9.65569 22.1629   2
   1  -2   9 40.1438 30.2405   2
  -1  -2  -9 16.0530 33.4765   2
   1  -2  10 2457.79 91.6767   2
   1   2  10 2288.59 106.545   2
  -1  -2 -10 2549.43 106.730   2
  -1   2 -10 2614.15 92.2566   2
  -1   2 -11 1543.65 76.9737   2
   1  -2  11 1443.29 76.5559   2
  -1  -2 -11 1637.20 90.6144   2
   1   2  11 1504.08 92.5846   2
   1   2  12 52.1526 41.8590   2
  -1   2 -12 21.0153 29.5625   2
   1  -2  12 66.0954 35.3072   2
  -1  -2 -12 70.8299 36.7843   2
  -1   2 -13 306.090 45.2115   2
   1   2  13 332.659 57.6702   2
   1  -2  13 296.519 45.4251   2
   1   2  14 87.1896 47.8265   2
  -1   2 -14 102.753 38.6358   2
   1  -2  14 95.8753 39.6718   2
   1  -2  15 6161.59 179.394   2
  -1   2 -15 6298.50 172.588   2
   1   2  15 6393.32 204.410   2
   1  -2  16 882.153 77.8774   2
   1   2  16 921.308 89.2982   2
   1  -2  17 4700.38 168.168   2
   1   2  17 5032.56 190.714   2
   1  -2  18 97.2956 44.2644   2
   1   2  18 147.640 54.5495   2
   1   2  19 2565.61 147.118   2
   1  -2  19 2381.34 130.665   2
   1  -2  20-18.8057 40.7808   2
   1   2  20 27.3880 47.5972   2
   1  -2  21 682.309 80.6968   2
   1   2  21 792.498 94.3530   2
   1  -2  22 1064.84 96.2778   2
   1   2  22 945.443 102.064   2
   1   2  23 5017.80 221.406   2
   1  -2  23 5336.50 209.287   2
   1   2  24 35.9044 54.3635   2
   1  -2  24 177.317 58.4960   2
   1   2  25 186.455 68.8095   2
   1  -2  25 172.479 59.7299   2
   1   2  26 91.4052 69.0754   2
   1  -2  26 3.81941 45.6691   2
   1  -2  27 1304.61 121.042   2
   1   2  27 1288.05 131.287   2
   1   2  28 226.294 75.2192   2
   1   2  29 2023.77 163.117   2
   1   2  30 274.383 77.8418   2
  -1   3  31 103.862 64.4233   2
  -1   3  30 1210.28 133.022   2
  -1   3  29 1447.64 146.448   2
  -1   3  28 4555.12 242.446   2
  -1  -3  27 1980.40 141.895   2
  -1   3  27 2204.53 167.843   2
  -1  -3  26 446.253 73.4607   2
  -1   3  26 321.133 75.9966   2
  -1   3  25 395.067 83.1891   2
  -1  -3  25 270.675 60.6192   2
  -1   3  24 594.148 93.4891   2
  -1  -3  24 609.195 77.9096   2
  -1  -3  23 3216.45 158.818   2
  -1   3  23 3139.82 182.032   2
  -1  -3  22 233.314 56.1179   2
  -1   3  22 88.8558 60.9454   2
  -1   3  21 8649.28 276.255   2
  -1  -3  21 8431.21 235.940   2
  -1   3  20 339.668 73.8526   2
  -1  -3  20 332.359 60.1764   2
  -1   3  19 31.0701 51.0864   2
  -1  -3  19-23.3839 35.2964   2
  -1   3  18 72.6631 54.6174   2
  -1  -3  18-20.1610 37.3065   2
  -1   3  17 1938.32 126.374   2
  -1  -3  17 1613.90 96.7791   2
   1   3 -17 1827.92 93.8278   3
  -1   3  16 118.772 49.9619   2
  -1  -3  16 195.836 43.5243   2
   1   3 -16 187.795 37.8650   3
  -1  -3  15 6036.49 165.362   2
  -1   3  15 6089.91 200.033   2
   1   3 -15 6090.77 158.457   3
   1   3 -14 4893.99 136.850   3
  -1   3  14 4418.20 168.512   2
  -1  -3  14 4400.14 137.246   2
  -1  -3  13 4923.39 137.033   2
  -1   3  13 4796.21 168.047   2
   1   3 -13 4956.10 131.671   3
  -1  -3  12 4362.13 123.839   2
   1  -3 -12 4605.25 151.708   3
   1   3 -12 4520.90 119.586   3
  -1   3  12 4019.58 157.598   2
   1  -3 -11 3007.96 119.746   3
   1   3 -11 3144.05 94.2483   3
  -1   3  11 2982.08 129.463   2
  -1  -3  11 3145.41 99.8513   2
   1   3 -10 166.184 29.9929   3
   1  -3 -10 210.348 42.8310   3
  -1  -3  10 177.950 36.5961   2
  -1   3  10 206.142 53.1806   2
   1  -3  -9 18248.5 265.219   3
  -1   3   9 17876.2 269.309   2
  -1  -3   9 17948.2 202.993   2
   1   3  -9 17263.7 187.417   3
  -1  -3   8 1714.33 62.2666   2
   1  -3  -8 1783.57 82.7447   3
  -1   3   8 1954.77 92.5321   2
   1   3  -8 1747.71 56.3297   3
   1   3  -7 3223.39 68.1771   3
   1  -3  -7 3463.61 108.029   3
  -1   3   7 3166.02 109.814   2
  -1   3   6 45836.0 369.272   2
  -1   3   6 44720.3 365.099   3
   1   3  -6 44236.2 212.403   3
   1  -3  -6 44920.7 355.695   3
  -1   3   5 679.799 57.0995   2
   1  -3  -5 825.267 52.1890   3
  -1   3   5 849.783 58.2906   3
   1   3  -5 737.053 25.6366   3
  -1   3   4 1332.74 62.6349   3
   1  -3  -4 1312.42 60.4687   3
  -1  -3   3 44013.3 198.502   2
  -1   3   3 44310.0 300.751   3
   1  -3  -3 44105.3 294.073   3
   1   3  -2 5394.00 71.7670   2
  -1  -3   2 5368.89 71.8665   2
   1  -3  -2 5182.31 95.8967   3
  -1   3   2 5320.53 99.4244   3
  -1   3   1 18968.1 171.106   3
  -1  -3   1 19032.3 142.535   2
  -1   3   1 18679.7 172.087   1
   1  -3  -1 18947.9 168.749   3
   1   3  -1 18907.2 143.789   2
   1  -3  -1 19176.0 173.712   1
  -1  -3   0 4545.53 79.2897   2
   1  -3   0 4605.09 81.2649   3
  -1   3   0 4714.86 88.1424   1
   1   3   0 4639.78 79.7024   2
  -1   3   0 4972.82 82.5662   3
   1  -3   0 4586.99 86.4264   1
  -1  -3  -1 6232.19 100.015   2
   1   3   1 6302.22 102.728   2
  -1   3  -1 6587.77 93.2037   3
   1   3   1 6388.78 81.4475   1
   1  -3   1 6371.64 92.4563   3
  -1  -3  -2 2605.75 73.1379   2
  -1   3  -2 2608.14 60.7527   3
   1   3   2 2414.22 72.3579   2
  -1   3  -2 2551.75 48.9314   2
  -1  -3  -2 2473.36 52.4202   1
   1  -3   3 3431.95 59.1449   2
  -1   3  -3 3276.93 57.4995   2
   1   3   3 3236.29 88.5118   2
  -1  -3  -3 3267.32 86.8556   2
   1   3   4 23791.1 248.710   2
   1  -3   4 24048.1 165.153   2
  -1  -3  -4 24497.8 246.871   2
  -1   3  -4 24064.6 163.127   2
   1   3   5 7725.02 154.146   2
  -1   3  -5 7815.90 102.998   2
  -1  -3  -5 7615.72 147.418   2
   1  -3   5 7813.52 104.224   2
  -1   3  -6 960.428 42.5143   2
   1   3   6 905.828 66.9391   2
  -1  -3  -6 959.139 62.1536   2
   1  -3   6 1001.11 45.0640   2
   1   3   7 11929.6 213.664   2
  -1   3  -7 12723.7 153.617   2
   1  -3   7 12617.3 156.566   2
  -1  -3  -7 12404.3 208.682   2
   1   3   8 374.467 54.8037   2
  -1  -3  -8 456.156 51.9686   2
  -1   3  -8 411.202 35.7436   2
   1  -3   8 402.294 38.2272   2
   1   3   9 4642.53 148.021   2
  -1  -3  -9 5130.61 146.457   2
  -1   3  -9 5006.91 113.031   2
   1  -3   9 4913.85 115.202   2
   1  -3  10 529.387 46.9959   2
  -1   3 -10 598.380 45.3684   2
   1   3  10 500.691 62.4038   2
  -1  -3 -10 564.093 60.4864   2
   1   3  11 1165.67 85.9624   2
  -1   3 -11 1228.43 66.5750   2
   1  -3  11 1242.65 69.9648   2
  -1  -3 -11 1244.64 82.5216   2
  -1   3 -12 38.9267 23.7324   2
   1   3  12 37.9287 40.1666   2
   1  -3  12 53.8926 29.1262   2
   1   3  13 2460.12 125.046   2
  -1   3 -13 2507.05 101.486   2
   1  -3  13 2556.55 104.068   2
   1   3  14 6065.08 196.381   2
   1  -3  14 5865.46 161.155   2
  -1   3 -14 6063.23 160.717   2
  -1   3 -15 8005.82 189.692   2
   1   3  15 7962.11 232.850   2
   1  -3  15 8062.80 195.717   2
   1   3  16 1922.32 121.888   2
   1  -3  16 1763.85 99.0280   2
   1   3  17 295.660 62.8033   2
   1  -3  17 333.196 51.7370   2
   1   3  18 100.803 59.1603   2
   1  -3  18 34.0088 35.1611   2
   1   3  19 115.141 53.6024   2
   1  -3  19 120.127 44.3525   2
   1  -3  20-5.60306 36.9517   2
   1   3  20 1.41409 50.4752   2
   1   3  21 1172.47 112.509   2
   1  -3  21 1361.86 101.653   2
   1  -3  22 702.532 78.3586   2
   1   3  22 750.207 96.6746   2
   1   3  23 226.968 71.4957   2
   1  -3  23 88.2387 46.3196   2
   1  -3  24 95.6064 45.7367   2
   1   3  24 219.176 74.7309   2
   1  -3  25 5374.55 217.830   2
   1   3  25 5080.10 237.931   2
   1   3  26 965.993 116.748   2
   1  -3  26 1127.16 107.785   2
   1   3  27 570.791 97.3237   2
   1   3  28 147.032 69.4874   2
   1   3  29 164.039 66.5142   2
   1   3  30 219.923 74.3322   2
  -1   4  31 191.162 77.0142   2
  -1   4  30 2236.83 178.183   2
  -1   4  29 66.8611 64.8013   2
  -1   4  28 932.101 120.575   2
  -1   4  27 156.295 74.5108   2
  -1   4  26 4096.45 221.071   2
  -1  -4  25 979.933 94.9588   2
  -1   4  25 843.438 110.626   2
  -1  -4  24 2161.33 130.015   2
  -1   4  24 1961.39 148.719   2
  -1  -4  23 126.902 46.0785   2
  -1   4  23-56.2212 53.3789   2
  -1  -4  22 1973.03 119.069   2
  -1   4  22 2068.49 149.445   2
  -1  -4  21 1088.50 88.5298   2
  -1   4  21 1165.83 116.623   2
  -1  -4  20 1115.36 84.7593   2
  -1   4  20 1125.99 107.428   2
  -1   4  19 209.244 67.1415   2
  -1  -4  19 182.297 49.2565   2
  -1   4  18 1775.19 127.694   2
  -1  -4  18 1985.00 103.814   2
   1   4 -17 3726.49 128.628   3
  -1   4  17 3692.58 173.135   2
  -1  -4  17 3480.81 131.767   2
  -1  -4  16 3841.87 131.801   2
  -1   4  16 4165.72 176.827   2
   1   4 -16 3953.97 127.577   3
   1   4 -15 1467.88 77.7660   3
  -1   4  15 1442.77 107.081   2
  -1  -4  15 1532.39 83.9276   2
  -1  -4  14 7442.54 168.615   2
   1   4 -14 7882.04 165.108   3
  -1   4  14 7932.89 225.320   2
  -1  -4  13 1350.16 71.2828   2
   1   4 -13 1315.53 67.9119   3
  -1   4  13 1373.61 100.565   2
  -1   4  12 3596.46 142.697   2
  -1  -4  12 3412.91 102.715   2
   1   4 -12 3369.91 98.5302   3
  -1  -4  11 516.166 42.2449   2
   1   4 -11 454.661 37.8877   3
   1  -4 -11 480.780 56.1652   3
  -1   4  11 390.037 63.6031   2
   1   4 -10 18068.9 193.211   3
  -1  -4  10 18184.9 209.045   2
   1  -4 -10 18491.8 288.057   3
  -1   4  10 17273.1 295.613   2
  -1  -4   9 324.883 33.0160   2
   1  -4  -9 342.361 47.0952   3
   1   4  -9 335.368 28.6638   3
  -1   4   9 319.705 53.6064   2
  -1  -4   8 746.903 41.1370   2
   1  -4  -8 795.968 60.8833   3
   1   4  -8 765.244 35.4829   3
  -1   4   8 699.595 65.7250   2
   1  -4  -7 1618.04 79.3477   3
  -1   4   7 1699.09 83.3087   2
   1   4  -7 1582.10 41.9721   3
  -1   4   6 712.633 61.0852   3
   1  -4  -6 702.867 51.8783   3
  -1   4   6 701.375 59.0320   2
  -1   4   5 14592.3 209.951   3
  -1   4   5 14120.9 207.730   2
   1  -4  -5 14440.0 201.627   3
  -1   4   4 7151.79 142.020   3
  -1  -4   4 7373.70 81.2413   2
   1  -4  -4 7257.34 137.869   3
  -1   4   4 7310.51 140.388   2
   1   4  -3 135.552 17.4812   2
  -1  -4   3 135.090 17.6617   2
  -1   4   3 156.861 34.0182   3
   1  -4  -3 165.931 33.1578   3
   1  -4  -2 307.455 37.1121   1
   1   4  -2 246.063 22.6071   2
   1  -4  -2 265.035 32.2484   3
  -1   4   2 252.972 35.6513   3
  -1  -4   2 251.527 22.2021   2
   1  -4  -1 2343.62 68.2251   3
  -1  -4   1 2430.15 56.8978   2
   1   4  -1 2488.03 57.7568   2
  -1   4   1 2365.41 69.1574   3
  -1   4   1 2435.90 73.1202   1
   1  -4  -1 2658.15 74.3497   1
   1  -4   0 13829.6 148.528   3
  -1   4   0 13622.0 165.680   1
  -1  -4   0 13147.8 141.955   2
  -1   4   0 13546.1 148.377   3
   1   4   0 13298.4 143.835   2
  -1  -4  -1 1258.40 52.0158   2
   1   4   1 1132.56 46.1001   1
  -1   4  -1 1303.38 48.6607   3
   1  -4   1 1299.73 46.8533   3
   1   4   1 1226.20 53.8275   2
   1   4   2 3807.55 76.6907   1
  -1  -4  -2 3670.79 90.4321   2
  -1   4  -2 3783.84 75.2900   3
   1   4   2 3658.47 93.0260   2
  -1  -4  -2 3637.48 74.8114   1
  -1   4  -3 440.304 32.5721   3
  -1   4  -3 373.232 21.4202   2
  -1  -4  -3 423.195 31.9818   1
  -1  -4  -3 423.952 42.2062   2
   1   4   3 415.361 44.9319   2
  -1  -4  -4 5858.20 127.806   2
  -1   4  -4 5487.64 72.7710   2
   1  -4   4 5570.25 74.4234   2
   1   4   4 5388.15 128.814   2
  -1   4  -5 2039.10 49.9529   2
   1   4   5 1910.52 85.0153   2
  -1  -4  -5 2043.84 84.4967   2
   1  -4   5 1998.90 50.0513   2
  -1  -4  -6 3057.89 106.066   2
  -1   4  -6 2849.62 64.4033   2
   1  -4   6 3001.30 66.7694   2
   1   4   6 2920.68 110.039   2
  -1   4  -7 3045.37 72.6320   2
   1   4   7 3089.93 117.286   2
   1  -4   7 3107.48 73.6972   2
  -1  -4  -7 3255.12 111.351   2
   1  -4   8 1099.06 50.1366   2
  -1  -4  -8 1149.58 73.8963   2
  -1   4  -8 1065.26 47.0686   2
   1   4   8 1022.99 77.7366   2
   1   4   9 2343.83 112.737   2
   1  -4   9 2366.56 76.7445   2
  -1  -4  -9 2399.15 106.517   2
  -1   4  -9 2359.64 74.8729   2
  -1  -4 -10 8000.83 196.335   2
   1  -4  10 7756.26 143.440   2
   1   4  10 7604.74 199.251   2
  -1   4 -10 7521.16 139.131   2
   1   4  11 7054.14 198.546   2
  -1   4 -11 7373.07 146.417   2
   1  -4  11 7209.79 147.388   2
   1   4  12 2285.27 120.518   2
   1  -4  12 2132.60 86.3932   2
  -1   4 -12 2280.02 88.4638   2
  -1   4 -13 557.202 48.8704   2
   1  -4  13 594.889 53.9607   2
   1   4  13 405.788 65.8991   2
  -1   4 -14 555.288 50.6360   2
   1  -4  14 583.178 53.8102   2
   1   4  14 528.867 74.3861   2
   1   4  15 0.93269 46.8797   2
  -1   4 -15 0.44908 24.9294   2
   1  -4  15 62.6036 34.3885   2
  -1   4 -16 17039.9 270.959   2
   1   4  16 17168.2 356.535   2
   1  -4  16 16587.4 277.849   2
   1   4  17 1946.76 132.237   2
   1  -4  17 1956.34 104.672   2
   1  -4  18 12996.6 264.845   2
   1   4  18 12224.4 318.669   2
   1   4  19 724.164 94.5377   2
   1  -4  19 558.769 66.5219   2
   1  -4  20 1301.04 96.5526   2
   1   4  20 1422.52 124.313   2
   1   4  21 125.908 53.2680   2
   1  -4  21 219.442 52.9849   2
   1  -4  22 534.424 69.4350   2
   1   4  22 629.451 91.1994   2
   1  -4  23-13.6110 38.7939   2
   1   4  23 37.5520 53.0689   2
   1   4  24 2110.68 159.887   2
   1  -4  24 2135.05 134.630   2
   1   4  25 84.3255 65.5551   2
   1  -4  25-3.78628 43.7618   2
   1   4  26-36.4425 58.3401   2
   1   4  27-6.23670 55.1178   2
   1   4  28 3981.57 231.392   2
   1   4  29 309.939 82.2485   2
   1   4  30 1284.97 135.061   2
  -1   5  30 3463.42 219.102   2
  -1   5  29 1978.13 172.304   2
  -1   5  28 2246.66 178.944   2
  -1   5  27-19.1321 61.9675   2
  -1   5  26 695.276 103.682   2
  -1   5  25 132.526 69.8392   2
  -1   5  24 500.437 89.4941   2
  -1  -5  24 610.982 78.0732   2
  -1   5  23 13.7698 52.2216   2
  -1  -5  23 246.371 54.0340   2
  -1  -5  22 3822.71 154.526   2
  -1   5  22 3752.74 199.306   2
  -1   5  21 1000.36 109.690   2
  -1  -5  21 861.305 75.9159   2
  -1  -5  20 2505.44 121.229   2
  -1   5  20 2522.41 161.863   2
  -1  -5  19 126.778 42.5563   2
  -1   5  19 157.393 64.1607   2
  -1   5  18 82.7708 54.8161   2
   1   5 -18 49.7031 24.7496   3
  -1  -5  18 40.2168 27.9829   2
  -1  -5  17 60.5245 37.6687   2
  -1   5  17 19.3389 53.8831   2
   1   5 -17 70.9389 27.7879   3
  -1  -5  16 8943.45 189.960   2
   1   5 -16 8918.47 181.863   3
  -1   5  16 9246.78 266.214   2
  -1  -5  15 1211.97 70.3422   2
   1   5 -15 1111.41 65.4291   3
  -1   5  15 1176.43 103.576   2
   1   5 -14 1668.53 73.7013   3
  -1   5  14 1479.09 110.182   2
  -1  -5  14 1593.80 76.3300   2
   1   5 -13 673.574 47.2365   3
  -1  -5  13 637.592 48.8675   2
  -1   5  13 686.493 82.7702   2
  -1   5  12 182.731 51.2884   2
  -1  -5  12 242.816 32.7575   2
   1   5 -12 285.261 30.9456   3
  -1   5  11 4554.17 161.692   2
  -1  -5  11 4501.36 103.552   2
   1   5 -11 4284.86 95.0850   3
  -1  -5  10 5791.50 110.962   2
   1   5 -10 5526.28 97.9276   3
   1  -5 -10 5724.66 166.751   3
  -1   5  10 5274.43 176.787   2
  -1  -5   9 3033.08 73.1765   2
   1   5  -9 2778.55 62.8274   3
   1  -5  -9 2914.46 116.489   3
  -1   5   9 3123.90 128.418   2
   1   5  -8 7601.87 89.0775   3
  -1   5   8 7955.53 190.348   2
  -1  -5   8 8263.58 107.891   2
   1  -5  -8 8133.78 181.734   3
  -1   5   7 7617.39 175.721   2
   1  -5  -7 7532.13 168.558   3
  -1   5   6 206.868 44.5826   3
  -1   5   6 280.331 50.2111   2
   1  -5  -6 282.033 41.0650   3
   1  -5  -5 25607.7 280.545   3
  -1   5   5 25011.3 286.908   2
  -1  -5   5 24916.8 143.411   2
  -1   5   5 25550.4 291.267   3
  -1   5   4 1512.31 72.7913   3
  -1   5   4 1383.74 69.5892   2
   1  -5  -4 1533.63 70.5241   3
  -1  -5   4 1350.77 36.3308   2
   1   5  -3 22410.8 147.500   2
  -1   5   3 22449.4 236.948   2
  -1   5   3 21566.4 245.246   3
   1  -5  -3 22369.7 237.776   3
  -1  -5   3 21866.7 145.651   2
   1  -5  -3 22572.5 238.388   1
   1  -5  -2 10163.1 158.294   1
   1  -5  -2 9479.14 148.347   3
  -1  -5   2 9764.57 107.313   2
   1   5  -2 9699.49 108.726   2
  -1   5   2 9579.82 152.295   3
  -1   5   2 9819.13 158.632   1
  -1   5   1 2128.03 78.4172   1
  -1   5   1 2112.40 71.0269   3
   1  -5  -1 2113.56 68.2987   3
   1  -5  -1 2120.77 75.4379   1
   1   5  -1 2218.33 59.3026   2
  -1  -5   1 2003.59 56.2324   2
  -1  -5   0 14099.8 156.796   2
   1   5   0 14205.2 159.460   2
   1  -5   0 14282.8 162.008   3
  -1   5   0 14011.9 164.289   3
  -1   5   0 14298.5 188.168   1
   1   5   1 30350.9 251.412   2
   1   5   1 30566.1 241.342   1
  -1   5  -1 29940.0 230.088   3
   1  -5   1 30556.7 227.392   3
  -1  -5  -1 30267.5 246.767   2
   1   5   2 50413.1 348.198   2
   1   5   2 50112.4 306.646   1
   1  -5   2 51545.1 282.915   3
  -1   5  -2 50705.6 287.759   3
  -1  -5  -2 50690.5 341.994   2
  -1   5  -3 5972.18 73.1406   2
  -1   5  -3 5805.41 97.8546   3
   1   5   3 5740.59 131.358   2
  -1  -5  -3 5841.58 125.977   2
  -1  -5  -3 5804.70 106.603   1
  -1   5  -4 1980.66 43.3485   2
  -1   5  -4 2149.24 61.5707   3
  -1  -5  -4 2109.53 67.7622   1
   1   5   4 1955.90 86.1511   2
  -1  -5  -4 2256.68 85.5266   2
  -1  -5  -5 2162.97 87.7002   2
   1  -5   5 1950.91 46.0949   2
  -1   5  -5 2057.76 44.8431   2
   1   5   5 1858.75 88.6927   2
   1  -5   6 4.85487 14.7287   2
  -1   5  -6-1.01163 13.3098   2
   1   5   6-1.03635 37.4009   2
  -1  -5  -6-0.19042 30.9140   2
  -1  -5  -7 1174.94 73.8670   2
   1  -5   7 1208.22 44.2062   2
   1   5   7 1196.24 82.5679   2
  -1   5  -7 1212.94 42.6742   2
  -1  -5  -8 349.141 49.4900   2
  -1   5  -8 394.851 29.8058   2
   1   5   8 295.865 55.6780   2
   1  -5   8 382.805 31.0307   2
  -1   5  -9 11196.2 147.855   2
   1  -5   9 11264.6 147.358   2
   1   5   9 10852.4 233.625   2
  -1  -5  -9 11591.2 237.605   2
   1   5  10 297.087 58.3286   2
  -1   5 -10 327.582 32.3775   2
   1  -5  10 316.987 34.0215   2
   1   5  11 793.144 80.7833   2
   1  -5  11 700.504 46.6663   2
  -1   5 -11 768.709 48.3247   2
  -1   5 -12 4467.66 115.344   2
   1   5  12 4472.17 171.167   2
   1  -5  12 4394.44 115.707   2
  -1   5 -13 2279.66 88.6104   2
   1  -5  13 2161.15 87.3058   2
   1   5  13 2352.17 131.491   2
   1  -5  14 8157.96 173.521   2
   1   5  14 8523.44 245.270   2
  -1   5 -14 8554.76 174.268   2
   1   5  15 98.7723 55.7231   2
   1  -5  15 40.0568 30.9432   2
  -1   5 -15 41.8101 26.8113   2
   1   5  16 2715.75 150.398   2
   1  -5  16 2487.03 106.699   2
  -1   5 -16 2504.35 102.671   2
   1  -5  17-10.0662 33.9991   2
  -1   5 -17 12.3384 26.7104   2
   1   5  17 17.6587 55.4971   2
   1  -5  18 3781.53 139.098   2
   1   5  18 3964.36 190.446   2
   1   5  19 1423.07 127.951   2
   1  -5  19 1341.44 90.2031   2
   1   5  20 1314.44 120.598   2
   1  -5  20 1376.77 95.1716   2
   1  -5  21 1708.93 104.753   2
   1   5  21 1711.53 136.824   2
   1   5  22 283.632 77.9700   2
   1  -5  22 180.831 47.4304   2
   1   5  23-62.1150 58.0493   2
   1  -5  23 39.1440 42.6515   2
   1  -5  24-3.51767 38.0151   2
   1   5  24-76.3416 64.5840   2
   1   5  25 413.117 89.7003   2
   1   5  26 5601.33 262.588   2
   1   5  27 267.903 85.6445   2
   1   5  28 961.224 125.511   2
   1   5  29 67.6222 65.3864   2
  -1   6  30 2109.33 177.147   2
  -1   6  29 64.2024 70.4228   2
  -1   6  28-11.7121 66.1759   2
  -1   6  27 298.179 85.1393   2
  -1   6  26 1335.47 138.960   2
  -1   6  25 1810.01 153.100   2
  -1   6  24 818.799 110.731   2
  -1  -6  23 2757.87 132.636   2
  -1   6  23 2957.91 185.961   2
  -1  -6  22 0.55576 30.1314   2
  -1   6  22 64.4268 61.9106   2
  -1  -6  21 71.3717 36.4300   2
  -1   6  21 158.995 65.7715   2
  -1   6  20 3813.71 196.311   2
  -1  -6  20 3803.73 140.146   2
  -1   6  19 397.568 81.4071   2
  -1  -6  19 258.825 45.6203   2
  -1  -6  18 58.4842 32.7665   2
   1   6 -18 59.2517 27.5175   3
  -1   6  18 139.877 65.9381   2
  -1  -6  17 2879.35 110.319   2
   1   6 -17 2866.16 103.021   3
  -1   6  17 2999.00 163.642   2
  -1  -6  16 308.030 40.7335   2
   1   6 -16 293.614 38.2585   3
  -1   6  16 361.554 73.7275   2
   1   6 -15 1104.47 60.6441   3
  -1   6  15 1107.65 105.364   2
  -1  -6  15 1061.65 63.2620   2
  -1  -6  14 730.502 51.2259   2
  -1   6  14 753.293 82.0548   2
   1   6 -14 664.439 46.0264   3
  -1   6  13 13314.5 299.132   2
   1   6 -13 13501.0 180.313   3
  -1  -6  13 13366.6 189.046   2
   1   6 -12 1325.52 54.0331   3
  -1   6  12 1437.40 104.535   2
  -1  -6  12 1358.73 57.4535   2
   1   6 -11 2040.06 60.4235   3
  -1   6  11 2303.90 121.850   2
  -1  -6  11 2186.75 67.6434   2
  -1   6  10 228.123 57.5457   2
  -1  -6  10 255.821 26.5223   2
   1   6 -10 214.009 21.1059   3
   1   6  -9 291.494 19.4798   3
   1  -6  -9 304.763 49.5270   3
  -1  -6   9 373.104 27.2233   2
  -1   6   9 362.353 59.7887   2
  -1  -6   8 300.218 22.4311   2
  -1   6   8 214.082 52.7561   2
   1  -6  -8 238.098 42.7813   3
   1  -6  -7 740.323 60.6437   3
  -1   6   7 753.889 67.4502   2
  -1  -6   7 615.085 26.6532   2
  -1  -6   6 27.9163 10.0141   2
  -1   6   6 36.4256 39.6434   2
   1  -6  -6 45.9963 27.8897   3
  -1   6   6 13.9129 40.0032   3
  -1   6   5 974.604 67.8470   2
   1  -6  -5 991.716 64.0338   3
  -1  -6   5 945.708 28.8361   2
  -1   6   5 1096.87 73.3091   3
  -1   6   4 21452.5 260.849   2
   1  -6  -4 22025.0 256.293   1
  -1  -6   4 21246.3 136.722   2
  -1   6   4 21578.6 268.156   3
   1  -6  -4 21642.8 258.252   3
   1   6  -4 21315.2 137.861   2
   1  -6  -3 13628.8 198.044   1
   1   6  -3 12859.5 119.637   2
  -1  -6   3 12708.7 97.8017   3
  -1   6   3 12891.4 199.531   3
  -1  -6   3 13068.7 119.852   2
  -1   6   3 12726.3 191.005   2
   1  -6  -3 13229.0 192.800   3
  -1   6   2 2924.89 99.0914   1
   1  -6  -2 3007.22 90.5736   3
   1   6  -2 2898.41 65.4320   2
   1  -6  -2 3029.90 95.6430   1
  -1   6   2 3058.04 94.7217   3
  -1  -6   2 3017.59 65.9908   2
  -1   6   2 3106.28 89.4389   2
   1   6  -1 3216.47 75.9702   2
   1  -6  -1 3249.75 97.1343   1
  -1   6   1 3016.66 97.8473   1
  -1  -6   1 3030.89 73.8740   2
   1  -6  -1 3089.54 88.1353   3
  -1   6   1 3018.94 83.7314   2
  -1   6   1 3075.51 90.1159   3
   1   6   0 19470.2 198.633   2
  -1   6   0 19182.1 205.219   3
  -1  -6   0 19069.1 193.173   2
   1  -6   0 19337.2 201.325   3
  -1   6   0 19645.0 239.195   1
   1   6   1 55049.7 360.951   2
  -1   6  -1 55239.5 330.516   3
   1  -6   1 57718.1 331.826   3
   1   6   1 56904.7 366.501   1
  -1  -6  -1 56306.7 354.626   2
  -1   6  -2 287.158 30.4987   3
  -1  -6  -2 286.094 36.6191   2
   1   6   2 241.157 38.1265   2
   1  -6   2 260.937 28.2104   3
   1   6   2 292.846 40.4714   1
  -1  -6  -3 2401.77 76.7828   1
   1   6   3 2319.61 79.8552   1
  -1   6  -3 2374.42 67.0615   3
   1   6   3 2457.17 93.3914   2
  -1  -6  -3 2352.19 86.9595   2
  -1  -6  -4 583.445 44.0502   1
  -1  -6  -4 540.615 50.0190   2
  -1   6  -4 571.034 36.1351   3
   1   6   4 519.080 55.1965   2
  -1   6  -4 527.276 23.2315   2
  -1  -6  -5 247.462 42.0705   2
  -1   6  -5 135.252 14.0955   2
   1   6   5 110.132 43.7219   2
  -1  -6  -5 170.616 32.6953   1
  -1   6  -5 137.264 25.1029   3
   1  -6   6 496.126 24.6884   2
  -1   6  -6 537.247 24.0046   2
  -1  -6  -6 559.713 55.8428   2
   1   6   6 610.321 64.2305   2
   1  -6   7 7564.72 94.3555   2
   1   6   7 7863.99 191.025   2
  -1  -6  -7 8100.74 186.955   2
  -1   6  -7 7603.00 92.1562   2
  -1  -6  -8 45.4064 32.6611   2
  -1   6  -8 51.4365 15.8794   2
   1  -6   8 89.4503 19.3729   2
   1   6   8 87.3032 45.6705   2
   1  -6   9 34.1318 18.4374   2
   1   6   9 88.3270 48.8210   2
  -1   6  -9 32.3198 16.3782   2
   1   6  10 9723.76 237.463   2
  -1   6 -10 9775.60 138.625   2
   1  -6  10 9880.00 139.692   2
   1   6  11 22052.9 363.811   2
  -1   6 -11 21671.9 220.743   2
   1  -6  11 22042.6 222.130   2
  -1   6 -12 734.679 46.9281   2
   1   6  12 804.229 87.2332   2
   1  -6  12 617.216 43.6216   2
   1   6  13 4557.63 182.222   2
   1  -6  13 5088.59 123.266   2
  -1   6 -13 5135.22 122.264   2
   1   6  14 54.0532 52.3551   2
  -1   6 -14 2.21342 21.8906   2
   1  -6  14 14.1234 22.4928   2
   1  -6  15 3684.07 116.963   2
   1   6  15 3513.48 168.777   2
  -1   6 -15 3753.72 115.177   2
   1  -6  16-35.5454 29.2454   2
   1   6  16-3.38578 51.5993   2
   1  -6  17 3898.12 130.682   2
   1   6  17 3829.28 184.651   2
   1   6  18 8045.75 270.908   2
   1  -6  18 7846.05 189.701   2
   1   6  19 3671.10 195.188   2
   1  -6  19 3708.31 135.816   2
   1  -6  20 386.194 52.0595   2
   1   6  20 424.779 85.3551   2
   1   6  21 1131.04 118.340   2
   1  -6  21 1146.26 85.2957   2
   1   6  22 2380.86 164.050   2
   1  -6  22 2335.39 122.176   2
   1   6  23 18.8580 63.7034   2
   1   6  24-39.5485 55.2092   2
   1   6  25 287.232 77.6885   2
   1   6  26 160.549 72.8561   2
   1   6  27 1050.47 140.345   2
   1   6  28 616.808 111.421   2
   1   6  29 3078.76 213.121   2
  -1   7  29 1382.66 149.231   2
  -1   7  28 118.999 68.4083   2
  -1   7  27 3343.59 216.158   2
  -1   7  26 492.778 101.322   2
  -1   7  25 3599.76 214.577   2
  -1   7  24 213.681 75.7154   2
  -1   7  23 2299.40 170.748   2
  -1   7  22 86.4305 65.2278   2
  -1  -7  22 136.661 40.4742   2
  -1  -7  21 6510.78 178.620   2
  -1   7  21 7160.56 274.229   2
  -1   7  20 257.150 74.8489   2
  -1  -7  20 137.925 37.3669   2
  -1   7  19 55.0560 61.4392   2
  -1  -7  19 28.6815 29.5641   2
   1   7 -18 735.954 52.7999   3
  -1  -7  18 726.707 57.7875   2
  -1   7  18 762.380 96.0852   2
  -1   7  17 1163.65 113.784   2
   1   7 -17 1056.93 62.0321   3
  -1  -7  17 1140.00 67.2943   2
  -1   7  16 8137.86 265.036   2
   1   7 -16 8026.40 155.160   3
  -1  -7  16 8211.41 162.790   2
   1   7 -15 5016.99 117.862   3
  -1   7  15 4931.95 199.496   2
  -1  -7  15 4931.72 120.765   2
   1   7 -14 427.605 36.4855   3
  -1   7  14 503.055 75.2645   2
  -1  -7  14 445.883 39.0558   2
  -1  -7  13 5504.98 111.504   2
   1   7 -13 5241.94 104.305   3
  -1   7  13 5225.09 198.398   2
  -1  -7  12 873.781 43.3605   2
   1   7 -12 754.709 37.9355   3
  -1   7  12 829.546 85.2710   2
  -1  -7  11 221.871 22.8260   2
   1   7 -11 180.545 18.6678   3
  -1   7  11 175.346 48.9790   2
  -1  -7  10 68.0480 15.4297   2
   1   7 -10 89.2510 12.5335   3
  -1   7  10 89.7325 51.9347   2
  -1  -7   9 20778.8 148.285   2
  -1   7   9 22588.4 346.192   2
  -1   7   8 19494.7 309.228   2
   1  -7  -8 19332.9 298.775   3
  -1   7   7 8150.80 204.042   2
   1  -7  -7 9391.14 199.179   3
  -1   7   6 10040.6 206.920   3
   1  -7  -6 10120.8 200.908   3
  -1   7   6 9835.49 207.530   2
  -1   7   5 5324.15 150.770   3
   1  -7  -5 5771.49 144.048   1
  -1   7   5 5480.88 147.370   2
   1  -7  -5 5446.48 143.220   3
  -1  -7   5 4967.68 63.1191   2
  -1   7   4 439.811 51.2744   2
   1   7  -4 416.201 23.9972   2
   1  -7  -4 520.386 49.1767   3
   1  -7  -4 507.843 49.8639   1
  -1   7   4 499.874 53.3419   3
  -1  -7   4 468.795 24.3301   2
  -1  -7   3 148.536 17.0730   3
   1   7  -3 129.023 19.1955   2
  -1   7   3 119.060 39.5106   3
   1  -7  -3 139.237 34.4530   3
  -1   7   3 145.043 40.1963   2
   1  -7  -3 135.022 35.5392   1
  -1  -7   3 138.827 19.5604   2
   1   7  -2 6668.61 104.767   2
  -1  -7   2 6655.15 102.749   2
  -1   7   2 6525.81 134.656   2
  -1   7   2 6653.43 145.617   3
   1  -7  -2 6751.48 138.198   3
  -1   7   2 6767.18 154.382   1
  -1  -7   2 6597.43 96.0061   3
   1  -7  -2 7106.35 152.449   1
  -1   7   1 691.046 50.8831   3
  -1   7   1 642.997 45.7555   2
  -1  -7   1 709.634 40.8723   2
  -1   7   1 639.321 57.6023   1
   1   7  -1 676.010 42.7853   2
  -1  -7   1 687.381 39.0853   3
   1  -7  -1 684.428 48.4800   3
  -1  -7   0 1156.50 53.8598   2
  -1   7   0 1202.45 73.5174   1
  -1   7   0 1156.73 59.6412   3
   1   7   0 1184.09 57.8670   2
  -1   7   0 1002.48 53.7047   2
   1  -7   0 1202.01 57.2122   3
   1  -7   1 4645.70 100.874   3
  -1  -7  -1 4436.29 107.304   2
   1   7   1 4356.52 112.073   2
  -1   7  -1 4473.94 102.084   3
   1   7   1 4396.85 116.106   1
  -1  -7  -2 131.942 32.9888   2
   1  -7   2 161.016 27.1806   3
   1   7   2 140.447 37.3132   1
  -1   7  -2 158.274 29.6135   3
   1   7   2 117.606 37.3272   2
   1   7   3 52368.9 421.558   2
   1  -7   3 55131.6 318.554   3
  -1   7  -3 53077.5 320.878   3
   1   7   3 54457.4 388.639   1
  -1  -7  -3 53338.2 411.761   2
  -1  -7  -4 638.223 54.1443   2
   1   7   4 586.557 58.1536   2
  -1   7  -4 702.785 40.8722   3
  -1  -7  -4 727.691 51.8508   1
  -1   7  -4 588.015 25.3419   2
   1   7   5 706.646 66.6959   2
  -1   7  -5 768.471 41.5563   3
  -1   7  -5 654.503 24.1167   2
  -1  -7  -5 692.848 60.0115   2
  -1  -7  -5 787.403 53.6667   1
  -1  -7  -6 1839.98 78.0209   1
   1   7   6 1750.83 97.1034   2
  -1  -7  -6 1727.10 89.9766   2
  -1   7  -6 1725.16 60.0690   3
   1   7   7 1118.26 86.4770   2
  -1   7  -7 993.361 30.0359   2
  -1  -7  -7 1068.31 75.7500   2
  -1  -7  -7 1089.83 63.4232   1
  -1  -7  -8 392.284 52.4612   2
   1   7   8 351.392 59.4246   2
  -1   7  -8 357.583 21.9881   2
   1  -7   8 345.969 22.1256   2
   1   7   9 343.568 56.9524   2
   1  -7   9 377.662 25.7715   2
  -1   7  -9 398.242 25.7273   2
   1   7  10 482.053 67.3650   2
  -1   7 -10 404.339 28.1468   2
   1  -7  10 402.839 28.4251   2
  -1   7 -11 1285.78 50.5699   2
   1  -7  11 1322.61 51.7907   2
   1   7  11 1429.61 106.831   2
   1   7  12 6369.39 211.634   2
  -1   7 -12 6153.36 116.521   2
   1  -7  12 6100.10 116.665   2
   1   7  13 9665.05 266.802   2
   1  -7  13 9792.77 156.579   2
  -1   7 -13 9776.37 158.023   2
   1  -7  14 238.694 32.1130   2
   1   7  14 288.067 71.7210   2
   1   7  15 9818.77 282.699   2
   1  -7  15 10161.7 179.132   2
   1  -7  16 795.003 57.5085   2
   1   7  16 849.270 98.7267   2
   1   7  17 228.626 66.6218   2
   1  -7  17 253.280 40.9476   2
   1   7  18 243.401 72.6346   2
   1  -7  18 307.958 44.8557   2
   1   7  19 13421.5 363.683   2
   1  -7  19 13199.4 241.080   2
   1   7  20 236.858 77.0101   2
   1  -7  20 256.262 46.2565   2
   1   7  21 642.133 101.922   2
   1  -7  21 661.622 63.6650   2
   1   7  22 831.369 107.566   2
   1   7  23 35.9444 59.4055   2
   1   7  24 453.188 83.8940   2
   1   7  25 3030.28 201.814   2
   1   7  26 369.894 93.8270   2
   1   7  27 3656.27 231.646   2
   1   7  28 117.281 72.0932   2
  -1   8  28 688.630 118.991   2
  -1   8  27 1094.38 133.499   2
  -1   8  26 1244.33 139.743   2
  -1   8  25 449.581 104.057   2
  -1   8  24 8447.47 319.551   2
  -1   8  23 210.469 79.7016   2
  -1   8  22 2305.92 167.432   2
  -1   8  21 87.3109 65.6547   2
  -1  -8  20 72.8491 31.5925   2
  -1   8  20 97.5382 70.1146   2
  -1   8  19 3479.23 189.137   2
  -1  -8  19 3409.73 112.559   2
   1   8 -18 2477.97 87.8893   3
  -1  -8  18 2557.16 94.6798   2
  -1   8  18 2262.85 156.395   2
  -1  -8  17 148.799 28.4787   2
  -1   8  17 221.505 72.5670   2
   1   8 -17 113.114 25.4576   3
  -1   8  16 2025.48 141.703   2
   1   8 -16 2146.68 75.8276   3
  -1  -8  16 2167.38 77.9670   2
  -1   8  15-59.6780 56.0041   2
  -1  -8  15 9.12960 17.8762   2
   1   8 -15-12.7903 17.3118   3
  -1   8  14 4117.74 188.706   2
  -1  -8  14 4077.31 93.1431   2
   1   8 -14 3936.39 88.4770   3
   1   8 -13 1491.05 50.3664   3
  -1  -8  13 1657.43 56.0472   2
  -1   8  13 1862.63 126.327   2
  -1  -8  12 17462.2 159.830   2
  -1   8  12 18329.7 354.699   2
   1   8 -12 16410.2 137.666   3
  -1  -8  11 2588.65 55.7333   2
  -1   8  11 2644.15 135.704   2
   1   8 -11 2148.54 40.8684   3
  -1   8  10 12376.6 275.606   2
  -1  -8  10 11713.0 99.2935   2
  -1   8   9 938.466 85.8765   2
  -1   8   8 652.400 71.5904   2
  -1   8   7 357.325 57.5332   2
   1  -8  -7 474.903 57.6480   3
   1  -8  -7 512.485 58.9823   1
  -1   8   6 1121.27 81.6946   3
   1  -8  -6 1169.21 77.0054   1
   1  -8  -6 1027.38 71.4372   3
  -1   8   6 1141.55 80.3214   2
  -1   8   5 9178.36 197.085   2
   1  -8  -5 9220.21 191.073   3
   1  -8  -5 9842.82 195.301   1
  -1  -8   5 8583.64 85.0130   2
  -1   8   5 9114.96 202.108   3
  -1  -8   4 8981.93 88.3064   3
   1  -8  -4 9725.46 188.434   3
  -1   8   4 9394.58 195.408   3
  -1  -8   4 9429.44 103.569   2
   1  -8  -4 10299.4 196.840   1
   1   8  -4 9219.58 104.472   2
  -1   8   4 9379.93 189.869   2
   1  -8  -3 2083.32 85.4732   3
  -1   8   3 1961.62 90.1096   3
   1   8  -3 2016.04 56.9947   2
  -1  -8   3 1897.42 50.9286   3
  -1   8   3 1826.06 85.5332   2
   1  -8  -3 2044.43 90.5498   1
  -1  -8   3 2001.92 55.5988   2
  -1   8   2 9955.80 176.427   2
  -1  -8   2 10239.5 129.604   3
  -1   8   2 10112.6 187.448   3
   1  -8  -2 10360.5 178.730   3
   1  -8  -2 10827.4 197.524   1
  -1  -8   2 10114.4 134.670   2
  -1   8   2 10401.3 200.804   1
   1   8  -2 10365.1 138.322   2
  -1   8   1 15306.8 245.059   1
  -1  -8   1 15119.6 170.703   3
   1   8  -1 15245.7 183.427   2
  -1   8   1 15053.6 215.730   3
  -1   8   1 14276.2 199.968   2
  -1  -8   1 15148.7 179.385   2
   1  -8  -1 15373.9 209.875   3
   1  -8   0 3761.21 100.188   3
  -1  -8   0 3528.98 95.2027   2
   1   8   0 3515.84 97.7721   2
  -1  -8   0 3429.44 91.3356   3
  -1   8   0 3700.20 124.182   1
  -1   8   0 3465.34 93.8633   2
  -1   8   0 3444.86 102.451   3
  -1   8  -1 8876.40 133.252   2
   1   8   1 8828.18 162.067   2
  -1   8  -1 8495.49 149.092   3
   1  -8   1 8844.82 146.835   3
   1   8   1 8550.24 169.414   1
  -1  -8  -1 8917.88 153.112   3
  -1  -8  -1 8715.05 157.109   2
  -1   8  -1 9010.50 189.460   1
  -1   8  -2 7180.31 131.099   3
   1   8   2 7251.17 158.040   2
   1   8   2 7471.63 157.968   1
   1  -8   2 7537.72 129.365   3
  -1  -8  -2 7581.01 155.051   2
  -1   8  -2 7111.82 110.540   2
  -1   8  -3 1298.59 43.5133   2
  -1   8  -3 1252.52 55.9418   3
   1  -8   3 1308.53 53.8646   3
   1   8   3 1467.94 76.7895   1
   1   8   3 1347.56 78.4077   2
  -1  -8  -3 1291.99 71.7746   2
  -1   8  -4 9001.63 136.027   3
  -1  -8  -4 9451.42 186.800   2
  -1  -8  -4 9056.77 168.276   1
   1   8   4 8627.00 188.914   2
  -1   8  -4 8265.64 90.3539   2
  -1   8  -5 10161.1 142.943   3
  -1  -8  -5 10375.3 206.219   2
  -1  -8  -5 10383.6 182.448   1
   1   8   5 10023.1 213.379   2
  -1  -8  -6 12199.3 200.454   1
  -1   8  -6 11868.2 153.735   3
  -1  -8  -6 11989.3 235.332   2
   1   8   6 11626.0 238.769   2
   1   8   7 183.406 54.6652   2
  -1   8  -7 95.2021 22.6561   3
  -1  -8  -7 93.1565 39.0614   2
  -1  -8  -7 84.6496 32.5864   1
  -1   8  -8 1232.72 53.5196   3
   1   8   8 1202.14 91.0456   2
  -1  -8  -8 1283.90 75.1873   1
   1   8   9 3079.20 140.032   2
  -1   8  -9 2790.64 49.5447   2
  -1   8 -10 1529.55 43.2515   2
   1   8  10 1745.16 113.064   2
   1  -8  10 1447.03 43.0464   2
   1  -8  11 798.821 36.4673   2
   1   8  11 867.518 86.7485   2
   1   8  12 25.9927 45.3222   2
   1  -8  12 10.8868 13.6236   2
   1  -8  13 14.8482 16.6440   2
   1   8  13-11.1069 51.2625   2
   1  -8  14 2029.19 70.7609   2
   1   8  14 1921.63 133.775   2
   1   8  15 632.069 82.8381   2
   1  -8  15 591.504 43.7207   2
   1  -8  16 2195.14 82.9884   2
   1   8  16 2124.54 143.127   2
   1   8  17 1647.97 137.766   2
   1  -8  17 1714.07 77.4785   2
   1  -8  18 3272.84 110.233   2
   1   8  18 3203.00 182.272   2
   1  -8  19 1233.61 73.4459   2
   1   8  19 1361.05 125.923   2
   1   8  20 46.2575 58.3072   2
   1  -8  20 49.6447 30.5320   2
   1   8  21 23.3169 57.7388   2
   1   8  22 6116.42 267.935   2
   1   8  23 6714.04 286.198   2
   1   8  24 529.531 100.806   2
   1   8  25 64.1771 74.8522   2
   1   8  26 695.883 119.822   2
   1   8  27 1637.75 167.167   2
   1   8  28 402.533 100.950   2
  -1   9  28 1875.63 176.453   2
  -1   9  27 435.100 99.7197   2
  -1   9  26 1704.13 162.311   2
  -1   9  25 767.948 110.462   2
  -1   9  24 970.504 124.616   2
  -1   9  23 645.966 106.365   2
  -1   9  22 3415.73 204.185   2
  -1   9  21 437.106 88.0889   2
  -1   9  20 5354.02 244.857   2
  -1   9  19 198.729 68.9725   2
  -1  -9  19 237.460 31.8332   2
  -1   9  18 1915.77 145.677   2
  -1  -9  18 1864.04 73.6512   2
   1   9 -17 519.975 37.2345   3
  -1   9  17 477.749 85.7917   2
  -1  -9  17 548.024 40.1248   2
  -1  -9  16 2446.34 73.7627   2
  -1   9  16 2671.76 161.245   2
   1   9 -16 2451.60 70.9007   3
  -1   9  15 514.413 82.4432   2
   1   9 -15 477.674 30.3287   3
  -1  -9  15 471.251 31.9459   2
   1   9 -14 8355.05 105.954   3
  -1  -9  14 8628.26 114.661   2
  -1   9  14 9699.88 279.163   2
  -1  -9  13 2769.61 58.0703   2
   1   9 -13 2617.50 49.4041   3
  -1   9  13 3036.09 160.630   2
  -1   9  12 325.150 66.6755   2
  -1  -9  12 146.799 12.9080   2
  -1  -9  12 130.877 12.2619   2
  -1   9  11 468.414 71.6600   2
  -1   9  10 22662.3 380.088   2
  -1   9   9 8915.03 236.053   2
  -1   9   8 3144.07 136.282   2
  -1   9   7 2322.94 115.293   2
   1  -9  -7 2544.00 111.879   1
   1  -9  -6 775.329 65.1782   1
   1  -9  -6 764.082 66.8474   3
  -1   9   6 749.224 68.9361   2
   1   9  -5 790.757 29.2724   2
  -1   9   5 941.973 73.9009   3
  -1   9   5 904.731 70.1675   2
   1  -9  -5 962.255 72.7745   1
   1  -9  -5 938.242 69.6879   3
  -1  -9   5 844.063 29.6330   2
  -1  -9   4 1227.93 42.7836   2
  -1  -9   4 1284.73 40.0560   3
   1  -9  -4 1538.37 84.8162   1
  -1   9   4 1296.89 84.0079   3
  -1   9   4 1237.85 80.1267   2
   1  -9  -4 1321.87 76.7173   3
   1   9  -4 1279.05 43.7549   2
   1   9  -3 2126.17 62.7056   2
  -1  -9   3 2147.65 57.8806   3
  -1   9   3 2203.10 98.7589   3
   1  -9  -3 2137.95 97.0186   1
  -1   9   3 2046.70 102.249   1
  -1   9   3 2012.48 91.9886   2
   1  -9  -3 2093.64 89.2942   3
  -1  -9   3 2106.39 61.5939   2
  -1  -9   2 7189.81 121.366   2
   1  -9  -2 7642.20 159.555   3
  -1  -9   2 7224.29 117.411   3
  -1   9   2 6983.41 164.560   3
  -1   9   2 7239.68 180.038   1
   1   9  -2 7261.67 123.844   2
  -1   9   2 6841.36 155.553   2
  -1   9   1 96.1127 33.9472   3
   1   9  -1 80.0388 28.0598   2
   1  -9  -1 154.615 35.1512   3
  -1   9   1 65.5894 43.4943   1
  -1  -9   1 81.0995 24.6335   3
  -1  -9   1 76.2770 24.6567   2
  -1   9   1 67.6246 32.1039   2
  -1   9   0 10676.9 170.098   2
  -1  -9   0 11121.8 172.084   2
  -1   9   0 11184.3 187.667   3
  -1   9   0 11370.7 225.416   1
   1   9   0 11220.5 179.798   2
  -1  -9   0 10909.0 168.846   3
   1  -9   0 11558.1 181.133   3
   1   9   1 8438.82 165.620   2
  -1   9  -1 8435.08 137.704   2
  -1  -9  -1 8443.91 160.803   2
  -1   9  -1 8396.93 154.871   3
   1  -9   1 8485.33 150.466   3
  -1  -9  -1 8678.03 159.197   3
   1   9   1 8551.63 182.117   1
  -1   9  -1 8896.92 200.446   1
  -1   9  -2 3847.31 85.3659   2
  -1  -9  -2 3835.73 117.144   2
  -1   9  -2 3685.44 102.137   3
  -1  -9  -2 3803.13 112.330   3
   1   9   2 3883.23 123.306   1
   1  -9   2 4043.40 100.064   3
   1   9   2 3804.55 121.067   2
   1  -9   3 48.0728 21.9142   3
  -1  -9  -3 55.5555 30.6373   3
  -1  -9  -3 41.8519 30.6651   2
   1   9   3 82.3051 38.9686   1
  -1   9  -3 57.1327 18.8570   2
   1   9   3 67.7509 38.5847   2
  -1   9  -3 29.5131 23.7568   3
  -1  -9  -4 1036.93 70.1186   3
   1   9   4 952.523 74.2475   2
  -1   9  -4 1014.26 35.8540   2
  -1   9  -4 1049.90 52.1126   3
  -1  -9  -4 1060.40 72.1879   2
  -1  -9  -5 13853.0 246.701   2
  -1  -9  -5 13747.0 243.334   3
  -1   9  -5 13706.2 170.411   3
  -1  -9  -5 14058.5 224.092   1
   1   9   5 12806.7 249.538   2
   1   9   6 5732.95 174.200   2
  -1  -9  -6 5144.77 166.318   2
  -1   9  -6 5718.25 110.086   3
  -1  -9  -6 5930.56 149.676   1
   1   9   7 105.781 46.8070   2
  -1  -9  -7 149.590 33.9452   1
  -1   9  -7 137.793 24.3141   3
  -1   9  -8 56.2939 20.8604   3
   1   9   8 116.007 53.8074   2
  -1  -9  -8 78.2642 36.3379   1
  -1   9  -9 4835.66 103.647   3
   1   9   9 4799.36 176.230   2
  -1  -9  -9 4824.60 144.835   1
  -1   9 -10 882.335 48.1384   3
  -1  -9 -10 869.885 69.4874   1
   1   9  10 784.003 84.6059   2
   1   9  11 183.068 55.8751   2
   1  -9  12 248.411 19.2957   2
   1   9  12 249.561 63.7315   2
   1  -9  13 532.485 30.5985   2
   1   9  13 545.400 82.8176   2
   1   9  14 14584.2 347.477   2
   1  -9  14 14037.4 159.600   2
   1  -9  15 1840.86 64.0325   2
   1   9  15 2010.22 140.475   2
   1  -9  16 768.350 45.6742   2
   1   9  16 806.158 100.948   2
   1  -9  17 26.1663 21.2123   2
   1   9  17-35.0688 59.0040   2
   1   9  18 1028.38 114.334   2
   1  -9  18 1083.79 60.9349   2
   1   9  19 417.738 82.5433   2
   1   9  20 310.099 83.4095   2
   1   9  21 1473.43 142.805   2
   1   9  22 1697.30 149.888   2
   1   9  23 106.612 65.8212   2
   1   9  24 2733.39 191.758   2
   1   9  25 53.2499 66.9942   2
   1   9  26 1268.21 147.812   2
   1   9  27 331.202 94.2431   2
  -1  10  27 656.927 114.472   2
  -1  10  26-96.8254 72.1693   2
  -1  10  25 1325.94 143.825   2
  -1  10  24 1700.34 157.684   2
  -1  10  23 1216.98 135.055   2
  -1  10  22 2688.79 188.921   2
  -1  10  21 1071.92 126.345   2
  -1  10  20 1945.60 156.277   2
  -1  10  19 2634.89 173.950   2
  -1  10  18 3498.65 192.049   2
  -1 -10  17 1229.71 48.0026   2
  -1  10  17 1407.32 128.451   2
  -1  10  16 891.528 107.194   2
  -1 -10  16 709.668 33.2490   2
   1  10 -16 715.387 31.6457   3
  -1  10  15 3389.83 180.884   2
  -1 -10  15 2473.95 52.1736   2
  -1  10  14 5513.96 221.624   2
  -1  10  13 12516.6 314.680   2
  -1  10  12 14821.1 336.520   2
  -1  10  11 2426.97 137.085   2
  -1  10  10 886.093 89.5227   2
  -1  10   9 10.4792 45.0111   2
  -1  10   8 11817.9 263.554   2
  -1  10   7 823.081 77.0509   2
  -1  10   6 341.503 54.9171   2
  -1 -10   5 11993.2 113.648   2
   1 -10  -5 12776.3 240.488   3
   1  10  -5 11435.7 114.651   2
   1 -10  -5 13452.4 251.424   1
  -1 -10   5 10959.9 104.725   3
  -1  10   5 12467.6 249.030   3
  -1  10   5 12117.1 243.187   2
   1 -10  -4 2000.97 99.3182   1
   1  10  -4 1906.11 56.2087   2
  -1  10   4 1859.05 97.0564   2
  -1  10   4 1926.00 99.6098   3
   1 -10  -4 1968.84 94.0223   3
  -1 -10   4 1797.07 51.7326   3
  -1 -10   4 1811.74 55.1775   2
  -1  10   3 2260.98 105.107   3
   1  10  -3 2568.12 72.0022   2
  -1 -10   3 2495.68 67.8587   3
   1 -10  -3 2626.00 104.092   3
  -1 -10   3 2460.82 70.6356   2
  -1  10   3 2067.19 104.937   2
   1 -10  -3 2406.56 109.312   1
  -1  10   3 2438.15 114.063   1
   1 -10  -2 1051.85 66.8714   3
  -1  10   2 1050.13 69.1814   2
   1  10  -2 1001.94 52.1790   2
  -1 -10   2 1015.27 50.9684   2
  -1  10   2 1081.29 72.7675   3
  -1  10   2 1002.38 78.8371   1
  -1 -10   2 1146.96 51.8746   3
  -1  10   1 16027.2 248.066   3
  -1  10   1 16985.8 286.135   1
   1  10  -1 16405.4 211.054   2
  -1  10   1 15370.7 227.271   2
   1 -10  -1 17083.4 240.964   3
  -1 -10   1 16370.7 202.248   3
  -1 -10   1 16289.5 205.178   2
   1  10   0 27642.4 345.491   1
  -1  10   0 26936.1 279.720   2
   1 -10   0 28312.1 295.284   3
  -1  10   0 27180.0 306.779   3
   1  10   0 27448.8 290.833   2
  -1 -10   0 27636.9 282.680   2
  -1 -10   0 28018.7 281.225   3
  -1  10   0 28157.1 367.346   1
  -1 -10  -1 2295.33 88.4228   3
   1  10   1 2214.84 92.9159   2
  -1  10  -1 2240.21 110.240   1
  -1 -10  -1 2374.78 90.8430   2
   1 -10   1 2349.10 83.1213   3
   1  10   1 2231.95 105.247   1
  -1  10  -1 2212.75 77.2627   2
  -1  10  -1 2183.83 85.0252   3
  -1  10  -2 495.539 43.1184   3
   1 -10   2 559.821 43.7362   3
  -1  10  -2 460.247 36.1922   2
  -1 -10  -2 539.504 49.9624   2
   1  10   2 512.907 54.2466   2
   1  10   2 572.574 61.5745   1
  -1 -10  -2 489.865 48.6678   3
   1  10   3 1825.05 96.0415   1
  -1  10  -3 1750.49 72.2554   3
  -1  10  -3 1872.53 58.7323   2
  -1 -10  -3 1869.96 88.2520   3
  -1 -10  -3 1845.59 88.1310   2
   1  10   3 1760.75 94.6142   2
   1 -10   3 1909.49 71.3266   3
  -1  10  -4 1015.14 53.2901   3
  -1 -10  -4 989.750 71.2072   2
   1 -10   4 1095.93 53.4030   3
   1  10   4 1122.58 79.9866   2
  -1 -10  -4 999.170 70.0570   3
   1  10   4 1179.62 83.1992   1
  -1  10  -4 1052.85 40.0600   2
  -1 -10  -5 34.9486 31.2622   2
  -1  10  -5 64.6470 11.0021   2
  -1 -10  -5 111.431 36.1004   3
  -1  10  -5 61.3291 10.4939   2
  -1  10  -5 84.3078 22.3742   3
   1  10   5 65.2284 42.4267   2
  -1 -10  -5 39.3226 29.4115   1
  -1 -10  -6 2.03495 29.3225   1
   1  10   6-7.02953 42.9980   2
  -1  10  -6 21.3824 19.5112   3
  -1  10  -7 128.111 22.8317   3
   1  10   7 138.625 50.2398   2
  -1 -10  -7 96.0001 31.7024   1
   1  10   8 1794.80 112.578   2
  -1 -10  -8 1963.82 96.7836   1
  -1  10  -8 1930.96 65.6638   3
  -1  10  -9 962.176 48.1453   3
  -1 -10  -9 989.202 72.4657   1
   1  10   9 933.116 86.0669   2
   1  10  10 5085.02 192.347   2
  -1  10 -10 5045.88 106.329   3
  -1  10 -11 362.824 33.7687   3
   1  10  11 290.376 68.2057   2
  -1  10 -12 4394.55 105.583   3
   1  10  12 4149.31 182.628   2
   1  10  13 992.098 103.626   2
   1  10  14 4056.86 192.387   2
   1 -10  14 2846.30 56.8826   2
   1 -10  15 433.002 27.3460   2
   1  10  15 515.183 83.3789   2
   1 -10  16 504.312 32.5677   2
   1  10  16 527.771 86.8497   2
   1 -10  17 3340.22 85.5532   2
   1  10  17 3991.40 202.913   2
   1  10  18 236.940 76.2291   2
   1  10  19 125.193 60.2339   2
   1  10  20 67.2971 65.1758   2
   1  10  21 0.50941 66.5282   2
   1  10  22 20.1553 59.8468   2
   1  10  23 384.017 84.0432   2
   1  10  24 314.310 86.1258   2
   1  10  25 109.553 72.2023   2
   1  10  26 10.5424 67.8776   2
  -1  11  26 1109.33 141.955   2
  -1  11  25 820.929 123.614   2
  -1  11  24 96.9186 77.2740   2
  -1  11  23-11.6546 67.0997   2
  -1  11  22-19.2889 65.3817   2
  -1  11  21 1271.10 132.714   2
  -1  11  20 164.649 67.5067   2
  -1  11  19 1781.85 152.038   2
  -1  11  18 2729.62 175.864   2
  -1  11  17 3881.62 204.368   2
  -1  11  16 1088.13 111.231   2
  -1  11  15 8881.17 288.549   2
  -1  11  14 2147.84 146.989   2
  -1  11  13 325.328 73.5343   2
  -1  11  12 1194.87 108.728   2
  -1  11  11 5724.87 213.134   2
  -1  11  10-23.4977 51.3811   2
  -1  11   9 7582.46 228.463   2
  -1  11   8 725.125 78.0484   2
  -1  11   7 941.516 84.4765   2
  -1  11   6 49.0226 40.7480   2
  -1  11   5 1698.92 98.8873   2
   1  11  -5 1647.70 47.3072   2
  -1 -11   5 1712.02 46.4418   3
  -1 -11   5 1684.09 46.1701   2
   1  11  -4 3195.26 75.3131   2
   1 -11  -4 3147.20 121.130   3
  -1 -11   4 2977.25 70.8567   3
  -1  11   4 3017.83 122.429   2
  -1 -11   4 3161.98 73.1293   2
  -1  11   4 3130.07 127.604   3
   1 -11  -3 494.805 53.0277   3
  -1 -11   3 479.383 34.1967   3
   1  11  -3 445.468 36.0275   2
  -1 -11   3 398.516 33.6141   2
  -1  11   3 475.609 52.4310   2
  -1  11   3 415.254 60.5982   1
  -1  11   3 498.045 59.9978   3
  -1  11   2 22.8389 36.5578   2
  -1 -11   2 108.997 24.4092   2
   1 -11  -2 91.8976 31.9671   3
   1  11  -2 41.1218 23.1348   2
  -1 -11   2 80.7158 23.1700   3
  -1  11   2 81.1328 37.1105   3
  -1  11   2 61.7988 50.7660   1
  -1  11   1 188.005 50.4298   1
   1  11  -1 145.590 35.0268   2
   1 -11  -1 274.763 41.1245   3
  -1 -11   1 105.667 26.0266   3
  -1  11   1 154.075 38.4996   3
  -1  11   1 103.296 33.9199   2
  -1 -11   1 127.988 30.0535   2
  -1  11   0 801.639 78.4319   1
  -1  11   0 639.259 54.3591   2
   1  11   0 686.187 72.6878   1
   1  11   0 796.315 60.5007   2
   1 -11   0 753.275 56.6661   3
  -1 -11   0 761.512 53.1735   2
  -1 -11   0 710.964 52.9526   3
  -1  11   0 680.759 60.7043   3
   1  11   1 2200.83 95.0371   2
   1 -11   1 2162.75 84.4013   3
   1  11   1 2160.78 107.977   1
  -1  11  -1 2175.55 90.0114   3
  -1 -11  -1 2130.05 88.6342   3
  -1 -11  -1 2267.37 90.4654   2
  -1  11  -1 2118.65 79.2948   2
  -1  11  -1 2081.68 112.061   1
  -1 -11  -2 70.0900 29.8610   3
   1  11   2 51.5214 34.5068   2
   1 -11   2 35.8726 21.2223   3
  -1  11  -2 60.9850 24.2226   2
  -1  11  -2-9.22718 44.4127   1
  -1 -11  -2 39.1586 29.2738   2
   1  11   2 65.3970 42.8774   1
  -1  11  -2 55.3612 27.6644   3
   1 -11   3 6594.95 133.482   3
  -1 -11  -3 6568.99 169.058   3
  -1  11  -3 6770.58 115.296   2
  -1  11  -3 6528.25 139.060   3
  -1 -11  -3 6095.22 170.240   2
   1  11   3 6667.01 179.634   1
   1  11   3 6798.10 177.080   2
  -1  11  -4 867.545 53.4153   3
  -1  11  -4 980.167 40.1361   2
  -1 -11  -4 1044.94 73.8185   3
  -1 -11  -4 919.087 72.9604   2
   1  11   4 967.982 76.5415   1
   1 -11   4 906.097 50.7450   3
   1  11   4 810.921 71.9351   2
  -1  11  -5 943.797 52.9808   3
   1  11   5 944.258 76.3867   2
  -1  11  -5 713.373 28.5903   2
  -1  11  -5 848.014 31.0728   2
   1  11   6 1671.71 102.954   2
  -1  11  -6 1836.16 67.4771   3
  -1 -11  -6 1742.09 91.5097   1
  -1  11  -7 316.035 32.3332   3
  -1 -11  -7 236.466 44.9669   1
   1  11   7 287.128 55.9676   2
  -1  11  -8 3049.19 82.1994   3
   1  11   8 2773.76 140.363   2
   1  11   9 8596.13 244.723   2
  -1  11  -9 8746.85 136.545   3
  -1  11 -10 1770.95 63.2197   3
   1  11  10 1783.23 121.651   2
  -1  11 -11 2312.91 73.1498   3
   1  11  11 2159.60 137.105   2
   1  11  12 2908.92 158.740   2
  -1  11 -12 3237.15 88.1032   3
   1  11  13 6370.43 236.634   2
  -1  11 -13 6372.26 126.042   3
   1  11  14 80.2922 60.1496   2
  -1  11 -14 33.3748 20.3124   3
  -1  11 -15 3540.22 102.214   3
   1  11  15 3351.10 184.035   2
   1  11  16 594.238 93.9927   2
   1  11  17 314.541 78.9200   2
   1  11  18 57.0772 61.4372   2
   1  11  19 2197.82 163.706   2
   1  11  20 20.1757 65.2338   2
   1  11  21 511.136 94.2384   2
   1  11  22 8.39228 65.6252   2
   1  11  23 34.8902 62.4089   2
   1  11  24 250.485 81.6228   2
   1  11  25 912.529 127.154   2
   1  11  26 57.2966 70.9930   2
  -1  12  26 711.155 112.807   2
  -1  12  25 585.632 106.162   2
  -1  12  24 422.755 100.482   2
  -1  12  23 3289.47 213.979   2
  -1  12  22-9.10503 64.1878   2
  -1  12  21 205.160 76.7830   2
  -1  12  20 696.790 107.455   2
  -1  12  19 7286.70 291.426   2
  -1  12  18 1693.56 145.720   2
  -1  12  17 3281.19 193.200   2
  -1  12  16 20.7119 53.2121   2
  -1  12  15 648.613 86.1659   2
  -1  12  14 9345.20 295.725   2
  -1  12  13 9110.32 282.507   2
  -1  12  12 1858.11 135.487   2
  -1  12  11 12895.6 317.661   2
  -1  12  10 1186.60 105.317   2
  -1  12   9 1719.69 117.519   2
  -1  12   8-27.7275 44.6020   2
  -1  12   7 8997.28 238.269   2
   1  12  -6 994.518 30.6205   2
  -1  12   6 1202.65 92.3052   2
  -1  12   5 196.779 44.4868   2
  -1 -12   5 184.433 19.3108   3
   1  12  -5 149.776 18.7117   2
   1  12  -4 2553.93 71.6721   2
  -1 -12   4 2450.02 68.4645   3
  -1  12   4 2466.79 113.878   2
  -1 -12   4 2557.48 69.6699   2
   1  12  -3 882.404 48.3782   2
  -1 -12   3 818.534 45.4614   3
  -1  12   3 761.814 69.2170   3
  -1  12   3 872.133 80.2128   1
  -1  12   3 880.132 69.7968   2
   1 -12  -3 917.002 68.2911   3
  -1 -12   3 760.220 46.5420   2
   1  12  -2 1678.84 71.4832   2
  -1  12   2 1553.88 102.627   1
   1 -12  -2 1809.32 90.3206   3
  -1 -12   2 1559.22 66.0300   2
  -1  12   2 1535.92 88.4797   3
  -1  12   2 1540.53 86.6170   2
  -1 -12   2 1519.78 65.3686   3
  -1  12   1 3143.53 141.051   1
  -1  12   1 2881.12 114.945   3
   1 -12  -1 3059.52 113.485   3
  -1 -12   1 2912.05 96.6886   2
   1  12  -1 3042.41 102.020   2
  -1 -12   1 3127.06 98.6238   3
  -1  12   1 2870.46 108.298   2
   1 -12   0-18.0467 28.5182   3
  -1  12   0 62.7318 32.2418   2
   1  12   0-32.0296 50.3762   1
  -1  12   0 26.4905 45.6421   1
  -1 -12   0 40.3020 29.1296   2
  -1 -12   0 36.1576 25.1772   3
  -1  12   0-0.06788 27.4262   3
   1  12   0 56.1374 30.8934   2
   1  12   1 9246.95 193.848   2
   1 -12   1 9532.85 180.577   3
   1  12   1 9444.03 225.158   1
  -1  12  -1 9331.50 237.302   1
  -1 -12  -1 8737.53 183.361   2
  -1  12  -1 9202.16 186.797   3
  -1 -12  -1 9004.90 186.897   3
  -1  12  -1 9173.42 169.249   2
   1  12   2 7820.72 188.691   2
   1 -12   2 8254.18 162.763   3
  -1  12  -2 8131.20 221.272   1
  -1  12  -2 7748.80 167.019   3
  -1 -12  -2 8156.46 184.609   3
   1  12   2 7972.23 206.626   1
  -1 -12  -2 8135.79 184.795   2
  -1  12  -2 8019.62 145.105   2
  -1 -12  -3 3581.84 129.228   3
  -1 -12  -3 3807.57 133.207   2
  -1  12  -3 3828.24 91.9220   2
   1  12   3 3647.31 142.623   1
  -1  12  -3 3717.35 111.098   3
   1  12   3 3725.14 136.810   2
   1 -12   3 3799.80 106.888   3
   1  12   4 261.533 49.1732   2
   1 -12   4 247.506 32.1898   3
   1  12   4 180.050 53.4523   1
  -1  12  -4 244.269 25.0330   2
  -1  12  -4 211.944 32.7768   3
  -1  12  -5 2322.14 80.2137   3
   1  12   5 2307.37 120.638   2
  -1  12  -5 2181.74 51.7852   2
   1  12   6 1377.23 99.7594   2
  -1  12  -6 1511.15 65.0150   3
  -1  12  -7 220.424 28.5436   3
   1  12   7 151.366 47.9760   2
  -1  12  -8 3322.97 86.5883   3
   1  12   8 3348.68 154.905   2
   1  12   9 283.739 61.7503   2
  -1  12  -9 379.870 31.1021   3
   1  12  10 3419.42 165.651   2
  -1  12 -10 3517.73 86.6949   3
   1  12  11 160.744 60.4313   2
  -1  12 -11 231.785 26.5784   3
   1  12  12 2632.60 156.517   2
  -1  12 -12 2640.33 76.7895   3
   1  12  13 323.332 72.2591   2
  -1  12 -13 299.751 29.7725   3
   1  12  14 2412.05 156.953   2
  -1  12 -14 2565.78 80.1963   3
   1  12  15 185.342 72.1999   2
  -1  12 -15 177.195 27.8886   3
  -1  12 -16 1981.13 75.2783   3
   1  12  16 1708.49 141.916   2
   1  12  17 5862.06 254.982   2
   1  12  18 1212.37 129.563   2
   1  12  19 40.2873 63.8018   2
   1  12  20 113.615 73.1122   2
   1  12  21 1315.54 137.255   2
   1  12  22-80.5731 72.1088   2
   1  12  23 2894.28 204.271   2
   1  12  24 922.738 133.254   2
   1  12  25 7.01305 69.4846   2
  -1  13  25 658.630 120.749   2
  -1  13  24 442.785 104.505   2
  -1  13  23 17.7410 65.7975   2
  -1  13  22 1839.06 164.571   2
  -1  13  21 1791.69 158.081   2
  -1  13  20 1165.20 131.516   2
  -1  13  19 694.895 109.112   2
  -1  13  18 1011.36 122.256   2
  -1  13  17 187.234 71.9566   2
  -1  13  16 289.528 79.3736   2
  -1  13  15 251.545 71.9077   2
  -1  13  14 368.550 77.6165   2
  -1  13  13 432.309 82.1706   2
  -1  13  12 115.410 68.3620   2
  -1  13  11 1719.46 128.004   2
  -1  13  10 7095.41 238.535   2
  -1  13   9 1669.25 117.161   2
  -1  13   8 10059.0 262.471   2
  -1  13   7 1738.60 115.106   2
  -1  13   6 1139.70 90.4290   2
   1  13  -6 1060.44 35.3617   2
  -1 -13   6 1141.24 39.0652   3
  -1 -13   5 3136.78 73.0132   3
   1  13  -5 3026.41 72.2733   2
  -1  13   5 2992.69 136.726   2
   1  13  -4 171.560 26.9101   2
  -1 -13   4 113.120 22.2841   3
  -1  13   4 165.636 47.0492   2
  -1 -13   4 151.896 23.8281   2
  -1 -13   3 2373.75 79.7054   3
  -1  13   3 2719.39 136.839   1
  -1  13   3 2542.23 115.348   2
  -1 -13   3 2534.32 80.3024   2
   1  13  -3 2608.25 84.0093   2
  -1  13   2 2785.08 121.202   3
  -1  13   2 2801.59 116.249   2
  -1 -13   2 2747.67 91.2705   3
   1 -13  -2 2988.65 119.730   3
  -1  13   2 2936.73 141.623   1
  -1 -13   2 2700.00 91.6702   2
   1  13  -2 2873.04 96.0096   2
   1  13  -1 2639.49 98.5594   2
  -1  13   1 2451.56 130.276   1
   1  13  -1 2501.92 127.646   1
  -1 -13   1 2465.59 92.9839   3
   1 -13  -1 2620.16 107.907   3
  -1  13   1 2509.70 112.382   3
  -1  13   1 2445.87 104.447   2
  -1 -13   1 2308.32 91.8354   2
   1 -13   0 6797.44 165.953   3
  -1  13   0 6677.93 159.208   2
  -1  13   0 6564.31 207.076   1
   1  13   0 6526.19 197.011   1
  -1  13   0 6538.51 169.978   3
  -1 -13   0 6587.47 158.365   2
  -1 -13   0 6741.07 158.231   3
   1  13   0 6777.22 163.225   2
   1  13   1 20.3699 43.5527   1
   1  13   1 5.70259 30.7730   2
  -1  13  -1-6.00817 29.2194   3
   1 -13   1 40.6023 25.9098   3
  -1 -13  -1-19.5244 25.6717   3
  -1  13  -1-8.19862 43.8488   1
  -1  13  -1 36.1783 27.6678   2
  -1 -13  -1 51.3612 31.6445   2
  -1 -13  -2 6792.82 175.391   2
  -1  13  -2 6932.73 140.995   2
   1 -13   2 7096.11 158.006   3
  -1  13  -2 6763.55 160.686   3
   1  13   2 7081.89 183.786   2
  -1  13  -2 7163.56 218.412   1
   1  13   2 6809.67 200.877   1
  -1 -13  -2 7032.94 176.953   3
  -1  13  -3 43.3159 19.5261   2
   1 -13   3 11.8156 20.3287   3
   1  13   3 32.6955 37.9437   2
   1  13   3 84.1731 52.4607   1
  -1  13  -3 36.7353 27.2856   3
  -1 -13  -3 68.2884 34.0634   3
  -1 -13  -3 44.7699 27.9158   2
  -1  13  -4 2627.18 96.0175   3
   1 -13   4 2676.29 91.4289   3
   1  13   4 2498.42 123.148   2
  -1  13  -4 2708.56 71.9699   2
   1  13   4 2890.34 134.191   1
  -1  13  -5 3363.57 101.076   3
   1  13   5 3410.58 146.392   2
  -1  13  -5 3162.91 66.1991   2
  -1  13  -6 946.526 53.5392   3
   1  13   6 862.102 82.5093   2
   1  13   7 5721.14 198.381   2
  -1  13  -7 6170.21 123.504   3
  -1  13  -8 2190.76 71.5204   3
   1  13   8 2101.00 128.131   2
  -1  13  -9 309.043 29.5029   3
   1  13   9 227.260 63.2374   2
   1  13  10 496.097 77.4337   2
  -1  13 -10 453.837 34.1415   3
   1  13  11 53.8586 49.4442   2
  -1  13 -11 163.763 21.9455   3
  -1  13 -12 512.114 34.7364   3
   1  13  12 490.194 81.8863   2
  -1  13 -13 424.238 32.0360   3
   1  13  13 399.398 81.1192   2
   1  13  14 3034.42 178.550   2
  -1  13 -14 3198.90 83.0174   3
   1  13  15 710.587 103.745   2
  -1  13 -15 687.147 41.9893   3
   1  13  16 1814.16 151.485   2
   1  13  17 86.0176 63.8254   2
   1  13  18 78.6624 70.7552   2
   1  13  19 1099.39 129.599   2
   1  13  20 3802.02 220.865   2
   1  13  21 588.759 106.406   2
   1  13  22 1517.64 152.394   2
   1  13  23 598.530 123.091   2
   1  13  24 3673.77 239.110   2
  -1  14  24 3642.79 236.484   2
  -1  14  23 125.673 68.1776   2
  -1  14  22 2562.21 192.748   2
  -1  14  21-25.4474 62.6040   2
  -1  14  20 2281.06 177.464   2
  -1  14  19 258.062 84.1877   2
  -1  14  18 139.798 77.8403   2
  -1  14  17 25.0127 65.5047   2
  -1  14  16 948.272 114.240   2
  -1  14  15 1497.24 132.635   2
  -1  14  14 434.981 80.7578   2
  -1  14  13 565.364 92.8044   2
  -1  14  12 14523.6 360.413   2
  -1  14  11 1383.86 119.996   2
  -1  14  10 5412.63 212.027   2
  -1  14   9 377.160 71.8896   2
  -1  14   8 548.668 75.7258   2
  -1  14   7 220.263 57.6879   2
  -1  14   6 0.96907 46.0401   2
  -1 -14   6 16.7758 10.8595   3
   1  14  -6 20.9848 9.37970   2
  -1  14   5 1876.16 110.584   2
  -1 -14   5 1845.00 60.2446   3
   1  14  -5 1788.92 59.0565   2
  -1 -14   4 1424.28 59.9432   3
   1  14  -4 1428.22 60.5179   2
  -1  14   4 1266.42 88.8454   2
  -1  14   3 189.498 62.5064   1
  -1 -14   3 187.014 31.0816   3
  -1 -14   3 183.676 29.2124   2
   1  14  -3 201.590 32.4198   2
  -1  14   3 176.665 46.7061   2
  -1 -14   2 45.6890 22.4905   3
   1  14  -2 21.2174 26.4112   2
  -1  14   2 84.9521 38.4010   2
  -1  14   2 48.6847 47.8077   1
  -1 -14   2 42.2551 23.0270   2
   1  14  -1 1902.21 86.0451   2
  -1 -14   1 1836.58 82.3193   2
  -1  14   1 1819.14 100.034   3
  -1 -14   1 1925.67 85.1742   3
   1 -14  -1 1899.37 94.2190   3
   1  14  -1 1723.16 113.026   1
  -1  14   1 1782.11 91.9198   2
  -1  14   1 1874.22 121.499   1
  -1 -14   0 4057.16 127.679   3
  -1 -14   0 3954.00 126.937   2
  -1  14   0 4269.78 131.035   2
   1  14   0 4133.71 168.085   1
   1  14   0 4243.64 135.097   2
  -1  14   0 4134.55 172.488   1
  -1  14   0 4048.60 139.535   3
   1 -14   0 4253.53 135.857   3
  -1  14  -1 734.967 62.4078   3
  -1  14  -1 734.950 81.0139   1
   1  14   1 835.137 70.0282   2
  -1 -14  -1 745.936 60.8076   3
   1  14   1 788.910 81.6393   1
   1 -14   1 712.718 56.4434   3
  -1  14  -1 786.604 57.3301   2
  -1 -14  -1 750.015 61.9367   2
  -1  14  -2 166.079 52.0550   1
  -1 -14  -2 178.909 41.1192   3
   1  14   2 163.019 39.5907   2
   1 -14   2 163.592 33.2254   3
   1  14   2 265.800 60.1303   1
  -1  14  -2 197.495 41.1979   3
  -1  14  -2 208.269 34.1742   2
  -1 -14  -2 258.214 43.3579   2
   1  14   3 330.643 56.7725   2
  -1  14  -3 323.423 42.7423   3
   1  14   3 397.500 64.7041   1
   1 -14   3 301.695 35.9973   3
  -1  14  -3 249.260 56.4768   1
  -1  14  -3 366.192 34.5349   2
   1 -14   4 7308.11 153.131   3
  -1  14  -4 7364.05 124.311   2
  -1  14  -4 7162.55 160.003   3
   1  14   4 7219.32 213.693   1
   1  14   4 6933.13 202.833   2
  -1  14  -5 1219.38 44.3133   2
  -1  14  -5 1303.36 67.3078   3
   1  14   5 1277.64 96.6554   2
   1  14   6 6931.38 215.444   2
  -1  14  -6 7066.21 143.890   3
   1  14   7 5.49263 45.3298   2
  -1  14  -7 14.0794 21.2718   3
  -1  14  -8 321.672 31.8055   3
   1  14   8 247.761 59.1973   2
  -1  14  -9 224.801 25.6699   3
   1  14   9 237.686 68.5386   2
   1  14  10 2173.43 144.436   2
  -1  14 -10 2117.26 66.2760   3
   1  14  11 2573.22 156.404   2
  -1  14 -11 2685.61 73.4615   3
  -1  14 -12 346.119 27.9691   3
   1  14  12 376.016 75.0544   2
   1  14  13 133.323 60.4142   2
  -1  14 -13 86.1797 16.2139   3
   1  14  14 94.6632 67.4887   2
   1  14  15 2160.63 161.845   2
   1  14  16 10172.3 335.622   2
   1  14  17 4081.96 220.968   2
   1  14  18 3893.57 221.117   2
   1  14  19 256.930 81.9485   2
   1  14  20 127.509 72.9415   2
   1  14  21 248.547 78.3440   2
   1  14  22 3004.64 210.621   2
   1  14  23 333.987 97.2676   2
   1  14  24 3316.83 233.436   2
  -1  15  23 751.641 121.635   2
  -1  15  22 1185.17 143.734   2
  -1  15  21 3645.29 223.451   2
  -1  15  20 599.229 106.521   2
  -1  15  19-0.32552 65.5646   2
  -1  15  18 27.2154 62.9495   2
  -1  15  17 377.809 86.5590   2
  -1  15  16 805.380 106.456   2
  -1  15  15 709.602 101.578   2
  -1  15  14 818.447 103.329   2
  -1  15  13 1741.15 143.762   2
  -1  15  12 1383.10 121.441   2
  -1  15  11 2692.49 159.264   2
  -1  15  10 674.169 86.0773   2
  -1  15   9 2807.20 153.122   2
  -1  15   8 39.9480 45.0590   2
  -1  15   7 7048.49 226.900   2
  -1 -15   6 2099.46 61.7002   3
  -1  15   6 2464.81 133.700   2
   1  15  -6 2070.60 53.4182   2
   1  15  -5 210.035 24.4423   2
  -1 -15   5 250.063 27.2811   3
  -1  15   5 181.872 50.8574   2
  -1  15   4 11.4871 38.6998   2
  -1 -15   4 37.4262 19.8256   3
   1  15  -4 45.2394 21.5171   2
   1  15  -3 7602.30 153.146   2
  -1 -15   3 7347.04 150.439   3
  -1  15   3 7680.42 238.755   1
  -1  15   3 7496.44 202.910   2
   1  15  -2 129.430 54.1279   1
  -1  15   2 45.5879 34.1239   2
  -1  15   2 95.5778 55.4421   1
  -1 -15   2 62.1259 24.4703   3
   1  15  -2 60.1642 30.6075   2
  -1 -15   2 63.5817 27.2086   2
  -1  15   1 144.254 52.1846   1
   1  15  -1 31.9953 49.3184   1
   1  15  -1 101.018 33.3836   2
  -1 -15   1 70.9106 25.7348   3
  -1 -15   1 120.795 31.1933   2
  -1  15   1 181.654 41.6381   2
   1  15   0 926.377 70.0628   2
  -1  15   0 868.789 65.2990   2
  -1  15   0 891.047 93.7882   1
  -1 -15   0 972.612 66.8106   3
   1 -15   0 941.225 67.6487   3
   1  15   0 1015.57 96.3173   1
  -1 -15   0 1019.65 67.5586   2
  -1 -15  -1 5081.55 150.920   2
   1  15   1 4948.95 187.185   1
  -1  15  -1 4855.38 151.889   3
  -1 -15  -1 4948.05 148.390   3
   1 -15   1 5185.14 147.202   3
  -1  15  -1 5027.60 138.765   2
   1  15   1 5078.91 160.285   2
  -1  15  -1 5333.44 203.528   1
   1  15   2 923.692 77.5990   2
  -1  15  -2 824.743 90.4619   1
   1 -15   2 937.097 63.2701   3
  -1  15  -2 952.394 60.5875   2
   1  15   2 839.673 87.9304   1
  -1  15  -2 1013.48 70.3403   3
  -1  15  -3 3648.02 101.358   2
   1  15   3 3515.64 144.483   2
   1 -15   3 3629.40 116.306   3
   1  15   3 3657.28 162.474   1
  -1  15  -3 3348.74 164.766   1
  -1  15  -3 3496.53 120.206   3
  -1  15  -4 5329.61 110.065   2
   1 -15   4 5171.82 132.756   3
   1  15   4 5453.73 194.898   1
   1  15   4 5191.79 183.013   2
  -1  15  -4 4998.76 138.562   3
  -1  15  -5 1544.76 51.5059   2
   1  15   5 1559.97 108.461   2
  -1  15  -5 1620.03 76.5912   3
   1 -15   5 1657.16 74.0879   3
   1  15   6 5.44623 46.0968   2
  -1  15  -6 32.2973 25.7688   3
  -1  15  -7 3268.62 97.2410   3
   1  15   7 3145.54 154.736   2
   1  15   8 723.331 81.8322   2
  -1  15  -8 885.638 50.3751   3
  -1  15  -9 289.839 29.6143   3
   1  15   9 295.338 68.6485   2
   1  15  10 71.2464 50.1940   2
  -1  15 -10 31.8414 16.1747   3
   1  15  11 26.7440 53.3308   2
  -1  15 -11-1.37058 11.2154   3
   1  15  12 272.769 69.7919   2
  -1  15 -12 328.206 24.2074   3
   1  15  13 3592.41 194.866   2
   1  15  14 950.387 112.600   2
   1  15  15 3482.37 199.572   2
   1  15  16 1795.10 150.958   2
   1  15  17 160.882 76.6217   2
   1  15  18 1444.71 142.725   2
   1  15  19 2111.48 175.917   2
   1  15  20 1212.51 140.030   2
   1  15  21 3780.35 234.672   2
   1  15  22 228.462 81.8632   2
   1  15  23 348.059 97.1383   2
  -1  16  23 1151.69 148.182   2
  -1  16  22 1464.37 159.595   2
  -1  16  21 208.192 88.3456   2
  -1  16  20 1032.88 130.140   2
  -1  16  19 1244.53 135.108   2
  -1  16  18 92.0011 75.3813   2
  -1  16  17 1124.14 131.192   2
  -1  16  16 207.845 71.9327   2
  -1  16  15 24.9086 57.4623   2
  -1  16  14 37.3017 60.7515   2
  -1  16  13 2625.86 168.384   2
  -1  16  12 4250.14 205.807   2
  -1  16  11 3379.42 181.229   2
  -1  16  10 504.777 84.4238   2
  -1  16   9 98.6680 54.8614   2
  -1  16   8 1015.31 99.0916   2
  -1  16   7 636.836 78.4847   2
  -1 -16   6 800.503 41.2372   3
   1  16  -6 756.386 34.7943   2
  -1  16   6 923.320 88.5140   2
  -1 -16   5 998.375 50.0262   3
   1  16  -5 1029.38 49.0175   2
  -1  16   5 1035.53 87.9518   2
  -1 -16   4 836.518 51.4080   3
  -1  16   4 952.513 84.6591   2
   1  16  -4 938.869 53.4436   2
  -1  16   3 1607.16 119.280   1
  -1 -16   3 1595.65 73.4126   3
  -1  16   3 1514.42 100.254   2
   1  16  -3 1638.54 77.2007   2
   1  16  -2 1742.49 124.466   1
  -1  16   2 1649.54 124.117   1
   1  16  -2 1775.66 85.0273   2
  -1 -16   2 1629.80 79.0198   3
  -1  16   2 1632.47 98.5383   2
  -1 -16   1 228.782 36.3939   3
   1  16  -1 245.813 40.5920   2
  -1  16   1 264.997 64.8299   1
  -1  16   1 326.089 50.5855   2
   1  16  -1 178.821 61.6885   1
  -1 -16   0 2680.19 107.504   2
   1  16   0 2636.22 113.253   2
  -1  16   0 2575.59 109.948   2
  -1  16   0 2665.14 152.487   1
  -1 -16   0 2671.69 107.901   3
   1  16   0 2753.55 150.139   1
  -1  16  -1 7363.35 245.730   1
   1  16   1 7400.50 235.919   1
   1  16   1 7343.00 195.758   2
  -1  16  -1 7397.99 172.078   2
   1 -16   1 7349.27 176.609   3
  -1  16  -2 377.513 41.0365   2
  -1  16  -2 360.875 72.8736   1
   1  16   2 306.584 69.4687   1
   1  16   2 383.591 59.8259   2
   1 -16   2 394.000 45.8229   3
  -1  16  -3-50.5877 66.6386   1
   1  16   3-17.0053 36.4604   2
   1  16   3 50.6352 48.5528   1
   1 -16   3 2.43866 22.8677   3
  -1  16  -3 33.5107 24.2745   2
  -1  16  -3 1.31848 28.2248   3
   1 -16   4 9305.56 180.345   3
  -1  16  -4 9179.47 190.034   3
  -1  16  -4 9421.59 280.500   1
   1  16   4 9337.19 259.048   1
   1  16   4 8988.94 243.649   2
  -1  16  -4 9761.33 153.910   2
  -1  16  -5 2275.40 65.1365   2
   1 -16   5 2415.47 89.8498   3
   1  16   5 2164.16 129.372   2
  -1  16  -5 2433.97 95.8543   3
  -1  16  -6 580.015 49.7789   3
   1  16   6 386.914 65.9729   2
  -1  16  -6 336.341 18.7672   2
   1  16   7 1534.35 114.800   2
  -1  16  -7 1655.30 72.4317   3
   1  16   8 205.783 61.6946   2
  -1  16  -8 204.165 30.0632   3
  -1  16  -9 2992.87 85.8127   3
   1  16   9 2872.90 163.111   2
   1  16  10-62.1203 53.1931   2
  -1  16 -10-4.22177 12.6697   3
   1  16  11 946.801 105.292   2
   1  16  12 104.156 66.1311   2
   1  16  13 129.798 57.4624   2
   1  16  14 64.1820 59.1278   2
   1  16  15 31.4013 57.9034   2
   1  16  16 786.812 112.356   2
   1  16  17 7370.40 298.834   2
   1  16  18 88.9778 72.5467   2
   1  16  19 1229.45 139.677   2
   1  16  20 233.052 90.5500   2
   1  16  21 11.2126 66.1762   2
   1  16  22-133.301 84.7702   2
  -1  17  22 1221.97 150.872   2
  -1  17  21 922.824 131.595   2
  -1  17  20 555.417 105.558   2
  -1  17  19 38.9628 63.3947   2
  -1  17  18-87.4725 74.0764   2
  -1  17  17 110.527 69.9162   2
  -1  17  16 1680.04 153.814   2
  -1  17  15 19.8552 60.0281   2
  -1  17  14 8162.73 303.068   2
  -1  17  13 361.866 85.8709   2
  -1  17  12-10.6919 58.8952   2
  -1  17  11 118.781 60.3041   2
  -1  17  10 12101.8 332.813   2
  -1  17   9 4128.66 194.206   2
  -1  17   8 2970.75 161.596   2
  -1  17   7 845.212 88.0025   2
  -1  17   6 130.465 51.5893   2
   1  17  -6 83.3515 15.4559   2
  -1 -17   5 235.607 28.4737   3
  -1  17   5 119.176 44.4901   2
   1  17  -5 263.894 29.7592   2
  -1  17   4 673.771 78.6544   2
   1  17  -4 639.545 47.7380   2
  -1 -17   4 700.056 49.0361   3
  -1  17   3 1193.91 112.955   1
  -1  17   3 960.958 82.2629   2
  -1 -17   3 1180.74 65.3765   3
   1  17  -3 1166.03 67.7318   2
   1  17  -3 1144.66 108.279   1
   1  17  -2 312.782 72.0901   1
  -1  17   2 320.573 74.4961   1
   1  17  -2 205.345 37.4706   2
  -1  17   2 229.079 45.3316   2
  -1 -17   2 291.082 40.2290   3
  -1 -17   1 1173.09 71.8810   3
  -1  17   1 1176.78 110.228   1
   1  17  -1 1147.81 74.7798   2
   1  17  -1 1090.20 103.490   1
  -1  17   1 1187.54 83.3610   2
   1  17   0 874.963 71.1235   2
  -1  17   0 807.573 67.9285   2
  -1  17   0 880.736 97.5970   1
   1  17   0 976.461 100.089   1
  -1  17  -1 1633.54 130.711   1
   1  17   1 1368.80 113.718   1
   1  17   1 1455.53 93.6490   2
  -1  17  -1 1440.31 81.1097   2
   1  17   2 10917.1 254.086   2
  -1  17  -2 11548.5 206.725   2
   1 -17   2 11337.5 214.024   3
   1  17   2 10995.8 295.616   1
  -1  17  -2 10189.6 300.323   1
   1  17   3-12.6459 51.9328   1
  -1  17  -3 52.8174 26.5406   2
   1 -17   3 44.8778 22.3652   3
  -1  17  -3-81.3286 67.1122   1
   1  17   3 71.6940 44.5173   2
   1 -17   4 174.877 33.9301   3
  -1  17  -4 131.120 26.6372   2
   1  17   4 96.0479 45.0509   2
  -1  17  -4 173.566 57.8054   1
   1  17   4 165.566 66.1929   1
   1 -17   5 1122.09 63.7256   3
   1  17   5 1059.86 96.8789   2
  -1  17  -5 1000.52 45.8260   2
  -1  17  -5 985.357 104.586   1
   1  17   6 1015.03 98.0382   2
   1  17   7 2329.25 141.937   2
   1  17   8 3639.15 180.466   2
   1  17   9 1148.63 111.728   2
   1  17  10 859.541 104.705   2
   1  17  11 1139.09 117.116   2
   1  17  12 14145.1 377.828   2
   1  17  13 622.610 100.272   2
   1  17  14 482.199 85.8305   2
   1  17  15 691.021 103.048   2
   1  17  16 63.5055 65.9182   2
   1  17  17 182.355 83.2286   2
   1  17  18 123.769 73.4950   2
   1  17  19 102.858 72.9731   2
   1  17  20 1266.87 144.801   2
   1  17  21 315.592 93.5233   2
  -1  18  21 320.267 99.5047   2
  -1  18  20 447.588 102.505   2
  -1  18  19 1452.90 151.545   2
  -1  18  18 2781.05 197.320   2
  -1  18  17 791.117 119.317   2
  -1  18  16 2309.08 174.926   2
  -1  18  15 22.4985 59.0983   2
  -1  18  14 2038.92 157.853   2
  -1  18  13 55.5434 66.4220   2
  -1  18  12 4852.46 224.713   2
  -1  18  11 96.1815 63.9822   2
  -1  18  10 5683.69 235.300   2
  -1  18   9 2420.76 151.352   2
  -1  18   8 902.548 98.7000   2
  -1  18   7 4970.12 202.950   2
  -1  18   6 2732.94 147.586   2
   1  18  -6 2062.54 59.1548   2
  -1  18   5 4852.24 191.784   2
   1  18  -5 4799.35 109.864   2
   1  18  -4 1381.03 68.9557   2
  -1  18   4 1286.96 102.068   2
  -1  18   3 1771.26 113.097   2
   1  18  -3 1836.13 85.6513   2
  -1  18   3 1788.44 134.268   1
   1  18  -3 1827.04 135.224   1
  -1  18   2 2812.78 166.407   1
   1  18  -2 3141.76 118.334   2
   1  18  -2 3055.44 169.546   1
  -1  18   2 3005.09 135.847   2
  -1  18   1 794.954 101.504   1
  -1  18   1 862.408 75.1956   2
   1  18  -1 797.001 99.6323   1
   1  18  -1 841.452 69.5012   2
   1  18   0 7278.76 252.667   1
  -1  18   0 7488.06 263.460   1
   1  18   0 7385.79 196.386   2
  -1  18   0 7574.16 193.565   2
   1  18   1 1615.08 127.796   1
  -1  18  -1 1639.62 132.194   1
  -1  18  -1 1711.94 90.1929   2
   1  18   1 1844.03 105.990   2
  -1  18  -2 976.934 107.668   1
   1  18   2 971.297 85.0965   2
   1  18   2 1044.26 110.122   1
  -1  18  -2 953.640 67.2918   2
   1  18   3 919.068 102.143   1
  -1  18  -3 1056.73 63.2946   2
  -1  18  -3 862.220 103.491   1
   1  18   3 853.253 84.4598   2
   1  18   4 5543.39 198.275   2
  -1  18  -4 5608.77 125.237   2
  -1  18  -4 5453.11 231.059   1
   1  18   4 5487.22 218.644   1
  -1  18  -5 219.090 25.3931   2
   1  18   5 215.402 59.3730   2
  -1  18  -5 200.285 63.3208   1
  -1  18  -6 1965.23 148.731   1
   1  18   6 2173.65 138.260   2
   1  18   7 2586.87 158.164   2
   1  18   8-20.7582 53.0969   2
   1  18   9 49.4310 54.0349   2
   1  18  10 4110.79 203.213   2
   1  18  11 248.919 72.6511   2
   1  18  12 202.078 77.2038   2
   1  18  13 483.146 95.7733   2
   1  18  14 2573.52 177.156   2
   1  18  15 768.908 110.215   2
   1  18  16 2725.30 192.874   2
   1  18  17 324.698 93.8233   2
   1  18  18 4450.47 248.667   2
   1  18  19 29.7604 68.7840   2
   1  18  20 50.7692 74.0056   2
  -1  19  20 1909.85 181.967   2
  -1  19  19 544.913 108.809   2
  -1  19  18 952.226 127.392   2
  -1  19  17 147.162 66.0373   2
  -1  19  16 119.789 68.1577   2
  -1  19  15 2353.68 179.068   2
  -1  19  14 2479.36 177.621   2
  -1  19  13 959.015 118.086   2
  -1  19  12 69.0886 66.8227   2
  -1  19  11 2343.08 160.606   2
  -1  19  10 4637.41 215.167   2
  -1  19   9 6029.79 238.159   2
  -1  19   8 2325.58 149.605   2
  -1  19   7 832.370 97.6775   2
  -1  19   6 265.874 56.6472   2
  -1  19   5 3897.59 173.088   2
   1  19  -4 7658.72 274.425   1
  -1  19   4 7673.41 234.797   2
   1  19  -4 8028.34 163.733   2
   1  19  -3 1949.95 90.7555   2
   1  19  -3 2085.16 152.620   1
  -1  19   3 1748.93 133.526   1
  -1  19   3 2049.54 124.032   2
   1  19  -2 4538.21 143.568   2
  -1  19   2 4504.66 167.410   2
  -1  19   2 4449.20 209.891   1
   1  19  -2 4454.45 208.492   1
   1  19  -1 2186.29 107.798   2
  -1  19   1 2356.65 162.488   1
   1  19  -1 2012.71 146.616   1
  -1  19   1 2137.03 114.730   2
   1  19   0 537.132 88.4009   1
  -1  19   0 590.691 63.0590   2
   1  19   0 684.216 68.0038   2
  -1  19   0 547.412 91.3865   1
  -1  19  -1 243.366 44.6021   2
   1  19   1 300.627 76.9425   1
   1  19   1 188.476 48.9635   2
  -1  19  -1 254.798 75.4914   1
  -1  19  -2 9256.92 304.904   1
   1  19   2 9081.39 242.064   2
   1  19   2 9437.69 287.490   1
  -1  19  -2 9630.59 201.048   2
   1  19   3 1406.53 122.299   1
   1  19   3 1121.82 93.4612   2
  -1  19  -3 1094.86 116.770   1
  -1  19  -3 1269.71 70.9259   2
  -1  19  -4 2720.37 175.565   1
   1  19   4 2858.08 151.522   2
  -1  19  -4 3020.42 94.9730   2
   1  19   5 1309.51 109.697   2
  -1  19  -5 1147.84 117.429   1
  -1  19  -6 1041.87 114.678   1
   1  19   6 1052.50 104.558   2
   1  19   7 411.468 77.4372   2
   1  19   8 1751.95 134.007   2
   1  19   9 77.0270 57.8208   2
   1  19  10-9.26448 54.5010   2
   1  19  11 3423.31 195.969   2
   1  19  12 285.794 77.0595   2
   1  19  13 2827.13 185.907   2
   1  19  14 1486.66 141.999   2
   1  19  15 1497.82 143.639   2
   1  19  16 6.39025 64.2992   2
   1  19  17 128.418 80.3334   2
   1  19  18 1650.55 168.881   2
   1  19  19 546.866 106.023   2
  -1  20  19 2057.65 181.477   2
  -1  20  18 31.3583 72.7118   2
  -1  20  17 1118.98 134.631   2
  -1  20  16 86.5760 73.1349   2
  -1  20  15 329.837 84.3621   2
  -1  20  14 209.981 78.2699   2
  -1  20  13 9331.46 326.233   2
  -1  20  12 53.7552 58.7357   2
  -1  20  11 1431.35 133.741   2
  -1  20  10 11.9216 50.4678   2
  -1  20   9 217.094 66.7554   2
  -1  20   8 1359.01 120.205   2
  -1  20   7 2649.98 157.009   2
  -1  20   6 2485.80 149.531   2
   1  20  -5 4983.21 231.652   1
  -1  20   5 4845.36 196.727   2
   1  20  -4 1621.58 139.986   1
  -1  20   4 1509.92 111.627   2
  -1  20   3 912.343 88.0354   2
   1  20  -3 870.111 64.5684   2
   1  20  -3 828.295 105.480   1
   1  20  -2 662.267 95.7460   1
  -1  20   2 790.425 79.5498   2
  -1  20   2 860.936 110.209   1
   1  20  -2 845.997 67.6529   2
   1  20  -1 11720.3 249.042   2
   1  20  -1 11851.9 338.472   1
  -1  20   1 12006.1 267.368   2
  -1  20   1 12114.7 349.596   1
   1  20   0-1.13129 55.3272   1
  -1  20   0-1.19635 55.4450   1
   1  20   0 44.8678 38.0061   2
  -1  20   0 45.8750 37.2511   2
  -1  20  -1 416.053 53.9312   2
  -1  20  -1 491.067 89.7888   1
   1  20   1 632.043 96.0214   1
   1  20   1 442.025 59.1189   2
   1  20   2 614.786 75.9227   2
   1  20   2 637.617 94.7454   1
  -1  20  -2 517.864 94.4895   1
  -1  20  -2 701.583 63.5066   2
  -1  20  -3 353.809 83.9571   1
   1  20   3 293.167 59.0520   2
   1  20   3 571.732 89.8814   1
  -1  20  -4 779.268 109.496   1
   1  20   4 658.275 80.0807   2
   1  20   5 8312.44 260.873   2
  -1  20  -5 8620.71 307.608   1
   1  20   6 141.026 57.6468   2
  -1  20  -6 275.012 78.0791   1
   1  20   7 259.616 65.6217   2
  -1  20  -7 346.661 74.8971   1
   1  20   8 402.766 81.0430   2
   1  20   9 1728.11 138.827   2
   1  20  10 67.9375 65.5043   2
   1  20  11 1300.89 129.048   2
   1  20  12 93.0783 65.4548   2
   1  20  13 555.103 99.8522   2
   1  20  14 240.944 76.5221   2
   1  20  15 2066.79 170.258   2
   1  20  16-2.72127 63.2115   2
   1  20  17 2251.30 188.263   2
   1  20  18 27.9640 66.7137   2
  -1  21  18 1376.09 152.417   2
  -1  21  17 658.713 113.415   2
  -1  21  16 315.273 89.5813   2
  -1  21  15 2493.63 189.379   2
  -1  21  14-38.0971 57.8144   2
  -1  21  13 1254.80 133.502   2
  -1  21  12 737.125 106.167   2
  -1  21  11 1790.42 146.792   2
  -1  21  10 581.130 92.1797   2
  -1  21   9 5454.53 235.220   2
  -1  21   8 1138.52 113.207   2
  -1  21   7-66.6097 58.3553   2
  -1  21   6 233.570 64.1503   2
   1  21  -6 105.171 63.3599   1
   1  21  -5 862.232 114.272   1
  -1  21   5 879.541 93.4859   2
  -1  21   4-21.0252 42.3289   2
   1  21  -4 36.9517 57.4761   1
   1  21  -3 3488.97 195.034   1
  -1  21   3 3244.87 157.919   2
   1  21  -2 120.706 65.4135   1
  -1  21   2 135.620 58.0233   1
  -1  21   2 150.484 48.9168   2
   1  21  -1 1014.77 120.198   1
   1  21  -1 1103.70 83.2609   2
  -1  21   1 1225.59 127.328   1
  -1  21   1 1074.35 89.0196   2
   1  21   0 790.837 73.9420   2
  -1  21   0 955.142 81.5174   2
  -1  21   0 908.949 114.152   1
   1  21   0 952.894 113.895   1
  -1  21  -1 2888.69 124.377   2
   1  21   1 2804.34 139.814   2
   1  21   1 2886.73 179.325   1
  -1  21  -1 2560.10 172.128   1
  -1  21  -2 1419.25 135.602   1
   1  21   2 1228.29 99.5706   2
   1  21   2 1350.35 126.602   1
   1  21   3 2814.97 150.300   2
  -1  21  -3 2778.18 181.591   1
   1  21   3 2857.93 173.773   1
   1  21   4 283.886 66.1004   2
  -1  21  -4 299.857 77.1933   1
  -1  21  -5 123.641 71.0011   1
   1  21   5 358.458 70.9658   2
  -1  21  -6 12.8559 62.1000   1
   1  21   6 77.1553 52.6334   2
   1  21   7 1095.20 112.560   2
  -1  21  -7 999.907 119.554   1
   1  21   8 1226.97 116.912   2
  -1  21  -8 1249.03 125.688   1
   1  21   9 793.196 102.739   2
   1  21  10-15.0846 61.2038   2
   1  21  11-53.0182 60.6007   2
   1  21  12 197.389 72.7751   2
   1  21  13 1796.36 161.699   2
   1  21  14 2237.18 178.253   2
   1  21  15 1238.16 143.777   2
   1  21  16 865.673 122.841   2
   1  21  17 385.337 98.4699   2
  -1  22  17 1750.33 169.415   2
  -1  22  16 112.444 68.7580   2
  -1  22  15 159.610 78.0080   2
  -1  22  14 2642.08 191.398   2
  -1  22  13 622.418 105.216   2
  -1  22  12 5084.59 252.408   2
  -1  22  11 141.522 70.4911   2
  -1  22  10 19.4688 56.4683   2
  -1  22   9 21.5944 54.6596   2
  -1  22   8 1571.68 134.649   2
  -1  22   7 2973.72 171.769   2
   1  22  -7 3155.44 200.288   1
   1  22  -6 737.322 102.677   1
  -1  22   6 680.376 88.3007   2
  -1  22   5-103.420 54.0518   2
   1  22  -5-75.2016 63.0420   1
  -1  22   4 95.9832 46.7854   2
   1  22  -4-10.2602 65.7059   1
   1  22  -3 66.1049 72.0241   1
  -1  22   3 126.550 48.6892   2
   1  22  -2 1782.01 148.264   1
  -1  22   2 1608.36 109.420   2
  -1  22   2 1859.80 152.111   1
  -1  22   1 613.406 99.9235   1
  -1  22   1 564.948 66.4609   2
   1  22  -1 552.108 90.7383   1
  -1  22   0 1023.85 121.057   1
   1  22   0 796.774 78.4565   2
   1  22   0 982.617 113.281   1
  -1  22  -1 1130.60 124.936   1
   1  22   1 1299.93 133.957   1
   1  22   1 1177.60 95.3574   2
  -1  22  -2 792.452 112.198   1
   1  22   2 634.343 96.7443   1
   1  22   2 706.388 79.4172   2
   1  22   3 1201.63 125.930   1
  -1  22  -3 1152.50 129.613   1
   1  22   3 1035.40 97.3725   2
  -1  22  -4-30.8412 67.1554   1
   1  22   4 116.367 55.5869   2
   1  22   5 1923.76 139.525   2
  -1  22  -5 2067.04 166.120   1
   1  22   6 3534.46 186.223   2
  -1  22  -6 3956.24 222.752   1
  -1  22  -7 96.6692 59.4727   1
   1  22   7 129.569 51.5880   2
   1  22   8 117.550 62.2395   2
  -1  22  -8 33.7997 64.7200   1
   1  22   9 333.974 84.4115   2
  -1  22  -9 275.049 76.9579   1
   1  22  10 2121.37 163.524   2
  -1  22 -10 1981.03 168.361   1
   1  22  11 143.202 64.9740   2
   1  22  12 197.976 71.9984   2
   1  22  13-60.6345 72.5641   2
   1  22  14 905.402 121.415   2
   1  22  15 161.297 69.2913   2
   1  22  16 3051.27 214.192   2
  -1  23  16 2080.36 177.964   2
  -1  23  15 427.637 92.0622   2
  -1  23  14 1111.21 131.584   2
  -1  23  13 673.590 107.540   2
  -1  23  12 143.663 69.8196   2
  -1  23  11-34.1976 55.0548   2
  -1  23  10 1544.63 145.104   2
  -1  23   9 35.5941 55.0119   2
   1  23  -8 430.325 100.485   1
  -1  23   8 413.587 81.0387   2
  -1  23   7 62.1095 52.1408   2
   1  23  -7 11.7958 65.3350   1
   1  23  -6-8.80275 58.8865   1
  -1  23   6 78.9003 50.2009   2
  -1  23   5 136.137 55.0492   2
   1  23  -5 64.5211 55.9123   1
   1  23  -4 115.993 65.5297   1
  -1  23   4 79.1729 44.8760   2
   1  23  -3 1283.82 137.507   1
  -1  23   3 1117.19 98.1773   2
   1  23  -2 133.083 68.2707   1
  -1  23   2 233.546 78.3252   1
   1  23  -1 163.449 72.6739   1
  -1  23   1 254.945 78.0829   1
  -1  23   0 119.319 74.4129   1
   1  23   0 10.0310 60.1887   1
  -1  23  -1 402.213 91.8030   1
   1  23   1 167.576 79.6797   1
   1  23   2 2194.98 133.547   2
   1  23   2 2556.58 173.486   1
  -1  23  -2 2313.81 172.775   1
  -1  23  -3 1847.96 158.646   1
   1  23   3 1713.04 123.187   2
   1  23   4 406.504 70.6189   2
  -1  23  -4 734.922 113.818   1
  -1  23  -5 2123.76 171.145   1
   1  23   5 1774.26 131.972   2
   1  23   6 168.052 60.8942   2
  -1  23  -6 185.674 74.5628   1
   1  23   7 439.543 84.6701   2
  -1  23  -7 445.233 94.4553   1
   1  23   8 1712.71 143.424   2
  -1  23  -8 1560.17 150.388   1
  -1  23  -9 127.231 76.2181   1
   1  23   9 150.205 67.2468   2
  -1  23 -10 1696.81 156.648   1
   1  23  10 1527.20 141.066   2
  -1  23 -11 244.016 83.4025   1
   1  23  11 359.778 89.0155   2
   1  23  12 1348.55 142.703   2
   1  23  13 67.2993 61.0729   2
   1  23  14 314.365 85.3729   2
   1  23  15 374.831 94.5535   2
  -1  24  15 720.342 111.630   2
  -1  24  14 21.9765 61.5211   2
  -1  24  13 1922.86 164.442   2
  -1  24  12 139.029 68.5821   2
  -1  24  11 441.191 83.6106   2
  -1  24  10 189.820 69.8955   2
   1  24  -9-12.9421 61.7128   1
  -1  24   9 162.491 60.8847   2
  -1  24   8 72.6737 54.0612   2
   1  24  -8-65.8344 74.4581   1
   1  24  -7 1170.85 134.434   1
  -1  24   7 891.439 101.724   2
   1  24  -6-55.0424 71.5428   1
  -1  24   6 9.50584 53.8852   2
   1  24  -5-43.9348 60.8511   1
  -1  24   5 64.4078 49.7035   2
   1  24  -4 70.1622 66.6500   1
   1  24  -3 160.833 70.2788   1
   1  24  -2 604.518 105.826   1
  -1  24   1 346.111 89.2394   1
   1  24  -1 257.084 83.7106   1
   1  24   0 76.4046 67.8571   1
  -1  24   0 20.0393 58.6190   1
   1  24   1 1974.09 162.617   1
  -1  24  -1 2048.62 166.064   1
   1  24   2 151.786 76.4696   1
  -1  24  -2 153.217 71.8064   1
  -1  24  -3 507.058 101.299   1
   1  24   4 94.2726 46.1880   2
  -1  24  -4 279.845 85.0198   1
   1  24   5 1102.76 107.826   2
  -1  24  -5 989.679 129.350   1
   1  24   6 220.442 63.5984   2
  -1  24  -6 206.740 78.6036   1
   1  24   7 776.071 100.172   2
  -1  24  -7 552.476 98.9235   1
   1  24   8 193.894 68.2808   2
  -1  24  -8-25.6952 69.9100   1
   1  24   9 135.028 66.5810   2
  -1  24  -9 65.6516 68.0412   1
  -1  24 -10 17.1499 67.2772   1
   1  24  10 122.560 62.6458   2
   1  24  11 1958.21 160.918   2
   1  24  12 175.584 78.4130   2
   1  24  13 81.2431 62.0910   2
   1  24  14 567.549 102.206   2
  -1  25  14 36.1940 57.8738   2
  -1  25  13 178.799 67.9971   2
  -1  25  12 311.683 78.9288   2
  -1  25  11 2260.18 171.931   2
  -1  25  10 30.8823 52.1705   2
   1  25  -9 1043.93 133.626   1
  -1  25   9 960.047 112.866   2
  -1  25   8 431.316 81.8772   2
   1  25  -8 496.117 98.8585   1
  -1  25   7 63.6443 45.9541   2
   1  25  -7-79.5134 68.6407   1
   1  25  -6-71.2360 76.4784   1
   1  25  -5 132.236 70.6600   1
   1  25  -4 53.0506 67.9212   1
   1  25  -3 3628.22 221.362   1
   1  25  -2 204.818 80.0341   1
   1  25  -1 425.996 98.6370   1
  -1  25   1 386.367 88.8719   1
   1  25   0 37.4976 70.1597   1
  -1  25   0-17.6115 57.5156   1
   1  25   1 935.843 123.551   1
  -1  25  -1 808.175 120.325   1
  -1  25  -2 121.464 72.2987   1
   1  25   2-57.0134 61.9496   1
  -1  25  -3 652.114 111.724   1
  -1  25  -4 1022.79 136.782   1
  -1  25  -5 521.492 104.031   1
  -1  25  -6 309.485 85.7733   1
  -1  25  -7 298.131 91.8529   1
   1  25   7 453.746 84.4891   2
   1  25   8 14.1208 57.4550   2
   1  25   9 860.456 111.174   2
   1  25  10 210.822 73.9010   2
   1  25  11 252.242 77.6695   2
   1  25  12 531.737 99.7676   2
   1  25  13 577.274 98.1867   2
  -1  26  13 79.2762 58.9874   2
  -1  26  12 2906.29 191.924   2
  -1  26  11-3.59849 53.8315   2
  -1  26  10 288.884 74.0882   2
   1  26  -6 1036.72 132.692   1
   1  26  -5 554.476 104.640   1
   1  26  -4 667.278 110.806   1
   1  26  -3 357.722 91.3754   1
   1  26  -2 2610.21 194.077   1
   1  26  -1 50.4712 66.2559   1
  -1  26   0 2517.91 193.506   1
   1  26   0 2347.02 183.068   1
   1  26   1 673.186 107.724   1
  -1  26  -1 1122.29 135.897   1
  -1  26  -2 341.547 94.1834   1
  -1  26  -3 32.2562 76.7551   1
   1  26   9 54.9291 55.1972   2
   1  26  10-58.0001 58.0339   2
   1  26  11 1041.65 123.292   2
   1  26  12-150.366 75.8086   2
   1  27   0 681.456 109.426   1
   1  27   1 836.105 119.612   1
  -2   0  30 3086.33 188.830   2
  -2   0  29 50.1866 53.9375   2
  -2   0  28-56.4489 57.0172   2
  -2   0  27-8.31471 50.3493   2
  -2   0  26 419.078 75.5180   2
  -2   0  25-88.3035 55.9910   2
  -2   0  24 2097.63 143.025   2
  -2   0  23 6.49761 51.5587   2
  -2   0  22 579.023 80.2564   2
  -2   0  21 6.97190 45.4157   2
  -2   0  20 11829.9 296.369   2
  -2   0  19 50.4734 47.4711   2
  -2   0  18-125.226 56.3498   2
  -2   0  17-17.7874 41.2299   2
  -2   0  16 384.698 60.1405   2
  -2   0  15 1.54661 38.1589   2
  -2   0  14 5701.44 173.078   2
   2   0 -14 5413.40 159.579   3
   2   0 -13-10.0914 27.7901   3
  -2   0  13-6.69005 37.0567   2
   2   0 -12 17191.6 261.031   3
  -2   0  12 17357.9 279.226   2
   2   0 -11-10.1192 28.2839   3
  -2   0  11 16.4140 36.0728   2
   2   0 -10 2352.30 90.7078   3
  -2   0  10 2192.50 89.6588   3
  -2   0   9 35.4014 33.6869   3
   2   0  -9 12.6052 26.6522   3
  -2   0   8 19590.5 236.741   3
   2   0  -8 18780.6 224.638   3
   2   0  -7 6.55254 23.7936   3
  -2   0   7-21.5262 30.7739   3
  -2   0   6 83443.5 438.987   3
   2   0  -6 84000.4 426.716   3
   2   0  -5 56.1061 27.4888   3
  -2   0   5 58.0018 28.8736   3
  -2   0   4 771.133 54.3038   3
   2   0  -4 596.815 46.6875   3
  -2   0   3-37.6081 27.3638   3
   2   0  -3 21.2604 21.6636   3
  -2   0   2 138654. 487.396   3
   2   0  -2 137434. 478.098   3
  -2   0   1-25.2547 21.6060   2
  -2   0   0 2455.53 69.6726   2
   2   0   0 2382.83 70.3765   2
   2   0   1 29.9398 28.9578   2
  -2   0  -1 6.41456 22.1012   2
  -2   0  -2 1759.69 62.8163   2
   2   0   2 1725.14 65.9882   2
  -2   0  -3 21.3453 25.7580   2
   2   0   3 7.12993 30.5231   2
   2   0   4 169846. 648.895   2
  -2   0  -4 171708. 635.842   2
  -2   0  -5-7.69649 27.2507   2
   2   0   5 23.5761 35.9511   2
  -2   0  -6 21459.9 248.033   2
   2   0   6 21396.1 253.074   2
  -2   0  -7 0.02734 26.8646   2
   2   0   7-1.00699 34.1858   2
   2   0   8 80.9766 39.3845   2
  -2   0  -8 102.690 33.8827   2
   2   0   9 23.1278 37.8653   2
  -2   0  -9 27.9596 31.8155   2
  -2   0 -10 10397.2 205.110   2
   2   0  10 9601.76 206.198   2
   2   0  11 15.8109 35.2370   2
  -2   0 -11 20.0958 32.8807   2
   2   0  12 12695.5 254.705   2
  -2   0 -12 13578.3 253.124   2
   2   0  13 28.1467 41.3297   2
   2   0  14 8229.86 218.839   2
   2   0  15 38.4761 43.2798   2
   2   0  16 865.373 83.8392   2
   2   0  17 10.1089 43.4362   2
   2   0  18 8904.34 255.209   2
   2   0  19 126.094 56.8047   2
   2   0  20 547.841 77.1667   2
   2   0  21-5.02161 46.6468   2
   2   0  22 6620.10 241.645   2
   2   0  23 48.8526 55.5980   2
   2   0  24 292.736 70.6884   2
   2   0  25 36.3218 51.7306   2
   2   0  26 561.549 88.5770   2
   2   0  27-38.4611 59.8329   2
   2   0  28-73.1518 62.1331   2
  -2   1  31 147.898 65.6768   2
  -2   1  30 53.3037 62.2542   2
  -2  -1  29-16.0240 51.0682   2
  -2   1  29-49.7726 60.1537   2
  -2  -1  28 462.508 82.6599   2
  -2   1  28 511.815 90.6210   2
  -2  -1  27 668.784 92.3370   2
  -2   1  27 649.865 97.2448   2
  -2  -1  26 1057.26 108.547   2
  -2   1  26 1249.46 122.235   2
  -2  -1  25 48.6098 51.3862   2
  -2   1  25 39.3521 53.7916   2
  -2   1  24 37.6672 51.3073   2
  -2  -1  24 65.2079 49.8437   2
  -2  -1  23 5407.04 212.056   2
  -2   1  23 5476.95 224.877   2
  -2  -1  22 884.937 92.3276   2
  -2   1  22 1155.45 109.205   2
  -2  -1  21 4022.00 178.509   2
  -2   1  21 3946.46 184.022   2
  -2   1  20 2385.65 146.129   2
  -2  -1  20 2398.24 137.237   2
  -2   1  19 2201.58 131.931   2
  -2  -1  19 1884.12 120.447   2
  -2   1  18-113.280 55.0887   2
  -2  -1  18 17.8456 39.5821   2
  -2  -1  17-45.8525 44.2758   2
  -2   1  17 30.7555 45.9046   2
  -2  -1  16 1965.62 109.251   2
  -2   1  16 1934.76 114.251   2
  -2   1  15 1157.01 89.0421   2
   2   1 -15 1081.69 73.0457   3
  -2  -1  15 1097.27 86.6082   2
  -2  -1  14 1164.34 81.9567   2
  -2   1  14 1088.79 85.0072   2
   2   1 -14 1043.72 70.7487   3
  -2   1  13 2323.20 112.280   2
  -2  -1  13 2182.99 104.192   2
   2   1 -13 2135.47 94.7212   3
   2  -1 -13 2293.62 104.715   3
   2  -1 -12 12250.4 226.996   3
   2   1 -12 11862.9 206.807   3
  -2  -1  12 11955.8 226.291   2
  -2   1  12 12224.7 243.414   2
   2   1 -11-25.9881 25.8821   3
   2  -1 -11-24.8057 28.6147   3
  -2   1  11 6.64284 38.4382   2
  -2  -1  11-5.46082 35.0661   2
   2  -1 -10 10673.9 196.117   3
  -2   1  10 10526.9 201.075   3
  -2   1  10 10640.8 211.114   2
   2   1 -10 10292.7 174.996   3
  -2   1   9 1003.14 68.0168   3
   2   1  -9 952.741 54.8962   3
   2  -1  -9 924.958 59.5115   3
  -2  -1   9 1034.66 61.4003   3
  -2  -1   8 1788.46 72.4900   3
   2   1  -8 1759.06 67.8506   3
   2  -1  -8 1798.73 77.0854   3
  -2   1   8 1883.74 82.6777   3
   2  -1  -7 7367.71 141.768   3
  -2  -1   7 7522.64 131.832   3
  -2   1   7 7315.57 147.780   3
   2   1  -7 7515.84 128.537   3
   2   1  -6 11012.3 146.310   3
  -2  -1   6 11335.8 151.576   3
  -2   1   6 10908.4 172.438   3
   2  -1  -6 10777.3 166.207   3
  -2   1   5 174373. 638.226   3
   2   1  -5 172251. 546.455   3
  -2  -1   5 174636. 556.261   3
   2  -1  -5 172403. 624.083   3
   2   1  -4 40650.5 255.207   3
  -2   1   4 40861.2 298.539   3
  -2  -1   4 40217.9 256.390   3
   2  -1  -4 41217.7 291.654   3
  -2   1   3 40119.9 280.978   3
  -2  -1   3 39386.8 249.218   3
   2   1  -3 39231.1 244.365   3
   2  -1  -3 39303.5 275.595   3
  -2  -1   2 6752.54 111.280   2
  -2   1   2 6904.26 114.999   3
  -2  -1   2 6429.14 102.047   3
   2  -1  -2 6558.88 110.901   3
  -2   1   1 39.3805 28.3956   3
   2   1  -1 44.6031 26.8464   2
  -2  -1   1 19.2910 22.2646   2
   2  -1  -1 23.3027 22.3855   3
  -2   1   0 16253.3 172.114   2
  -2  -1   0 16582.0 175.212   2
   2  -1   0 16112.8 173.178   2
   2  -1   0 16206.9 129.551   1
   2   1   0 16700.3 178.985   2
   2  -1   1 483.809 25.6356   1
  -2   1  -1 497.719 35.7965   2
  -2   1  -1 503.081 27.8651   1
   2   1   1 479.314 40.8714   2
   2  -1   1 501.410 38.8401   2
  -2  -1  -1 528.122 40.9771   2
   2   1   2 23837.9 233.975   2
  -2  -1  -2 23924.8 227.581   2
   2  -1   2 24075.3 218.535   2
  -2   1  -2 23976.4 213.935   2
   2  -1   3 15319.1 179.978   2
  -2  -1  -3 15236.3 189.225   2
   2   1   3 14867.7 193.286   2
  -2   1  -3 15188.8 176.497   2
  -2  -1  -4 1210.28 62.0020   2
  -2   1  -4 1162.01 54.2288   2
   2  -1   4 1094.33 58.3943   2
   2   1   4 1229.72 65.3970   2
   2  -1   5 5245.54 119.166   2
  -2   1  -5 5106.60 114.763   2
  -2  -1  -5 5470.80 124.869   2
   2   1   5 5397.68 131.323   2
  -2  -1  -6 28053.8 293.072   2
   2   1   6 27014.1 298.487   2
   2  -1   6 27919.7 279.176   2
  -2   1  -6 27775.5 271.456   2
  -2  -1  -7 3151.30 105.756   2
  -2   1  -7 3030.26 95.0053   2
   2   1   7 3009.05 109.858   2
   2  -1   7 2729.21 96.0698   2
  -2  -1  -8 20366.7 272.220   2
   2   1   8 19389.1 276.409   2
  -2   1  -8 19692.5 253.264   2
   2  -1   8 19293.1 256.983   2
  -2   1  -9 14276.0 224.200   2
   2   1   9 14045.0 243.284   2
   2  -1   9 13743.8 228.613   2
  -2  -1  -9 14721.7 240.581   2
  -2   1 -10 3087.68 110.641   2
   2   1  10 3073.57 123.429   2
  -2  -1 -10 3290.55 121.097   2
   2  -1  10 3149.77 116.320   2
   2   1  11 1635.59 97.9762   2
  -2   1 -11 1670.14 86.6084   2
   2  -1  11 1667.11 91.9832   2
  -2  -1 -11 1572.16 91.0658   2
   2  -1  12 9329.79 212.487   2
   2   1  12 9302.54 223.258   2
  -2   1 -12 9617.68 209.126   2
   2   1  13 14520.2 292.186   2
   2  -1  13 14854.7 275.726   2
  -2   1 -13 15668.3 271.131   2
   2   1  14 4521.37 168.985   2
   2  -1  14 4485.91 159.601   2
   2  -1  15 2006.27 113.537   2
   2   1  15 2033.90 120.595   2
   2  -1  16 692.755 75.0185   2
   2   1  16 620.964 75.3169   2
   2  -1  17 102.649 48.3955   2
   2   1  17 133.969 53.3249   2
   2  -1  18 5185.75 192.433   2
   2   1  18 5060.32 197.667   2
   2   1  19 94.0015 53.1723   2
   2  -1  19 110.767 54.4092   2
   2   1  20 756.476 87.7132   2
   2  -1  20 724.548 81.9266   2
   2   1  21 415.157 71.4311   2
   2  -1  21 438.353 74.4993   2
   2  -1  22 592.292 79.2025   2
   2   1  22 578.370 84.9605   2
   2  -1  23 672.224 88.6180   2
   2   1  23 718.964 95.2147   2
   2   1  24-30.2260 53.0626   2
   2  -1  24 34.7926 49.4069   2
   2  -1  25 1942.54 144.131   2
   2   1  25 2008.51 152.283   2
   2  -1  26-31.2808 57.2778   2
   2   1  26-71.1486 67.3319   2
   2   1  27 74.1658 61.1022   2
   2  -1  27-55.3936 56.1597   2
   2   1  28-80.2312 60.6665   2
   2   1  29 347.418 79.8837   2
  -2   2  31 1077.37 126.485   2
  -2   2  30 101.323 68.0781   2
  -2   2  29 569.243 93.1894   2
  -2  -2  28 163.043 57.9204   2
  -2   2  28 158.742 69.4972   2
  -2   2  27 2057.26 158.361   2
  -2  -2  27 1888.70 138.241   2
  -2   2  26 668.256 99.4960   2
  -2  -2  26 750.823 94.2988   2
  -2   2  25 1097.30 114.756   2
  -2  -2  25 930.301 98.2005   2
  -2  -2  24 57.0455 49.9431   2
  -2   2  24-3.99915 51.1385   2
  -2   2  23 1470.19 127.125   2
  -2  -2  23 1579.77 116.343   2
  -2   2  22 581.195 85.7895   2
  -2  -2  22 763.853 83.6112   2
  -2   2  21 320.031 67.5923   2
  -2  -2  21 510.221 71.1043   2
  -2  -2  20 278.976 56.7693   2
  -2   2  20 123.887 58.1967   2
  -2   2  19 10136.6 279.518   2
  -2  -2  19 9615.72 245.442   2
  -2  -2  18 704.460 73.4103   2
  -2   2  18 675.722 82.2442   2
  -2  -2  17 101.350 43.5542   2
  -2   2  17 67.2762 48.2912   2
   2   2 -16 1720.35 90.0738   3
  -2  -2  16 1884.62 104.328   2
  -2   2  16 1749.91 118.172   2
  -2  -2  15 1810.01 101.489   2
  -2   2  15 2000.18 118.624   2
   2   2 -15 1990.37 93.6893   3
  -2  -2  14 37.6255 37.0854   2
  -2   2  14 25.4282 39.5580   2
   2   2 -14 9.85806 24.0511   3
  -2   2  13 957.435 82.6761   2
   2  -2 -13 970.088 73.5976   3
   2   2 -13 916.096 62.4913   3
  -2  -2  13 784.704 66.3778   2
   2   2 -12 1538.60 74.5813   3
   2  -2 -12 1544.90 88.8920   3
  -2  -2  12 1558.92 83.6643   2
  -2   2  12 1515.19 96.9901   2
   2  -2 -11 145.670 38.6802   3
  -2  -2  11 97.4131 41.1112   2
  -2   2  11 213.936 53.0811   2
   2   2 -11 126.621 31.2051   3
  -2   2  10 2635.96 114.882   2
   2   2 -10 2714.73 86.4639   3
   2  -2 -10 2706.07 104.580   3
  -2   2  10 2830.91 111.910   3
  -2   2   9 1056.56 71.6484   3
   2   2  -9 1029.82 52.0566   3
   2  -2  -9 1136.22 67.2651   3
  -2  -2   9 1167.97 57.9808   3
  -2  -2   8 3863.82 95.7496   3
  -2   2   8 4129.22 125.693   3
   2  -2  -8 4114.94 117.321   3
   2   2  -8 4026.64 94.1361   3
  -2  -2   7 23311.7 211.320   3
   2   2  -7 22484.1 204.575   3
  -2   2   7 22848.3 273.473   3
   2  -2  -7 23167.6 263.736   3
   2  -2  -6 12497.2 186.687   3
  -2  -2   6 12563.9 147.006   3
   2   2  -6 12366.8 144.491   3
  -2   2   6 12758.1 194.928   3
   2  -2  -5 28770.2 269.748   3
  -2   2   5 28866.0 276.865   3
   2   2  -5 28551.1 205.560   3
  -2  -2   5 28474.6 207.263   3
   2  -2  -4 75030.5 419.388   3
  -2   2   4 75186.1 426.000   3
   2   2  -4 74475.0 322.991   3
  -2  -2   4 74873.8 324.988   3
   2  -2  -3 32247.9 264.647   3
  -2  -2   3 31677.7 240.777   2
  -2  -2   3 32207.0 210.855   3
  -2   2   3 32640.6 270.876   3
   2   2  -2 4940.62 98.4573   2
   2  -2  -2 5110.95 103.986   3
  -2   2   2 5224.56 106.828   3
  -2  -2   2 4993.67 97.0031   2
   2  -2  -1 10091.1 141.537   3
  -2  -2   1 9996.74 136.594   2
  -2   2   1 10218.4 144.312   3
   2   2  -1 9904.07 138.464   2
  -2   2   0 12441.0 151.018   2
  -2  -2   0 12106.8 156.138   2
   2  -2   0 12028.1 131.402   1
  -2   2   0 11902.4 158.231   3
   2   2   0 12056.3 157.242   2
   2   2   1 15536.8 186.074   2
  -2   2  -1 15922.8 169.082   2
  -2   2  -1 15581.3 147.535   1
   2  -2   1 15768.7 171.564   2
  -2  -2  -1 15656.1 182.678   2
   2  -2   2 5695.63 106.813   2
  -2   2  -2 5808.09 104.473   2
   2   2   2 5837.62 122.444   2
  -2  -2  -2 5608.50 116.615   2
  -2   2  -3 43318.5 288.051   2
   2  -2   3 42852.1 291.862   2
   2   2   3 42707.5 335.148   2
  -2  -2  -3 43973.5 332.839   2
   2  -2   4 9870.79 147.545   2
  -2   2  -4 10024.9 143.600   2
  -2  -2  -4 10041.5 168.191   2
   2   2   4 9684.10 170.024   2
   2   2   5 43281.9 372.394   2
  -2  -2  -5 43445.8 362.204   2
  -2   2  -5 43471.9 311.920   2
   2  -2   5 42499.3 318.234   2
  -2   2  -6 2798.83 86.3759   2
   2   2   6 2667.18 103.901   2
  -2  -2  -6 3127.23 104.054   2
   2  -2   6 2746.94 88.1386   2
  -2   2  -7 5316.75 121.263   2
   2  -2   7 5103.49 122.861   2
   2   2   7 5013.42 144.874   2
  -2  -2  -7 5235.22 139.294   2
   2  -2   8 9424.80 173.970   2
  -2  -2  -8 9670.75 195.601   2
   2   2   8 9836.87 205.146   2
  -2   2  -8 9719.15 169.476   2
  -2  -2  -9 13479.9 239.183   2
  -2   2  -9 13293.4 207.987   2
   2  -2   9 12917.9 211.144   2
   2   2   9 13276.2 244.777   2
  -2  -2 -10 4229.75 141.359   2
  -2   2 -10 4337.02 126.377   2
   2  -2  10 4202.07 129.234   2
   2   2  10 4373.13 151.156   2
   2   2  11 4549.38 160.428   2
   2  -2  11 4612.98 138.774   2
  -2   2 -11 4746.22 136.652   2
   2   2  12-27.6460 39.3291   2
   2  -2  12-15.0310 34.1610   2
  -2   2 -12 30.0087 30.1029   2
  -2   2 -13 157.659 34.6870   2
   2   2  13 167.342 52.2277   2
   2  -2  13 63.9461 36.3329   2
   2   2  14 1634.15 108.554   2
   2  -2  14 1523.72 94.6888   2
   2  -2  15 5311.50 170.732   2
   2   2  15 5374.16 192.221   2
   2   2  16 149.522 51.0971   2
   2  -2  16 95.1015 41.7324   2
   2   2  17 4682.37 195.452   2
   2  -2  17 4948.79 175.696   2
   2   2  18 1043.47 102.397   2
   2  -2  18 880.231 84.6106   2
   2   2  19 984.667 103.085   2
   2  -2  19 963.580 93.6665   2
   2   2  20 269.010 68.7909   2
   2  -2  20 151.848 51.0418   2
   2  -2  21 405.771 70.8580   2
   2   2  21 424.455 81.6133   2
   2  -2  22 647.335 83.2779   2
   2   2  22 675.624 90.4924   2
   2   2  23 2670.78 167.397   2
   2  -2  23 2588.03 150.551   2
   2   2  24 364.880 79.8641   2
   2  -2  24 454.194 78.2433   2
   2   2  25 170.190 67.2680   2
   2  -2  25-15.3751 48.1833   2
   2   2  26-21.9616 57.5331   2
   2  -2  26 22.0246 49.5036   2
   2   2  27 1346.31 133.174   2
   2   2  28 185.822 74.2235   2
   2   2  29 987.913 120.807   2
   2   2  30-74.5418 62.6911   2
  -2   3  31-55.0313 66.6947   2
  -2   3  30 253.039 78.6383   2
  -2   3  29 830.764 115.801   2
  -2   3  28 94.1742 75.7736   2
  -2   3  27 2698.73 180.856   2
  -2  -3  27 2639.80 158.778   2
  -2  -3  26 74.4991 52.8544   2
  -2   3  26 50.8866 57.0849   2
  -2  -3  25 374.080 66.7263   2
  -2   3  25 329.129 74.1103   2
  -2  -3  24 48.6973 49.2430   2
  -2   3  24 80.1906 59.9011   2
  -2   3  23 2664.07 167.426   2
  -2  -3  23 2641.36 144.458   2
  -2  -3  22 1883.62 119.502   2
  -2   3  22 1972.91 143.264   2
  -2   3  21 4435.50 201.374   2
  -2  -3  21 3969.99 165.753   2
  -2  -3  20 130.839 49.1083   2
  -2   3  20 72.2395 51.6524   2
  -2   3  19 5702.23 218.043   2
  -2  -3  19 5285.94 182.703   2
  -2  -3  18 79.1398 45.3153   2
  -2   3  18 78.3880 53.6456   2
  -2  -3  17 2360.57 114.594   2
   2   3 -17 2100.36 98.7755   3
  -2   3  17 2145.40 136.496   2
  -2   3  16 735.304 88.0457   2
  -2  -3  16 627.136 64.1261   2
   2   3 -16 624.306 54.7210   3
  -2  -3  15 1623.60 91.1052   2
   2   3 -15 1542.90 80.0203   3
  -2   3  15 1526.07 108.742   2
  -2   3  14 168.774 47.4621   2
  -2  -3  14 151.506 40.0396   2
   2   3 -14 98.2147 26.7888   3
  -2  -3  13 1327.86 79.1183   2
   2   3 -13 1277.06 67.4722   3
  -2   3  13 1410.85 96.5209   2
   2   3 -12 6525.17 139.227   3
  -2   3  12 6528.15 195.288   2
  -2  -3  12 6794.92 157.175   2
   2  -3 -12 6739.54 182.416   3
   2   3 -11 7814.75 144.095   3
  -2   3  11 7642.15 199.695   2
   2  -3 -11 8029.28 191.124   3
   2  -3 -10 5364.13 151.707   3
   2   3 -10 4981.58 108.820   3
  -2   3  10 5524.18 162.448   2
  -2   3  10 5152.06 154.032   3
   2   3  -9 555.430 38.4927   3
   2  -3  -9 496.821 50.6670   3
  -2  -3   9 584.985 40.3015   3
  -2   3   9 534.802 64.4521   2
  -2   3   9 522.815 60.3581   3
   2   3  -8 184.728 24.6022   3
   2  -3  -8 241.864 40.0738   3
  -2  -3   8 229.187 28.8651   3
  -2   3   8 238.499 48.4313   3
   2  -3  -7 2560.17 95.8730   3
  -2  -3   7 2583.76 67.9700   3
  -2   3   7 2719.91 104.954   3
   2   3  -7 2606.72 65.7927   3
   2   3  -6 4483.39 80.7132   3
  -2  -3   6 4732.77 81.9079   3
   2  -3  -6 4578.47 121.608   3
  -2   3   6 4501.47 126.091   3
   2  -3  -5 17400.2 223.431   3
  -2  -3   5 18005.1 151.348   3
   2   3  -5 17799.8 150.020   3
  -2   3   5 18090.1 230.847   3
  -2  -3   4 6601.33 111.935   2
  -2   3   4 6613.59 136.775   3
   2  -3  -4 6627.21 133.098   3
  -2  -3   4 6664.31 91.2112   3
  -2   3   3 48.8557 31.7001   3
  -2  -3   3 8.17723 22.6882   2
   2   3  -3 31.7620 23.0321   2
   2  -3  -3 12.9713 29.6968   3
   2   3  -2 179.044 29.7230   2
  -2  -3   2 148.244 27.3493   2
   2  -3  -2 233.955 35.6891   3
  -2   3   2 210.676 36.1925   3
   2  -3  -1 2794.83 79.6271   3
  -2  -3   1 2849.34 76.8624   2
   2   3  -1 2551.36 75.4213   2
  -2   3   1 2752.68 83.2283   3
   2  -3  -1 2761.54 77.0780   1
  -2   3   0 31901.4 246.799   1
   2   3   0 33545.8 266.624   2
   2  -3   0 32600.0 242.046   1
   2  -3   0 33644.5 265.209   3
  -2   3   0 33329.0 269.288   3
  -2  -3   0 33454.5 262.081   2
   2   3   1 88.8393 28.4167   2
  -2   3  -1 101.264 31.5844   3
  -2   3  -1 72.8038 23.9551   2
  -2   3  -1 119.798 28.3527   1
  -2  -3  -1 120.429 32.3278   2
  -2  -3  -2 6819.16 132.777   2
  -2   3  -2 6818.48 111.973   2
   2   3   2 6743.45 69.8924   1
   2  -3   2 6770.47 113.825   2
   2   3   2 6740.87 134.890   2
  -2  -3  -3 57384.7 209.497   1
   2  -3   3 58598.5 332.148   2
  -2  -3  -3 59570.2 405.278   2
   2   3   3 60139.4 412.303   2
  -2   3  -3 59171.2 329.076   2
   2  -3   4 3388.35 85.3390   2
  -2  -3  -4 3372.42 104.399   2
   2   3   4 3454.85 109.813   2
  -2   3  -4 3434.19 83.6190   2
   2  -3   5 307.845 37.8186   2
   2   3   5 303.329 47.3547   2
  -2  -3  -5 243.416 38.0598   2
  -2   3  -5 266.677 29.3445   2
  -2   3  -6 1641.32 64.5344   2
   2   3   6 1529.10 87.5036   2
  -2  -3  -6 1687.12 82.3329   2
   2  -3   6 1568.87 67.4309   2
   2  -3   7 53460.7 377.177   2
  -2   3  -7 55251.0 369.118   2
  -2  -3  -7 54026.7 453.667   2
   2   3   7 53731.9 471.847   2
  -2  -3  -8 5568.38 153.822   2
   2  -3   8 5530.82 128.363   2
  -2   3  -8 5791.75 125.975   2
   2   3   8 5501.34 161.779   2
  -2   3  -9 197.585 34.6822   2
   2  -3   9 216.407 37.2288   2
  -2  -3  -9 160.857 40.8191   2
   2   3   9 194.728 50.1995   2
   2  -3  10 7995.30 168.877   2
   2   3  10 8126.99 207.991   2
  -2  -3 -10 8631.45 208.009   2
  -2   3 -10 8362.27 166.930   2
  -2   3 -11 653.761 54.7204   2
   2   3  11 643.055 71.4759   2
   2  -3  11 724.971 59.7304   2
  -2   3 -12 1326.32 75.8115   2
   2  -3  12 1197.02 76.4325   2
   2   3  12 1068.57 87.1611   2
   2   3  13 1701.78 110.106   2
   2  -3  13 1517.48 86.8470   2
  -2   3 -13 1759.30 89.7182   2
  -2   3 -14 2286.97 102.677   2
   2   3  14 2204.22 126.954   2
   2  -3  14 2138.53 105.768   2
   2   3  15 10590.6 275.067   2
   2  -3  15 10233.4 231.652   2
   2   3  16 1569.31 117.724   2
   2  -3  16 1458.41 94.0454   2
   2   3  17 3974.77 181.085   2
   2  -3  17 4006.52 154.085   2
   2  -3  18 150.278 45.9331   2
   2   3  18 229.746 65.7368   2
   2  -3  19 731.890 77.3842   2
   2   3  19 657.899 88.9954   2
   2  -3  20 1134.26 96.3897   2
   2   3  20 1118.37 109.938   2
   2   3  21 551.304 90.1846   2
   2  -3  21 483.650 71.4632   2
   2   3  22 4009.34 204.489   2
   2  -3  22 3882.25 174.330   2
   2   3  23 1058.09 115.128   2
   2  -3  23 1008.69 100.021   2
   2   3  24 85.8813 59.8125   2
   2  -3  24 76.3489 50.7395   2
   2   3  25 2696.20 180.322   2
   2  -3  25 2414.13 148.830   2
   2   3  26 611.306 100.281   2
   2   3  27 57.3655 72.4487   2
   2   3  28 947.460 116.866   2
   2   3  29 563.777 104.213   2
   2   3  30 598.754 103.351   2
  -2   4  31 74.9231 59.9030   2
  -2   4  30 302.146 91.1274   2
  -2   4  29 56.8690 55.3945   2
  -2   4  28 478.224 95.8957   2
  -2   4  27 97.6085 62.8553   2
  -2  -4  26 1560.93 120.229   2
  -2   4  26 1530.77 144.242   2
  -2  -4  25 312.446 62.6630   2
  -2   4  25 293.581 78.8933   2
  -2   4  24 597.492 95.5036   2
  -2  -4  24 680.649 78.5620   2
  -2  -4  23 667.537 76.5044   2
  -2   4  23 550.815 94.0192   2
  -2   4  22 4966.38 223.595   2
  -2  -4  22 5046.06 183.889   2
  -2   4  21 1206.64 117.844   2
  -2  -4  21 1080.47 87.7971   2
  -2   4  20-1.13263 53.9713   2
  -2  -4  20 82.5706 40.1099   2
  -2  -4  19-14.8861 34.3080   2
  -2   4  19 39.0295 51.5121   2
  -2  -4  18 3587.16 141.235   2
   2   4 -18 3702.26 127.474   3
  -2   4  18 3673.61 176.626   2
  -2  -4  17 221.981 42.7033   2
  -2   4  17 237.081 64.7523   2
   2   4 -17 151.220 34.2230   3
  -2   4  16 3952.13 170.937   2
   2   4 -16 3949.76 125.381   3
  -2  -4  16 3774.00 136.332   2
  -2  -4  15 2564.72 109.502   2
  -2   4  15 2202.35 135.628   2
   2   4 -15 2338.59 93.0738   3
  -2  -4  14 4141.67 130.902   2
  -2   4  14 3671.32 165.593   2
   2   4 -14 4127.27 117.157   3
  -2   4  13 749.136 79.7911   2
   2   4 -13 614.068 46.4727   3
  -2  -4  13 688.802 57.7365   2
  -2   4  12 17016.6 316.035   2
   2   4 -12 16455.0 206.881   3
  -2  -4  12 17007.1 238.026   2
  -2   4  11 520.976 66.1008   2
   2   4 -11 495.069 38.1571   3
   2  -4 -11 533.256 61.3440   3
   2  -4 -10 9416.40 206.272   3
  -2   4  10 9594.96 217.877   3
  -2   4  10 9503.43 217.968   2
   2   4 -10 9165.00 135.189   3
  -2   4   9 1757.53 95.8332   3
   2   4  -9 1769.21 57.5200   3
   2  -4  -9 1955.21 94.1911   3
  -2   4   9 1848.37 101.322   2
  -2   4   8 15469.1 256.143   3
   2   4  -8 15129.8 149.754   3
  -2  -4   8 15322.4 152.744   3
   2  -4  -8 15491.6 244.731   3
   2   4  -7 655.216 31.8148   3
   2  -4  -7 623.882 52.6435   3
  -2   4   7 598.177 63.1226   3
  -2  -4   7 653.450 31.9555   3
   2  -4  -6 10667.1 188.906   3
  -2   4   6 10450.6 195.271   3
  -2  -4   6 10885.7 109.371   3
   2   4  -6 10402.8 108.058   3
   2  -4  -5 565.413 49.3600   3
  -2   4   5 650.836 58.3044   3
  -2  -4   5 612.629 28.4064   3
  -2  -4   5 588.782 37.5942   2
  -2   4   4 2512.10 90.9303   3
   2  -4  -4 2438.37 85.6681   3
  -2  -4   4 2461.85 69.0559   2
  -2  -4   4 2455.65 52.9760   3
   2   4  -3 1126.15 52.3662   2
  -2  -4   3 1232.72 51.1847   2
   2  -4  -3 1173.03 60.9915   3
  -2   4   3 1230.28 66.4257   3
  -2   4   2 14282.0 195.583   3
   2  -4  -2 14691.4 190.859   3
   2   4  -2 14611.5 169.102   2
   2  -4  -2 14598.4 186.824   1
  -2  -4   2 14147.7 165.293   2
  -2   4   1 40776.5 317.993   3
   2   4  -1 40709.1 291.869   2
   2  -4  -1 40697.4 311.794   3
   2  -4  -1 40690.8 304.288   1
  -2  -4   1 40358.3 286.419   2
   2  -4   0 6974.44 125.781   1
   2   4   0 6940.19 128.072   2
  -2   4   0 7126.37 131.617   3
   2  -4   0 7031.28 127.654   3
  -2  -4   0 7050.52 127.059   2
  -2   4   0 6902.28 130.568   1
   2   4   1 75.4595 33.2119   2
  -2   4  -1 86.2187 32.5309   1
  -2   4  -1 88.1569 30.3230   3
   2  -4   1 74.7117 26.2725   3
  -2  -4  -1 103.054 32.4711   2
  -2   4  -2 1793.57 69.7400   3
  -2  -4  -2 1805.45 75.3256   2
  -2   4  -2 1826.24 59.8857   2
   2   4   2 1831.70 79.0956   2
   2   4   2 1819.61 48.6278   1
   2  -4   3 43115.5 284.094   2
  -2   4  -3 43421.3 277.916   2
  -2  -4  -3 44013.4 358.563   2
   2   4   3 43330.5 365.223   2
   2   4   4 39913.8 370.475   2
   2  -4   4 39757.3 274.907   2
  -2  -4  -4 41163.8 360.518   2
  -2   4  -4 40541.4 273.239   2
  -2  -4  -4 40611.6 223.388   1
  -2  -4  -5 2161.93 90.6026   2
   2   4   5 1876.39 93.6428   2
  -2   4  -5 2099.71 65.6733   2
   2  -4   5 2052.76 67.9141   2
  -2  -4  -6 44941.4 410.468   2
  -2   4  -6 43595.7 303.252   2
   2   4   6 43119.7 420.039   2
   2  -4   6 43247.6 307.380   2
  -2  -4  -7 567.464 55.3378   2
  -2   4  -7 537.795 39.6233   2
   2   4   7 480.107 64.8916   2
   2  -4   7 530.286 42.5745   2
  -2   4  -8 12828.5 179.239   2
   2  -4   8 12418.4 183.756   2
  -2  -4  -8 13238.4 241.021   2
   2   4   8 12480.2 244.543   2
  -2  -4  -9 97.1400 33.2418   2
   2   4   9 40.5918 43.4606   2
  -2   4  -9 67.9916 24.6227   2
   2  -4   9 94.4779 33.7147   2
  -2   4 -10 5297.11 127.738   2
   2  -4  10 5045.83 128.950   2
   2   4  10 4971.04 169.993   2
  -2   4 -11 11160.1 193.080   2
   2  -4  11 10389.8 191.152   2
   2   4  11 10568.9 251.393   2
  -2   4 -12 1848.44 86.3934   2
   2   4  12 1573.37 110.221   2
   2  -4  12 1710.98 85.6533   2
  -2   4 -13 18.2168 30.3833   2
   2   4  13 129.232 55.9403   2
   2  -4  13 13.1383 26.0815   2
   2   4  14 2386.62 136.370   2
  -2   4 -14 2473.80 105.137   2
   2  -4  14 2279.70 104.384   2
  -2   4 -15 3027.39 118.421   2
   2   4  15 2862.70 151.091   2
   2  -4  15 2793.39 118.890   2
   2  -4  16 15590.5 281.854   2
   2   4  16 15457.5 351.129   2
   2   4  17 385.373 80.2045   2
   2  -4  17 310.086 56.6203   2
   2   4  18 7059.29 251.911   2
   2  -4  18 7053.68 203.708   2
   2   4  19 6127.35 236.203   2
   2  -4  19 5969.99 193.949   2
   2   4  20 1821.41 140.114   2
   2  -4  20 1946.41 116.931   2
   2   4  21 608.369 93.8456   2
   2  -4  21 605.854 72.7819   2
   2   4  22 1408.56 131.372   2
   2  -4  22 1606.59 112.201   2
   2  -4  23 656.510 79.7067   2
   2   4  23 654.489 99.6012   2
   2   4  24 6415.48 267.289   2
   2  -4  24 6166.05 224.253   2
   2   4  25 558.346 99.6891   2
   2   4  26 500.779 97.3107   2
   2   4  27-114.910 75.3176   2
   2   4  28 1943.16 163.859   2
   2   4  29 36.9407 61.6030   2
  -2   5  30 527.976 102.199   2
  -2   5  29 71.9769 63.9345   2
  -2   5  28 987.346 127.076   2
  -2   5  27-51.6730 64.8988   2
  -2   5  26 106.236 65.4130   2
  -2   5  25 20.6391 55.8870   2
  -2  -5  25 111.552 48.4078   2
  -2   5  24 1043.21 118.988   2
  -2  -5  24 1278.92 100.470   2
  -2   5  23 707.767 106.999   2
  -2  -5  23 818.645 83.0178   2
  -2  -5  22 8368.03 229.592   2
  -2   5  22 8327.63 289.295   2
  -2  -5  21 488.777 61.4594   2
  -2   5  21 514.832 86.8875   2
  -2  -5  20 566.550 63.7302   2
  -2   5  20 458.610 84.0085   2
  -2  -5  19 561.731 62.5009   2
  -2   5  19 421.399 74.6662   2
   2   5 -18 81.8725 30.7001   3
  -2  -5  18-31.4806 32.7790   2
  -2   5  18-27.0583 51.7079   2
  -2   5  17 185.622 56.4883   2
  -2  -5  17 245.563 43.9301   2
   2   5 -17 265.100 38.3430   3
  -2  -5  16 1702.79 89.0602   2
   2   5 -16 1515.35 74.8217   3
  -2   5  16 1505.02 116.370   2
   2   5 -15 80.3688 26.6687   3
  -2  -5  15 68.0717 29.8225   2
  -2   5  15-94.9442 56.6222   2
  -2  -5  14 2814.37 104.116   2
  -2   5  14 3027.31 151.232   2
   2   5 -14 2898.16 91.5833   3
  -2   5  13 419.756 71.3657   2
   2   5 -13 359.722 35.3770   3
  -2  -5  13 344.202 41.7373   2
  -2   5  12 1605.94 108.064   2
  -2  -5  12 1669.32 75.6094   2
   2   5 -12 1611.86 60.8664   3
   2   5 -11 4703.70 94.8200   3
  -2   5  11 4616.48 171.892   2
  -2   5  10 271.612 59.3923   2
  -2   5  10 219.051 52.6758   3
   2   5 -10 250.566 24.8182   3
   2  -5 -10 325.142 50.4482   3
  -2   5   9 376.832 62.2558   2
   2   5  -9 335.610 25.4213   3
   2  -5  -9 351.728 49.8695   3
  -2   5   9 487.294 64.1648   3
   2  -5  -8 22224.2 301.226   3
   2   5  -8 20915.8 153.612   3
  -2   5   8 21855.3 321.263   2
  -2   5   8 21737.5 315.647   3
  -2  -5   7 843.027 30.3429   3
  -2   5   7 771.902 70.5568   3
   2   5  -7 695.199 28.4048   3
   2  -5  -7 904.961 65.2602   3
  -2  -5   6 9478.10 91.0627   3
   2  -5  -6 10319.1 192.421   3
  -2  -5   6 10231.6 135.442   2
  -2   5   6 10559.1 202.454   3
  -2   5   5 2607.22 104.210   3
  -2  -5   5 2707.83 70.3123   2
   2  -5  -5 2779.74 99.2659   3
  -2  -5   5 2580.09 48.7922   3
   2  -5  -4 9343.11 171.499   3
  -2   5   4 9449.09 178.591   3
  -2  -5   4 9067.87 128.578   2
   2   5  -4 9298.65 130.806   2
  -2   5   3 1607.88 76.7626   3
   2   5  -3 1692.09 60.5070   2
   2  -5  -3 1854.05 77.9742   1
  -2  -5   3 1625.38 58.9921   2
   2  -5  -3 1702.10 74.2466   3
  -2   5   2 17253.0 224.639   3
   2  -5  -2 17493.7 218.502   3
   2  -5  -2 17810.8 219.078   1
   2   5  -2 17282.3 188.076   2
  -2  -5   2 16949.1 185.583   2
   2  -5  -1 12291.8 182.250   1
   2   5  -1 11938.0 165.962   2
  -2   5   1 11953.7 180.495   3
   2  -5  -1 12121.6 177.033   3
  -2  -5   1 11890.6 160.968   2
  -2   5   1 11730.4 183.091   1
  -2   5   0 16686.0 209.168   3
   2  -5   0 17274.0 205.759   3
  -2  -5   0 17286.1 203.234   2
   2  -5   0 16933.5 210.322   1
   2   5   0 16878.7 204.870   2
  -2   5   0 16705.1 216.429   1
  -2   5  -1 12127.1 183.402   1
   2  -5   1 12167.4 171.398   3
  -2   5  -1 12029.9 174.809   3
  -2  -5  -1 12239.5 180.298   2
   2   5   1 12123.3 182.755   2
   2   5   2 12423.7 196.067   2
  -2   5  -2 12600.5 178.436   3
   2   5   2 12698.2 142.482   1
  -2   5  -2 12963.0 154.062   2
  -2  -5  -2 12843.0 192.626   2
  -2  -5  -3 3475.09 106.600   2
   2   5   3 3386.05 110.545   2
  -2   5  -3 3531.12 80.1571   2
  -2   5  -3 3439.04 96.3004   3
   2   5   4 2064.55 93.2364   2
  -2  -5  -4 1971.59 59.6192   1
  -2  -5  -4 2096.55 89.2522   2
  -2   5  -4 2110.72 62.3920   2
  -2  -5  -5 1383.12 76.9224   2
   2   5   5 1463.35 86.3333   2
  -2  -5  -5 1396.83 52.4284   1
   2  -5   5 1482.02 56.6364   2
  -2   5  -5 1401.27 53.7948   2
  -2   5  -6 21205.5 201.997   2
   2   5   6 20306.3 298.589   2
   2  -5   6 20687.2 205.712   2
  -2  -5  -6 21234.7 290.785   2
  -2  -5  -7 1554.23 86.4922   2
  -2   5  -7 1564.21 59.5649   2
   2  -5   7 1483.86 60.6947   2
   2   5   7 1601.19 95.5843   2
   2  -5   8 54.5674 26.9926   2
   2   5   8 19.7715 46.9833   2
  -2  -5  -8 23.3627 33.1551   2
  -2   5  -8 38.4745 21.7620   2
  -2   5  -9 1310.42 60.6814   2
   2   5   9 1287.17 92.8402   2
   2  -5   9 1258.27 62.9038   2
   2  -5  10 3974.09 109.540   2
  -2   5 -10 4017.98 107.266   2
   2   5  10 4104.93 158.766   2
   2   5  11 40.0461 46.5095   2
  -2   5 -11 57.4600 25.9919   2
   2  -5  11 19.2542 24.6307   2
   2  -5  12 1812.11 83.5782   2
   2   5  12 1686.94 111.907   2
  -2   5 -12 1801.89 80.7182   2
   2  -5  13 1104.16 69.7953   2
   2   5  13 1117.61 97.6989   2
  -2   5 -13 1078.66 66.5699   2
   2  -5  14 21774.5 298.161   2
  -2   5 -14 22396.3 295.943   2
   2   5  14 21231.5 394.552   2
  -2   5 -15 985.060 69.4543   2
   2   5  15 959.576 103.473   2
   2  -5  15 908.272 69.3844   2
   2   5  16 10890.5 297.044   2
  -2   5 -16 10854.3 216.691   2
   2  -5  16 10548.6 224.245   2
   2  -5  17 220.946 43.4404   2
   2   5  17 311.228 77.3268   2
   2   5  18 9057.37 284.220   2
   2  -5  18 8730.18 218.092   2
   2  -5  19 854.365 77.7341   2
   2   5  19 858.951 108.096   2
   2   5  20 6754.60 257.875   2
   2  -5  20 6252.78 195.485   2
   2   5  21 1310.43 128.052   2
   2  -5  21 1337.80 97.1280   2
   2   5  22 322.618 83.0142   2
   2  -5  22 253.697 52.8546   2
   2   5  23 475.569 92.5410   2
   2  -5  23 214.001 52.4164   2
   2   5  24 846.433 115.371   2
   2   5  25 370.387 84.2545   2
   2   5  26 1655.87 153.915   2
   2   5  27 78.6777 62.0723   2
   2   5  28 531.775 100.477   2
   2   5  29 396.573 90.8358   2
  -2   6  30 600.596 107.858   2
  -2   6  29 127.583 71.0596   2
  -2   6  28 46.7076 66.0771   2
  -2   6  27 46.6330 58.9495   2
  -2   6  26 392.275 94.5575   2
  -2   6  25 4320.10 228.821   2
  -2   6  24 455.994 92.1403   2
  -2   6  23 2190.83 161.357   2
  -2  -6  23 2001.80 116.151   2
  -2   6  22 291.417 82.3929   2
  -2  -6  22 195.562 46.9514   2
  -2  -6  21 134.246 38.5489   2
  -2   6  21 122.781 67.4753   2
  -2  -6  20 25.2097 29.4449   2
  -2   6  20 3.10378 51.8496   2
  -2   6  19-30.5065 59.7629   2
  -2  -6  19 33.5589 35.4308   2
   2   6 -19 47.2850 26.5849   3
  -2  -6  18 81.6393 32.8706   2
  -2   6  18 33.0547 52.0238   2
   2   6 -18 94.1176 27.5868   3
   2   6 -17 1155.78 64.4096   3
  -2  -6  17 1119.53 72.9923   2
  -2   6  17 1150.25 108.997   2
  -2  -6  16 485.719 49.8351   2
  -2   6  16 408.662 81.8934   2
   2   6 -16 523.675 43.3840   3
   2   6 -15 1028.08 55.1768   3
  -2  -6  15 1094.24 65.6603   2
  -2   6  15 1174.00 104.142   2
  -2   6  14 413.102 70.6245   2
  -2  -6  14 409.855 43.5282   2
   2   6 -14 506.464 39.4131   3
   2   6 -13 7409.88 125.761   3
  -2   6  13 6428.71 225.368   2
  -2  -6  13 7335.66 149.936   2
   2   6 -12 1062.21 45.4483   3
  -2   6  12 1107.87 95.5138   2
  -2  -6  12 1108.24 58.2449   2
  -2   6  11 908.819 84.8149   2
   2   6 -11 878.708 39.3565   3
  -2   6  10 1336.31 93.4839   3
   2   6 -10 1195.88 40.8635   3
  -2   6  10 1348.18 96.7750   2
   2   6  -9-1.97924 9.33060   3
   2  -6  -9-10.8634 29.8507   3
  -2   6   9 64.8637 46.1188   3
  -2   6   9 28.7981 41.8372   2
   2  -6  -8 5207.79 153.339   3
  -2   6   8 4387.08 159.475   2
  -2   6   8 4978.17 158.948   3
  -2  -6   8 5023.70 98.0004   2
   2  -6  -7 18175.5 272.336   3
  -2  -6   7 18046.3 177.368   2
  -2   6   7 18134.5 283.741   2
  -2   6   7 18311.1 287.954   3
   2  -6  -6 146.913 39.2832   3
  -2  -6   6 124.717 22.0410   2
  -2   6   6 191.358 47.6213   3
  -2  -6   5 13631.5 153.904   2
   2  -6  -5 13794.8 225.899   3
  -2   6   5 13603.8 233.076   3
   2  -6  -4 262.220 43.4654   1
   2   6  -4 192.948 27.6940   2
  -2   6   4 204.490 44.2591   3
  -2  -6   4 169.657 26.5545   2
   2  -6  -4 236.027 39.5893   3
   2   6  -3 7069.43 121.258   2
  -2   6   3 7213.16 157.814   3
   2  -6  -3 7300.85 153.539   1
  -2  -6   3 7230.92 118.422   2
   2  -6  -3 7131.53 151.312   3
   2  -6  -2 1321.95 69.6352   1
   2   6  -2 1170.28 55.8772   2
  -2   6   2 1235.98 68.8784   3
   2  -6  -2 1329.26 68.1475   3
  -2  -6   2 1195.66 54.4768   2
   2  -6  -1 1691.93 76.0826   1
  -2   6   1 1809.15 83.3419   1
   2  -6  -1 1824.77 75.9658   3
  -2   6   1 1695.15 77.2687   3
   2   6  -1 1589.01 68.6248   2
  -2  -6   1 1719.92 68.8230   2
   2   6   0 8307.66 150.683   2
  -2  -6   0 8601.04 149.391   2
  -2   6   0 8750.06 168.697   1
   2  -6   0 8795.02 152.932   3
  -2   6   0 8616.75 157.620   3
   2  -6   1 409.680 39.5645   3
  -2   6  -1 453.300 51.8510   1
  -2   6  -1 394.395 42.0313   3
   2   6   1 365.969 45.6798   2
  -2  -6  -1 396.173 40.5471   2
   2   6   2 295.353 33.6694   1
  -2  -6  -2 282.380 39.7561   2
   2  -6   2 311.428 35.8379   3
   2   6   2 232.861 42.9118   2
  -2   6  -2 297.844 38.0982   3
  -2  -6  -3 28712.0 310.712   2
   2   6   3 28566.6 238.461   1
  -2   6  -3 27307.0 269.411   3
   2   6   3 27987.1 317.001   2
  -2   6  -3 28461.9 223.835   2
  -2   6  -4 12875.8 186.622   3
  -2  -6  -4 13267.0 219.525   2
  -2  -6  -4 12690.6 159.537   1
  -2   6  -4 12853.8 148.713   2
   2   6   4 12914.8 226.307   2
  -2   6  -5 10534.8 137.893   2
   2   6   5 10581.3 213.476   2
  -2  -6  -5 10931.0 210.188   2
  -2   6  -5 10711.6 172.343   3
  -2  -6  -5 10628.2 148.657   1
   2  -6   6 407.541 33.1873   2
   2   6   6 466.192 61.4636   2
  -2  -6  -6 456.325 54.4147   2
  -2   6  -6 382.556 31.4065   2
  -2  -6  -6 440.108 38.5367   1
  -2  -6  -7 3187.14 125.007   2
  -2  -6  -7 3054.26 88.0063   1
  -2   6  -7 3090.73 79.1753   2
   2   6   7 3111.99 131.533   2
   2  -6   7 2965.82 78.9652   2
  -2   6  -8 280.907 29.3376   2
   2   6   8 311.746 60.7175   2
   2  -6   8 262.204 31.1247   2
   2  -6   9 894.020 50.0037   2
   2   6   9 1001.37 86.4015   2
  -2   6  -9 949.822 50.0935   2
   2  -6  10 2170.31 79.0633   2
   2   6  10 2068.19 119.103   2
  -2   6 -10 2225.51 77.4982   2
   2  -6  11 8715.86 158.997   2
   2   6  11 8725.83 238.063   2
  -2   6 -11 8489.24 155.797   2
   2  -6  12 8080.38 161.647   2
  -2   6 -12 7944.39 158.591   2
   2   6  12 7847.97 234.800   2
  -2   6 -13 484.386 44.6655   2
   2  -6  13 427.649 45.7022   2
   2   6  13 494.090 74.9123   2
  -2   6 -14 32.0343 25.5039   2
   2   6  14-49.1987 52.0602   2
   2  -6  14 6.45892 25.8038   2
  -2   6 -15 3666.05 120.662   2
   2   6  15 3443.28 173.091   2
   2  -6  15 3460.78 121.015   2
  -2   6 -16 2489.65 101.765   2
   2  -6  16 2372.09 106.042   2
   2   6  16 2403.96 153.019   2
   2  -6  17 8965.46 205.392   2
   2   6  17 9371.31 287.979   2
  -2   6 -17 9680.93 198.674   2
   2   6  18 3049.38 178.236   2
   2  -6  18 2895.56 122.754   2
   2   6  19 981.245 108.063   2
   2  -6  19 905.471 75.6561   2
   2   6  20-34.7280 53.4249   2
   2  -6  20 91.4817 39.3466   2
   2   6  21 825.066 106.690   2
   2  -6  21 934.213 79.0236   2
   2   6  22 2658.80 178.787   2
   2  -6  22 2344.38 126.899   2
   2   6  23 2691.55 182.885   2
   2   6  24 853.727 117.808   2
   2   6  25-80.8361 71.4618   2
   2   6  26 659.211 111.444   2
   2   6  27 1447.39 149.432   2
   2   6  28 1628.42 161.250   2
  -2   7  29 581.203 108.631   2
  -2   7  28-87.3162 79.6614   2
  -2   7  27 1862.10 163.041   2
  -2   7  26 947.302 123.722   2
  -2   7  25 489.225 101.439   2
  -2   7  24 240.465 77.9605   2
  -2   7  23 1343.56 135.408   2
  -2   7  22 2362.00 168.963   2
  -2  -7  22 2328.92 115.565   2
  -2   7  21 4432.70 223.010   2
  -2  -7  21 4879.94 157.936   2
  -2  -7  20 101.394 33.7652   2
  -2   7  20 160.060 66.5134   2
  -2   7  19 2329.35 156.548   2
  -2  -7  19 2246.89 102.749   2
  -2  -7  18-0.21706 28.9130   2
   2   7 -18 20.2094 20.9678   3
  -2   7  18-16.5514 56.9312   2
  -2   7  17 2643.83 157.301   2
  -2  -7  17 2772.19 105.748   2
   2   7 -17 2836.20 89.7549   3
  -2   7  16 2068.55 136.408   2
   2   7 -16 2234.56 77.4770   3
  -2  -7  16 2109.06 89.0083   2
  -2   7  15 435.693 77.3241   2
  -2  -7  15 388.902 41.2684   2
   2   7 -15 493.463 36.2951   3
  -2   7  14 212.956 60.5482   2
  -2  -7  14 306.969 37.1764   2
   2   7 -14 252.656 25.6815   3
  -2  -7  13 1576.75 67.2170   2
  -2   7  13 1379.27 109.080   2
   2   7 -13 1481.64 51.2617   3
  -2   7  12 845.359 89.9112   2
   2   7 -12 846.467 36.2996   3
  -2  -7  12 1032.62 52.1850   2
   2   7 -11 7199.21 86.4351   3
  -2   7  11 8314.28 229.756   2
  -2   7  10 555.590 72.6573   2
  -2   7  10 754.838 76.8737   3
  -2   7   9 18179.8 318.930   3
  -2   7   9 18631.4 319.533   2
  -2  -7   9 18108.3 179.811   2
  -2  -7   8 3519.27 77.5753   2
  -2   7   8 3583.06 138.656   2
  -2   7   8 3642.95 141.716   3
   2  -7  -8 3666.82 135.879   3
  -2  -7   7 379.071 28.6657   2
  -2   7   7 372.191 61.3325   2
   2  -7  -7 455.980 53.4069   3
  -2   7   7 410.907 62.5013   3
  -2  -7   6 6903.52 108.088   2
  -2   7   6 7070.89 177.594   2
   2  -7  -6 6944.43 172.194   3
  -2   7   6 7042.71 180.669   3
   2   7  -5 9517.02 130.522   2
   2  -7  -5 9324.52 191.714   3
  -2  -7   5 9386.67 128.565   2
   2  -7  -5 9889.36 195.633   1
  -2   7   5 9366.43 203.167   3
   2   7  -4 5629.00 105.507   2
   2  -7  -4 5838.11 148.928   1
   2  -7  -4 6090.80 149.551   3
  -2   7   4 5960.07 155.840   3
  -2  -7   4 5854.32 104.827   2
   2   7  -3 9.86334 23.0250   2
  -2  -7   3 68.2705 21.6647   2
  -2   7   3 10.5505 35.3740   3
   2  -7  -3 43.9425 31.5184   3
   2  -7  -3 9.43489 32.1614   1
   2  -7  -2 349.157 45.2982   1
  -2  -7   2 337.529 34.6552   2
   2  -7  -2 406.132 44.7401   3
  -2   7   2 358.565 48.5295   3
  -2   7   2 354.193 49.2375   1
   2   7  -2 329.506 37.5714   2
  -2   7   1 2552.95 103.407   1
   2  -7  -1 2568.45 97.9990   1
   2  -7  -1 2771.24 92.6911   3
  -2  -7   1 2609.19 84.4553   2
   2   7  -1 2568.61 86.4289   2
  -2   7   1 2519.41 95.8339   3
  -2   7   0 1464.37 81.5351   1
   2  -7   0 1499.88 70.7032   3
  -2  -7   0 1562.60 69.5818   2
   2   7   0 1469.96 71.3554   2
  -2   7   0 1545.94 74.8932   3
   2   7   1 18069.7 240.680   2
  -2  -7  -1 18499.2 235.797   2
   2  -7   1 18546.1 225.422   3
  -2   7  -1 18223.2 233.193   3
  -2   7  -1 18082.8 258.274   1
   2   7   2 15077.2 229.666   2
  -2  -7  -2 15251.7 223.664   2
   2  -7   2 15557.8 203.059   3
  -2   7  -2 14923.4 237.974   1
   2   7   2 14795.4 193.644   1
  -2   7  -2 15152.1 208.446   3
  -2   7  -3 25644.6 270.940   3
  -2  -7  -3 25849.4 305.390   2
   2   7   3 25877.4 314.385   2
   2   7   3 25659.3 250.911   1
  -2   7  -3 25790.5 216.708   2
  -2   7  -4 18580.4 228.584   3
  -2  -7  -4 18874.8 270.004   2
  -2   7  -4 18949.5 181.414   2
   2   7   4 18404.9 279.247   2
  -2   7  -5 560.569 34.1756   2
  -2  -7  -5 507.180 56.0462   2
   2   7   5 611.242 66.4565   2
  -2   7  -5 507.100 44.7792   3
  -2  -7  -5 532.342 43.2420   1
  -2   7  -6 378.863 39.4769   3
  -2  -7  -6 446.505 55.2834   2
  -2   7  -6 397.282 30.2813   2
  -2  -7  -6 402.586 39.4878   1
   2   7   6 369.816 58.2273   2
  -2  -7  -7 24592.9 345.999   2
  -2   7  -7 24343.9 206.083   2
  -2  -7  -7 24205.2 255.423   1
   2   7   7 23206.8 353.595   2
  -2   7  -8 764.240 40.5334   2
  -2  -7  -8 742.869 52.7738   1
   2  -7   8 679.626 40.8182   2
   2   7   8 673.594 77.3606   2
   2   7   9 5385.30 183.433   2
  -2   7  -9 5513.37 107.990   2
   2  -7   9 5562.85 109.934   2
   2  -7  10 12.9703 20.1633   2
  -2   7 -10 5.37224 18.0108   2
   2   7  10 6.32513 45.5152   2
   2  -7  11 56.8512 21.9356   2
   2   7  11 92.0789 51.0597   2
  -2   7 -11 114.881 25.0178   2
   2   7  12 2122.32 130.137   2
   2  -7  12 2128.89 79.5494   2
  -2   7 -12 1983.85 76.8408   2
   2   7  13 8543.64 256.937   2
   2  -7  13 8782.52 165.663   2
  -2   7 -13 8811.87 165.386   2
   2   7  14 599.453 85.8733   2
  -2   7 -14 724.103 53.1090   2
   2  -7  14 743.808 55.2549   2
   2  -7  15 7911.27 171.903   2
  -2   7 -15 8589.70 173.976   2
   2   7  15 8149.53 264.317   2
  -2   7 -16 1495.67 76.7290   2
   2  -7  16 1492.28 80.8080   2
   2   7  16 1567.71 130.052   2
   2   7  17 980.472 109.590   2
   2  -7  17 981.532 70.5754   2
  -2   7 -17 992.074 64.6804   2
   2  -7  18-44.4978 32.6111   2
   2   7  18-79.9101 63.4368   2
   2   7  19 10877.9 332.795   2
   2  -7  19 10811.3 229.244   2
   2   7  20 924.185 114.352   2
   2  -7  20 749.977 68.0537   2
   2   7  21 2632.20 176.017   2
   2  -7  21 2660.80 125.100   2
   2   7  22 15.8073 57.9619   2
   2   7  23-36.0109 62.0552   2
   2   7  24 260.339 76.7515   2
   2   7  25 3155.13 206.998   2
   2   7  26 618.177 111.236   2
   2   7  27 378.611 100.771   2
   2   7  28-28.3093 66.0566   2
  -2   8  28 827.611 124.352   2
  -2   8  27 392.610 93.5218   2
  -2   8  26 3051.14 205.292   2
  -2   8  25 6.62407 65.7112   2
  -2   8  24 5189.76 252.206   2
  -2   8  23 1899.46 157.282   2
  -2   8  22 486.309 96.6343   2
  -2  -8  21 198.696 37.6545   2
  -2   8  21 150.835 69.4026   2
  -2   8  20 57.9705 57.5594   2
  -2  -8  20 29.9806 30.5728   2
  -2  -8  19 2734.59 106.132   2
  -2   8  19 2777.98 172.638   2
  -2  -8  18 3286.10 110.000   2
  -2   8  18 3360.94 185.236   2
  -2  -8  17 125.390 29.2477   2
  -2   8  17 237.137 71.1608   2
   2   8 -17 156.918 23.6046   3
  -2   8  16 3063.38 167.144   2
   2   8 -16 2967.07 79.3483   3
  -2  -8  16 2935.49 96.8954   2
  -2  -8  15 98.2557 26.3487   2
   2   8 -15 94.8770 17.9154   3
  -2   8  15 85.0247 48.1584   2
  -2   8  14 1836.06 124.940   2
   2   8 -14 1540.08 48.2489   3
  -2  -8  14 1806.13 69.2059   2
  -2   8  13 2007.45 131.703   2
   2   8 -13 1593.78 43.1048   3
  -2  -8  13 2064.89 71.0301   2
  -2  -8  12 8219.44 130.341   2
  -2   8  12 8632.44 244.943   2
  -2   8  11 1871.09 117.852   2
  -2  -8  11 1919.57 61.1695   2
  -2  -8  11 1956.56 61.6757   2
  -2  -8  10 12.2569 14.0718   2
  -2   8  10-19.4849 53.9720   3
  -2   8  10-4.92562 45.0274   2
  -2  -8   9 25642.0 199.926   2
  -2   8   9 24958.7 387.045   2
  -2   8   9 25305.4 383.767   3
  -2  -8   8 674.379 34.5392   2
  -2   8   8 787.718 77.1133   2
  -2   8   8 767.605 77.6180   3
   2  -8  -7 2230.10 107.657   3
  -2   8   7 2283.42 112.129   2
  -2   8   7 2359.13 116.180   3
  -2  -8   7 2193.50 60.1830   2
  -2   8   6 4598.92 155.978   3
   2  -8  -6 4650.43 146.728   3
   2  -8  -6 4888.79 149.722   1
  -2  -8   6 4625.26 88.0886   2
  -2   8   6 4397.01 149.307   2
   2   8  -5 5295.09 99.7936   2
  -2   8   5 5180.39 155.789   2
   2  -8  -5 5482.38 156.359   1
   2  -8  -5 5270.17 150.822   3
  -2  -8   5 5206.16 97.0753   2
  -2   8   5 5370.64 160.054   3
  -2  -8   4 657.352 40.7651   2
   2   8  -4 693.775 42.3592   2
   2  -8  -4 792.380 63.3813   1
  -2   8   4 704.038 65.6770   3
   2  -8  -4 823.910 62.5981   3
   2  -8  -3 20.0389 27.9847   3
  -2   8   3 18.9049 36.9341   3
   2   8  -3 4.95632 22.3905   2
   2  -8  -3 5.95014 33.4744   1
  -2  -8   3 6.04049 20.4965   2
   2   8  -2 15943.6 202.872   2
   2  -8  -2 16739.5 239.922   3
  -2   8   2 16054.5 247.277   3
  -2  -8   2 16208.4 197.712   2
  -2   8   2 16006.4 259.459   1
   2  -8  -2 16617.3 255.833   1
  -2  -8   1 9462.02 160.593   2
  -2   8   1 9465.68 185.539   3
   2   8  -1 9435.83 163.051   2
  -2   8   1 9318.42 200.998   1
   2  -8  -1 9790.76 178.274   3
  -2   8   0 7982.21 166.353   3
   2   8   0 8076.33 162.065   2
   2  -8   0 8633.99 165.238   3
  -2   8   0 8282.86 186.905   1
  -2  -8   0 8369.84 158.936   2
   2  -8   1 645.803 49.5348   3
  -2   8  -1 572.502 50.3364   3
  -2  -8  -1 615.166 51.7650   2
  -2   8  -1 618.984 63.5259   1
   2   8   1 587.773 55.2892   2
  -2  -8  -2 14006.8 222.488   2
   2  -8   2 14466.5 203.834   3
  -2   8  -2 13884.2 208.632   3
   2   8   2 14088.7 206.020   1
   2   8   2 14550.8 235.415   2
  -2   8  -2 14188.1 246.171   1
  -2  -8  -3 183.911 38.3613   2
   2   8   3 215.735 48.7880   2
   2   8   3 246.950 40.6333   1
  -2   8  -3 189.420 37.6752   3
  -2   8  -4 27822.7 288.593   3
   2   8   4 28591.7 359.181   2
  -2   8  -4 28688.0 222.525   2
  -2  -8  -4 29223.5 347.018   2
  -2  -8  -5 2545.59 110.430   2
  -2   8  -5 2372.66 63.1806   2
   2   8   5 2236.22 111.434   2
  -2   8  -5 2414.77 87.5242   3
  -2   8  -6 12034.9 189.052   3
  -2   8  -6 12230.4 139.830   2
  -2  -8  -6 12458.9 248.088   2
   2   8   6 11582.0 247.806   2
  -2  -8  -6 12171.3 189.470   1
   2   8   7 4830.91 169.821   2
  -2   8  -7 4873.94 123.640   3
  -2  -8  -7 5192.06 127.981   1
  -2   8  -7 4944.41 90.3182   2
   2   8   8 464.574 70.0214   2
  -2  -8  -8 529.787 49.7744   1
  -2   8  -8 432.385 43.0327   3
  -2   8  -8 514.358 32.7615   2
  -2   8  -9 2697.65 71.1082   2
   2   8   9 2618.43 134.882   2
  -2  -8  -9 2735.22 99.5584   1
   2  -8   9 2646.24 72.4770   2
  -2   8 -10 9476.29 137.034   2
   2  -8  10 9351.31 139.673   2
   2   8  10 9242.88 251.870   2
   2   8  11 3112.97 154.730   2
  -2   8 -11 3162.45 85.0526   2
   2  -8  11 3153.46 85.6296   2
  -2   8 -12 34.9605 19.9241   2
   2   8  12-27.6395 51.7808   2
   2  -8  12 52.0033 23.0373   2
   2   8  13-21.7818 52.5645   2
  -2   8 -13 12.4664 19.7576   2
   2  -8  13 4.49235 21.9224   2
   2  -8  14 4920.76 121.664   2
   2   8  14 5042.41 209.861   2
  -2   8 -14 5100.82 122.798   2
   2  -8  15 6528.74 146.420   2
  -2   8 -15 6517.15 142.193   2
   2   8  15 6169.51 237.848   2
   2   8  16 10457.4 309.636   2
  -2   8 -16 10881.3 188.131   2
   2  -8  16 10332.2 190.180   2
   2  -8  17 4801.00 136.925   2
   2   8  17 4808.18 221.190   2
   2  -8  18 983.389 67.2325   2
   2   8  18 1009.49 114.110   2
   2   8  19 850.583 112.136   2
   2  -8  19 927.956 70.2741   2
   2   8  20 99.6283 72.5893   2
   2   8  21 254.291 73.3856   2
   2   8  22-79.2453 71.7653   2
   2   8  23 3404.04 210.781   2
   2   8  24 957.788 128.485   2
   2   8  25 71.2308 58.7529   2
   2   8  26 120.079 72.2579   2
   2   8  27 315.002 91.2299   2
  -2   9  28 638.551 114.205   2
  -2   9  27 817.581 122.630   2
  -2   9  26 1184.53 142.284   2
  -2   9  25 101.812 60.1399   2
  -2   9  24 185.873 81.5886   2
  -2   9  23 1665.26 150.942   2
  -2   9  22 1920.22 157.255   2
  -2   9  21 2492.99 174.631   2
  -2   9  20 5515.50 245.571   2
  -2  -9  19 48.8496 28.0172   2
  -2   9  19 138.233 67.1367   2
  -2   9  18-6.22630 56.9970   2
  -2  -9  18 48.4279 24.9293   2
  -2   9  17 2539.54 161.693   2
  -2  -9  17 2284.97 82.4066   2
   2   9 -17 2052.75 61.9836   3
  -2  -9  16 6475.76 129.295   2
   2   9 -16 5277.97 86.2407   3
  -2   9  16 6277.00 241.121   2
  -2   9  15 3325.06 173.388   2
  -2  -9  15 3224.20 86.9327   2
  -2  -9  14 16.7442 16.4170   2
  -2  -9  14 17.6011 14.4997   2
  -2   9  14-71.5491 61.1387   2
  -2  -9  13 65.2598 18.2388   2
  -2   9  13-5.77226 51.7876   2
  -2  -9  13 100.298 18.5016   2
  -2   9  12 11242.5 308.529   2
  -2  -9  12 12983.3 147.461   2
  -2  -9  12 12649.5 144.500   2
  -2  -9  11-3.68912 13.1215   2
  -2   9  11 44.7084 49.3026   2
  -2  -9  11 2.93539 11.4301   2
  -2   9  10 5367.15 189.523   2
  -2  -9  10 4763.28 82.2635   2
  -2   9   9 2686.99 133.852   2
  -2  -9   9 2329.30 58.3697   2
  -2   9   9 2721.77 135.347   3
  -2   9   8 2929.00 136.092   3
  -2   9   8 2845.20 139.631   2
  -2  -9   8 2889.64 65.1880   2
  -2   9   7 96.4227 46.6931   2
  -2  -9   7 103.096 17.7387   2
  -2   9   7 133.569 53.5028   3
   2  -9  -6 6201.77 174.693   3
  -2  -9   6 6101.51 100.567   2
  -2   9   6 6361.79 184.208   3
  -2   9   6 6184.85 177.418   2
   2  -9  -5 10926.5 222.905   3
  -2  -9   5 9746.78 97.0193   3
  -2  -9   5 10848.1 140.965   2
   2  -9  -5 10777.5 225.693   1
   2   9  -5 10863.7 143.004   2
  -2   9   5 10904.3 235.420   3
  -2   9   5 10566.7 223.850   2
   2  -9  -4 12894.3 233.309   3
   2  -9  -4 12520.6 239.226   1
  -2   9   4 11479.6 228.892   2
   2   9  -4 12430.5 164.520   2
  -2  -9   4 12116.3 158.316   2
  -2   9   4 12444.9 240.831   3
   2  -9  -3 9630.90 208.048   1
   2   9  -3 9303.27 152.145   2
  -2  -9   3 9363.30 148.658   2
  -2   9   3 9452.68 203.578   3
   2  -9  -3 9643.94 196.381   3
  -2   9   3 9011.91 192.126   2
   2  -9  -2 872.996 71.0167   1
  -2  -9   2 818.490 50.0494   2
   2  -9  -2 914.235 62.2863   3
  -2   9   2 847.576 70.2840   3
  -2   9   2 829.926 77.9862   1
   2   9  -2 768.845 53.4242   2
   2  -9  -1 4808.72 130.857   3
  -2   9   1 4323.52 130.726   3
  -2  -9   1 4539.68 115.682   2
  -2   9   1 4471.28 149.437   1
   2   9  -1 4388.10 118.139   2
  -2   9   0 12913.3 243.779   1
  -2  -9   0 12890.0 201.916   2
  -2   9   0 12596.7 215.100   3
   2   9   0 12845.1 209.112   2
   2  -9   0 12927.2 208.067   3
   2   9   1 1367.86 76.9300   1
  -2  -9  -1 1406.48 74.7574   2
   2  -9   1 1415.75 70.5689   3
   2   9   1 1333.32 77.2732   2
  -2   9  -1 1374.52 88.0067   1
  -2   9  -1 1323.44 73.9544   3
  -2  -9  -2 8650.50 180.135   2
  -2   9  -2 8451.41 200.736   1
   2   9   2 8256.41 170.862   1
   2  -9   2 8746.51 162.661   3
  -2   9  -2 8614.94 169.622   3
   2   9   2 8269.06 185.346   2
   2   9   3 595.976 62.2323   2
   2   9   3 615.813 55.1105   1
  -2   9  -3 624.769 52.8558   3
  -2  -9  -3 601.563 58.3544   2
   2  -9   3 644.089 48.3322   3
  -2  -9  -4 8370.84 195.342   2
  -2   9  -4 8143.26 121.479   2
   2   9   4 8397.15 170.557   1
   2   9   4 8209.53 201.151   2
  -2   9  -4 8085.04 159.450   3
  -2  -9  -5 1297.12 84.6130   2
  -2   9  -5 1252.15 46.4244   2
   2   9   5 1342.52 91.9691   2
  -2   9  -5 1314.18 67.5178   3
  -2   9  -6 12943.7 142.259   2
  -2  -9  -6 13512.3 213.183   1
  -2   9  -6 13323.0 202.893   3
   2   9   6 13617.0 273.272   2
  -2  -9  -7 2875.63 103.113   1
  -2   9  -7 2718.46 64.2902   2
   2   9   7 2868.53 135.764   2
  -2   9  -7 2746.94 95.1793   3
  -2  -9  -8 36263.3 360.903   1
  -2   9  -8 34643.7 226.959   2
   2   9   8 34874.1 463.675   2
  -2   9  -8 35692.7 336.783   3
  -2   9  -9 3367.07 73.3252   2
  -2   9  -9 3374.43 107.249   3
  -2  -9  -9 3392.71 115.212   1
   2   9   9 3329.21 155.935   2
  -2   9 -10 659.294 35.2161   2
  -2  -9 -10 661.749 56.9175   1
   2   9  10 578.428 78.0663   2
  -2   9 -11 293.020 26.7464   2
   2  -9  11 309.564 26.9377   2
   2   9  11 175.915 56.1277   2
  -2  -9 -11 304.144 44.5076   1
   2  -9  12 153.136 23.7639   2
  -2   9 -12 207.153 25.3088   2
   2   9  12 175.212 53.6797   2
  -2   9 -13 15.5734 15.7305   2
   2  -9  13 16.9570 16.9065   2
   2   9  13 42.5904 53.5334   2
  -2   9 -14 6428.38 127.288   2
   2  -9  14 6585.39 129.297   2
   2   9  14 6140.66 233.930   2
  -2   9 -15-15.0680 21.2092   2
   2  -9  15 21.2062 19.8403   2
   2   9  15 20.0528 56.7015   2
   2  -9  16 144.571 29.6578   2
   2   9  16 68.6449 59.1657   2
   2  -9  17 3128.56 103.044   2
   2   9  17 3334.39 188.819   2
   2  -9  18 2497.24 97.0244   2
   2   9  18 2538.37 168.964   2
   2   9  19 675.925 104.325   2
   2   9  20 621.526 99.3849   2
   2   9  21 1034.66 121.302   2
   2   9  22 770.929 111.175   2
   2   9  23 149.466 86.7268   2
   2   9  24 172.601 72.0007   2
   2   9  25 581.651 113.087   2
   2   9  26 108.612 78.1809   2
  -2  10  27 1380.77 152.767   2
  -2  10  26 617.868 118.702   2
  -2  10  25 1327.92 145.494   2
  -2  10  24 372.113 86.5450   2
  -2  10  23 349.224 80.5915   2
  -2  10  22 75.6099 70.2136   2
  -2  10  21 258.712 82.7723   2
  -2  10  20 115.880 66.2041   2
  -2  10  19 1313.49 132.613   2
  -2  10  18 6868.74 274.189   2
  -2 -10  18 6925.71 133.341   2
  -2  10  17-29.1277 59.1466   2
  -2 -10  17-19.0158 15.7998   2
  -2  10  16 205.331 65.3909   2
  -2 -10  16 168.102 22.9946   2
  -2 -10  16 157.142 22.5590   2
  -2 -10  15 1621.46 54.7236   2
  -2 -10  15 1505.40 54.0105   2
  -2  10  15 1718.71 132.627   2
  -2 -10  14 10771.8 128.554   2
  -2 -10  14 9648.02 122.602   2
  -2  10  14 11600.9 314.033   2
  -2  10  13 2367.50 145.844   2
  -2 -10  13 2083.03 54.6690   2
  -2 -10  13 2312.83 57.1173   2
  -2  10  12 0.44497 48.7846   2
  -2 -10  12 7.94170 9.03124   2
  -2 -10  12 13.8921 10.7343   2
  -2  10  11 586.004 83.4037   2
  -2 -10  11 675.466 28.7515   2
  -2 -10  11 606.848 27.7879   2
  -2  10  10 1735.60 115.589   2
  -2 -10  10 1448.83 40.8196   2
  -2 -10   9 3011.12 59.9244   2
  -2  10   9 3377.45 150.799   2
  -2  10   9 3453.76 152.993   3
  -2  10   8 8534.15 230.905   3
  -2  10   8 8507.55 225.817   2
  -2 -10   8 8001.73 101.620   2
  -2 -10   7 1736.65 52.3835   2
  -2  10   7 1800.71 109.351   3
  -2  10   7 1679.94 104.583   2
  -2  10   6 7128.20 203.755   2
  -2  10   6 7881.51 215.539   3
   2  10  -6 8275.52 120.004   2
  -2 -10   6 7874.55 115.928   2
  -2 -10   5 2936.96 56.9669   3
  -2  10   5 3100.58 128.179   2
  -2 -10   5 3207.35 79.8649   2
   2  10  -5 3064.29 80.5066   2
  -2  10   5 3264.50 135.939   3
  -2 -10   4 13478.7 171.914   2
  -2 -10   4 13268.0 144.019   3
   2  10  -4 13656.0 177.538   2
   2 -10  -4 13927.8 253.500   3
  -2  10   4 13150.6 244.217   2
  -2  10   4 13488.1 259.983   3
  -2  10   3 4.00889 35.2858   2
  -2 -10   3 18.3238 18.5842   3
   2  10  -3 22.2664 22.8301   2
   2 -10  -3 67.1544 35.5963   3
  -2 -10   3 2.14102 19.4835   2
  -2  10   3 28.0557 38.8768   3
  -2  10   2 212.955 53.1672   1
   2  10  -2 192.730 35.4035   2
  -2 -10   2 140.062 28.4178   2
   2 -10  -2 242.650 41.8667   3
  -2  10   2 113.193 37.4615   2
  -2  10   2 197.268 47.5261   3
  -2  10   1 2166.99 112.480   1
  -2  10   1 2160.85 97.6959   3
   2 -10  -1 2203.07 95.8118   3
  -2 -10   1 2167.30 85.0529   2
  -2  10   1 1901.32 89.3005   2
   2  10  -1 2227.12 88.6792   2
  -2 -10   0 1329.43 70.2299   2
   2  10   0 1415.48 77.4646   2
  -2  10   0 1502.72 81.8029   3
  -2  10   0 1577.78 98.6859   1
   2 -10   0 1408.12 75.1443   3
   2  10   1 30.0117 38.0952   1
  -2  10  -1 62.3009 48.6270   1
   2 -10   1 88.3391 29.5449   3
   2  10   1 92.4179 40.0535   2
  -2  10  -1 109.710 35.5068   3
  -2 -10  -1 51.3902 29.5435   2
  -2  10  -2 1993.65 108.066   1
   2  10   2 1945.34 92.6347   1
  -2 -10  -2 1990.86 93.4782   2
   2 -10   2 2047.08 84.8181   3
  -2  10  -2 2076.32 89.4490   3
   2  10   2 1946.21 97.5721   2
   2 -10   3 6923.93 147.837   3
   2  10   3 6721.29 162.875   1
   2  10   3 6600.62 180.205   2
  -2 -10  -3 6970.10 178.064   2
  -2  10  -3 6531.28 152.442   3
  -2  10  -4 50073.8 306.698   2
   2  10   4 49409.9 496.312   2
  -2  10  -4 49245.9 403.135   3
   2  10   4 49695.9 436.136   1
  -2 -10  -4 51729.4 493.901   2
  -2  10  -5 26085.7 291.044   3
   2  10   5 25994.3 373.028   2
  -2  10  -5 26024.5 209.455   2
  -2  10  -6 2504.65 91.5666   3
   2  10   6 2563.24 128.320   2
  -2  10  -6 2385.66 61.1708   2
  -2 -10  -7 843.210 61.2996   1
  -2  10  -7 948.581 58.8236   3
   2  10   7 993.430 92.5225   2
  -2  10  -7 921.719 36.5598   2
   2  10   8 952.847 88.3118   2
  -2  10  -8 839.572 33.7339   2
  -2  10  -8 909.526 58.4299   3
  -2 -10  -8 763.066 60.0763   1
  -2  10  -9 2118.67 84.7730   3
   2  10   9 2120.04 126.978   2
  -2  10  -9 1861.94 49.0063   2
  -2 -10  -9 1949.37 91.0377   1
  -2 -10 -10 2690.47 109.185   1
  -2  10 -10 2598.74 95.9102   3
   2  10  10 2632.15 145.924   2
  -2  10 -10 2624.13 59.1320   2
   2  10  11 224.440 64.8375   2
  -2  10 -11 205.467 20.4436   2
  -2  10 -11 203.698 34.2133   3
  -2 -10 -11 203.070 39.1539   1
  -2  10 -12 242.720 22.3518   2
   2  10  12 244.014 68.1299   2
  -2  10 -12 255.666 37.5256   3
  -2  10 -13 96.2372 18.2200   2
   2  10  13 140.600 60.2868   2
   2 -10  14 87.6276 19.3616   2
  -2  10 -14 91.6643 19.9621   2
   2  10  14 58.0648 51.5397   2
   2  10  15 993.337 105.767   2
   2 -10  15 1028.82 49.8081   2
   2  10  16 189.231 72.4195   2
   2 -10  16 166.397 27.0664   2
   2  10  17 94.6709 62.6550   2
   2  10  18 1236.73 128.866   2
   2  10  19 11.9949 61.2923   2
   2  10  20 413.328 87.8890   2
   2  10  21 470.668 91.8633   2
   2  10  22 588.006 104.751   2
   2  10  23 342.352 84.5070   2
   2  10  24 51.7923 74.8674   2
   2  10  25 93.9858 74.9953   2
   2  10  26 35.0070 71.3092   2
  -2  11  26 1036.57 139.034   2
  -2  11  25 1068.40 133.256   2
  -2  11  24 200.140 82.7375   2
  -2  11  23 1288.43 139.758   2
  -2  11  22 475.281 93.8827   2
  -2  11  21 2299.53 176.611   2
  -2  11  20 267.712 82.6088   2
  -2  11  19 180.899 76.5094   2
  -2  11  18 2165.24 161.630   2
  -2  11  17 313.934 79.9940   2
  -2  11  16 1516.43 128.687   2
  -2 -11  16 1203.88 39.7857   2
  -2 -11  15 659.002 26.9970   2
  -2 -11  15 598.122 26.0875   2
  -2  11  15 1126.64 115.957   2
  -2  11  14 533.097 91.2964   2
  -2  11  13 12.2571 56.5049   2
  -2  11  12 3576.09 173.710   2
  -2  11  11 5371.14 201.465   2
  -2  11  10 96.8907 52.6416   2
  -2  11   9 3061.17 156.375   2
  -2 -11   9 3088.78 55.0718   2
  -2  11   9 3647.56 162.255   3
  -2 -11   8 2882.00 59.4814   2
  -2  11   8 2716.80 146.558   2
  -2  11   8 3195.80 147.720   3
  -2 -11   7 14.0687 12.7972   2
  -2  11   7-1.80285 44.1904   3
  -2  11   7-0.09875 43.0027   2
   2  11  -6 1663.83 56.4248   2
  -2 -11   6 1642.32 55.0774   2
  -2  11   6 1561.50 100.497   2
  -2  11   6 1525.17 100.399   3
   2  11  -5 6859.16 122.100   2
  -2 -11   5 6579.68 90.6210   3
  -2  11   5 7081.43 192.004   2
  -2  11   5 7071.46 199.168   3
  -2 -11   5 6839.21 118.371   2
   2  11  -4 3563.21 95.9095   2
  -2  11   4 3160.07 135.642   2
  -2 -11   4 3696.98 94.2038   2
  -2  11   4 3679.86 143.164   3
  -2 -11   4 3484.67 79.2333   3
   2  11  -3 24402.1 263.666   2
  -2 -11   3 24089.9 251.897   2
   2 -11  -3 25185.2 339.109   3
  -2 -11   3 24182.4 229.818   3
  -2  11   3 24618.5 348.670   3
  -2  11   3 23718.6 327.975   2
  -2  11   2 2053.51 114.667   1
  -2 -11   2 2069.85 80.6102   2
   2 -11  -2 2069.98 96.8364   3
  -2  11   2 1967.07 102.304   3
   2  11  -2 2019.25 83.3521   2
  -2 -11   2 1891.30 71.7387   3
  -2  11   2 2075.19 94.6319   2
  -2 -11   1 1800.37 74.5516   3
  -2 -11   1 1869.43 81.3613   2
  -2  11   1 1752.82 105.882   1
   2 -11  -1 1965.63 91.9067   3
   2  11  -1 1868.98 84.2383   2
  -2  11   1 1888.41 97.2957   3
  -2  11   1 1806.91 86.8792   2
   2 -11   0 2787.22 106.998   3
  -2 -11   0 2726.85 101.557   2
  -2  11   0 2845.72 111.427   3
   2  11   0 2579.93 103.475   2
  -2  11   0 2779.41 129.971   1
  -2  11   0 2643.83 99.3545   2
  -2 -11  -1 33765.9 366.476   2
   2  11   1 33893.3 390.324   1
  -2  11  -1 32227.7 318.177   2
   2 -11   1 32799.4 349.032   3
   2  11   1 33374.1 375.891   2
  -2  11  -1 32035.7 359.446   3
  -2  11  -1 33175.5 431.649   1
  -2  11  -2 2022.37 113.419   1
   2 -11   2 2012.25 86.0592   3
   2  11   2 1824.02 95.9675   1
  -2 -11  -2 2161.49 101.557   2
  -2  11  -2 2035.97 92.0517   3
   2  11   2 1917.00 99.5208   2
  -2 -11  -3 16317.1 276.782   2
  -2  11  -3 16257.5 307.467   1
  -2  11  -3 15551.1 239.319   3
   2  11   3 15867.5 263.338   1
   2 -11   3 15634.4 230.853   3
   2  11   3 15846.2 281.966   2
   2  11   4 4606.94 159.955   2
  -2  11  -4 4346.04 123.889   3
   2  11   4 4864.87 147.448   1
  -2  11  -5 10358.9 134.269   2
  -2  11  -5 10582.6 189.920   3
   2  11   5 10472.7 248.166   2
  -2  11  -6 7274.84 156.009   3
   2  11   6 7174.38 210.980   2
  -2  11  -6 7337.34 104.066   2
  -2  11  -7 3463.89 65.5765   2
   2  11   7 3550.84 157.511   2
  -2  11  -7 3683.56 110.913   3
  -2  11  -8 7.58483 24.9603   3
   2  11   8-10.5961 45.0587   2
  -2  11  -8 7.96589 8.58546   2
  -2 -11  -8-16.7942 28.4808   1
  -2  11  -9 5118.43 67.0004   2
   2  11   9 5512.85 202.966   2
  -2 -11  -9 5661.54 158.142   1
  -2  11  -9 5831.49 140.163   3
  -2  11 -10 309.370 38.8294   3
   2  11  10 258.203 65.5530   2
   2  11  11 140.341 56.9118   2
  -2  11 -11 292.103 38.3204   3
   2  11  12 183.108 63.3705   2
  -2  11 -12 167.021 33.7327   3
   2  11  13 10509.5 308.748   2
  -2  11 -13 10957.9 201.479   3
  -2  11 -14 1826.48 85.8504   3
   2  11  14 1724.91 136.441   2
   2  11  15 359.083 82.8853   2
   2  11  16 89.2996 65.5819   2
   2  11  17 309.177 75.7294   2
   2  11  18 233.756 81.3477   2
   2  11  19 5140.16 252.217   2
   2  11  20 67.9100 75.4910   2
   2  11  21 4808.32 250.782   2
   2  11  22 536.003 104.297   2
   2  11  23 31.9026 68.8161   2
   2  11  24-107.003 74.9782   2
   2  11  25 198.168 96.5880   2
  -2  12  26 276.158 92.1897   2
  -2  12  25 1039.40 138.257   2
  -2  12  24 971.564 132.688   2
  -2  12  23 2354.61 183.167   2
  -2  12  22-56.0916 68.5192   2
  -2  12  21 261.506 83.6221   2
  -2  12  20-44.6656 69.6454   2
  -2  12  19 3798.38 211.732   2
  -2  12  18 624.775 99.9215   2
  -2  12  17 1410.31 129.570   2
  -2  12  16 3.90606 57.6508   2
  -2  12  15 1187.87 116.457   2
  -2  12  14 1104.61 114.314   2
  -2  12  13 5556.30 224.761   2
  -2  12  12 874.304 96.8803   2
  -2  12  11 609.883 88.5648   2
  -2  12  10 108.744 55.1876   2
  -2  12   9 1576.81 117.522   2
  -2 -12   8 58.4523 11.4621   2
  -2  12   8 9.73890 47.4248   2
  -2  12   8 36.4774 45.3998   3
  -2  12   7 3995.43 166.518   3
  -2 -12   7 3575.91 74.7615   2
  -2  12   7 3607.03 155.054   2
  -2 -12   6 10222.1 138.196   2
  -2  12   6 10227.9 254.831   2
  -2  12   6 10588.7 260.239   3
   2  12  -6 10834.7 143.460   2
   2  12  -5 1075.37 51.7550   2
  -2 -12   5 1027.82 49.7093   2
  -2 -12   5 1056.87 40.3148   3
  -2  12   5 1029.30 86.5976   3
  -2  12   5 1104.59 85.2452   2
  -2 -12   4 1071.96 54.7267   2
  -2  12   4 1059.41 81.1146   2
  -2 -12   4 1137.92 48.6734   3
  -2  12   4 1127.35 86.9764   3
   2  12  -4 1055.95 57.0919   2
  -2 -12   3 2137.65 81.7357   2
  -2  12   3 2222.48 108.349   2
  -2  12   3 2310.82 116.479   3
  -2 -12   3 2175.91 73.6609   3
   2  12  -3 2274.94 86.4385   2
  -2 -12   2 1670.51 76.0517   2
  -2  12   2 1677.43 97.8903   3
  -2  12   2 1694.97 111.004   1
   2 -12  -2 1737.06 93.2945   3
  -2 -12   2 1653.88 70.0278   3
   2  12  -2 1662.54 78.0185   2
  -2  12   2 1682.99 89.8618   2
   2 -12  -1 7819.97 185.983   3
   2  12  -1 7307.36 167.583   2
  -2  12   1 7422.33 191.011   3
  -2  12   1 7262.84 173.580   2
  -2 -12   1 7409.43 164.270   2
  -2  12   1 7643.76 218.716   1
  -2 -12   1 7378.76 153.701   3
  -2  12   0 55.6399 30.1582   2
   2  12   0 24.0116 44.5735   1
  -2  12   0 35.6653 32.1877   3
  -2  12   0 67.2417 45.4583   1
  -2 -12   0 37.0638 26.7855   2
  -2 -12   0 72.4024 28.1922   3
   2 -12   0 34.4189 29.0580   3
   2  12   0 16.6732 33.0252   2
  -2 -12  -1 3076.44 111.328   3
  -2 -12  -1 3148.44 120.135   2
   2 -12   1 3465.13 118.367   3
  -2  12  -1 3012.86 115.990   3
   2  12   1 3198.02 124.091   2
   2  12   1 3186.03 129.497   1
  -2  12  -1 3215.08 148.164   1
  -2  12  -1 3041.89 103.780   2
  -2 -12  -2 158.322 37.3721   2
   2 -12   2 140.897 31.5467   3
  -2  12  -2 128.064 31.3457   2
   2  12   2 125.813 45.1306   1
   2  12   2 150.166 43.7876   2
  -2  12  -2 104.808 50.4625   1
  -2  12  -2 91.0648 35.8333   3
  -2 -12  -2 149.899 37.3127   3
   2  12   3 6906.64 184.499   1
   2  12   3 6901.50 191.779   2
  -2  12  -3 6739.37 162.556   3
  -2  12  -3 7039.48 213.790   1
  -2  12  -3 6735.26 133.362   2
   2 -12   3 6882.22 159.192   3
   2  12   4 8165.98 215.590   2
  -2  12  -4 8179.14 174.756   3
   2  12   4 8584.18 204.018   1
  -2  12  -4 8187.08 135.435   2
  -2  12  -5 27083.1 222.866   2
   2  12   5 27817.0 407.535   2
  -2  12  -5 27593.3 314.323   3
  -2  12  -5 27441.5 227.584   2
  -2  12  -6 4937.45 88.0285   2
  -2  12  -6 5158.26 133.516   3
  -2  12  -6 4819.22 85.0497   2
   2  12   6 5120.10 184.683   2
  -2  12  -7 88.3701 13.3867   2
  -2  12  -7 60.9078 11.6841   2
   2  12   7 29.2854 42.7713   2
  -2  12  -7 63.5475 25.3173   3
  -2  12  -8 315.477 38.6358   3
   2  12   8 384.846 72.2981   2
   2  12   9 2831.37 152.138   2
  -2  12  -9 3016.21 101.180   3
   2  12  10 883.821 96.7944   2
  -2  12 -10 1016.52 62.3254   3
   2  12  11 2280.60 145.422   2
  -2  12 -11 2459.46 92.0689   3
  -2  12 -12 2258.55 91.1350   3
   2  12  12 2200.22 146.791   2
  -2  12 -13 620.870 52.1631   3
   2  12  13 633.756 94.3229   2
  -2  12 -14 34.0643 28.1647   3
   2  12  14 103.703 71.7431   2
  -2  12 -15 5698.13 149.394   3
   2  12  15 5453.19 239.323   2
  -2  12 -16 2348.88 99.5866   3
   2  12  16 2146.25 160.499   2
  -2  12 -17 2386.01 102.767   3
   2  12  17 2748.37 181.492   2
   2  12  18 3304.84 202.684   2
   2  12  19 12.0738 61.5852   2
   2  12  20 136.731 82.3463   2
   2  12  21 3039.80 204.634   2
   2  12  22 970.827 132.713   2
   2  12  23 542.962 106.051   2
   2  12  24 402.192 98.0216   2
  -2  13  25 164.796 75.9896   2
  -2  13  24 405.512 100.059   2
  -2  13  23-119.554 78.1820   2
  -2  13  22 2268.28 181.343   2
  -2  13  21 18.7645 68.8154   2
  -2  13  20 2451.87 179.411   2
  -2  13  19-46.7209 62.6167   2
  -2  13  18-23.7036 60.4820   2
  -2  13  17 745.824 105.225   2
  -2  13  16-0.61905 60.1918   2
  -2  13  15 187.114 64.9831   2
  -2  13  14 165.050 67.0324   2
  -2  13  13 530.695 86.0585   2
  -2  13  12 3810.94 186.058   2
  -2  13  11 2584.21 152.148   2
  -2  13  10 6757.49 228.506   2
  -2  13   9 914.918 93.8776   2
  -2 -13   8 3002.57 58.0104   2
  -2  13   8 3474.33 160.657   2
  -2 -13   7 7116.99 107.152   2
  -2  13   7 7362.82 225.899   2
  -2  13   7 7479.18 229.965   3
  -2  13   6-37.3372 47.5034   3
  -2  13   6-16.0971 40.6548   2
  -2 -13   6 37.6502 16.8132   2
   2  13  -6 50.8156 17.3033   2
  -2 -13   6 43.9848 9.78176   3
  -2  13   5 425.023 65.6225   2
   2  13  -5 510.470 39.2896   2
  -2 -13   5 420.413 29.3418   3
  -2 -13   5 508.676 38.4866   2
  -2  13   5 468.357 64.1974   3
  -2  13   4 608.557 68.0109   2
   2  13  -4 626.732 46.0921   2
  -2 -13   4 597.443 38.0033   3
  -2  13   4 708.568 72.4439   3
  -2 -13   4 564.488 42.9731   2
  -2  13   3 4805.21 159.237   2
   2  13  -3 4790.34 125.486   2
  -2  13   3 5199.90 188.867   1
  -2 -13   3 4700.85 112.305   3
  -2  13   3 4855.67 169.558   3
  -2 -13   3 4683.41 122.858   2
  -2  13   2 595.172 61.1391   2
  -2  13   2 678.997 69.8068   3
  -2 -13   2 732.439 49.9190   3
   2  13  -2 656.582 54.0567   2
  -2 -13   2 666.251 51.8665   2
  -2  13   2 804.229 86.3997   1
  -2 -13   1 652.923 55.1008   2
  -2  13   1 691.904 81.5576   1
   2 -13  -1 654.402 60.5084   3
   2  13  -1 669.715 59.3252   2
  -2  13   1 707.130 66.9818   3
  -2  13   1 676.572 62.7016   2
  -2 -13   1 757.751 55.2830   3
  -2  13   0 1873.92 117.174   1
  -2  13   0 1800.18 87.4490   2
   2  13   0 1842.22 94.5777   2
   2 -13   0 1738.09 91.1275   3
  -2  13   0 1700.06 96.8155   3
  -2 -13   0 1783.38 88.0666   2
  -2 -13   0 1654.62 82.5423   3
   2  13   0 1753.09 104.165   1
  -2  13  -1 660.918 55.9638   2
  -2 -13  -1 505.322 55.0346   2
   2  13   1 469.345 64.9321   1
  -2  13  -1 602.852 73.2306   1
   2  13   1 685.122 68.5307   2
  -2  13  -1 555.354 56.7394   3
   2 -13   1 582.899 53.2749   3
  -2 -13  -1 520.866 51.3793   3
   2 -13   2 23019.9 300.132   3
  -2 -13  -2 22182.9 326.008   2
  -2  13  -2 22069.2 385.160   1
   2  13   2 22802.2 349.749   1
  -2  13  -2 21416.2 263.348   2
   2  13   2 22010.0 335.748   2
  -2  13  -2 22076.1 309.234   3
  -2 -13  -2 21918.6 315.972   3
   2  13   3 2984.41 132.006   2
   2 -13   3 2860.41 107.108   3
  -2  13  -3 2805.68 91.7183   2
  -2  13  -3 2929.13 147.149   1
  -2  13  -3 2770.14 110.634   3
   2  13   3 2910.26 131.163   1
  -2  13  -4 4920.30 107.867   2
  -2  13  -4 4725.25 139.153   3
   2 -13   4 4847.28 134.179   3
   2  13   4 5028.47 166.792   1
   2  13   4 4927.16 177.360   2
  -2  13  -4 4638.51 179.788   1
  -2  13  -5 13.9896 15.5287   2
  -2  13  -5-5.64129 16.3508   2
  -2  13  -5 20.7565 26.9570   3
   2  13   5 15.8749 44.2997   2
  -2  13  -6 6990.24 106.615   2
  -2  13  -6 7435.28 166.931   3
  -2  13  -6 7067.06 104.284   2
   2  13   6 7556.72 226.756   2
  -2  13  -7 10710.2 107.807   2
  -2  13  -7 11516.1 201.148   3
   2  13   7 10877.5 280.202   2
   2  13   8 3715.13 171.598   2
  -2  13  -8 3805.77 115.111   3
  -2  13  -9 91.5179 26.9671   3
   2  13   9 156.930 58.9436   2
   2  13  10 3931.63 185.758   2
  -2  13 -10 3859.30 114.163   3
   2  13  11 2339.52 151.622   2
  -2  13 -11 2519.96 92.6982   3
   2  13  12 434.327 85.2629   2
  -2  13 -12 512.958 45.7056   3
  -2  13 -13 1894.26 82.8537   3
   2  13  13 1767.22 139.559   2
   2  13  14 9595.65 313.047   2
  -2  13 -14 10076.3 189.738   3
  -2  13 -15 19.9328 23.3312   3
   2  13  15 97.5938 61.2950   2
   2  13  16 301.015 79.5266   2
   2  13  17 2852.86 188.196   2
   2  13  18 2095.65 169.116   2
   2  13  19 504.785 103.548   2
   2  13  20 6043.82 280.602   2
   2  13  21 271.500 84.0924   2
   2  13  22 1265.05 143.319   2
   2  13  23 321.678 94.9478   2
   2  13  24 1332.97 157.456   2
  -2  14  24 824.051 127.865   2
  -2  14  23 497.196 107.248   2
  -2  14  22 376.316 95.0152   2
  -2  14  21 224.525 81.8490   2
  -2  14  20-7.95451 67.6451   2
  -2  14  19-79.1100 78.1638   2
  -2  14  18 449.061 92.6476   2
  -2  14  17 30.8776 65.3545   2
  -2  14  16 1649.80 144.358   2
  -2  14  15 3667.20 201.330   2
  -2  14  14 1704.96 140.068   2
  -2  14  13 1239.44 121.287   2
  -2  14  12 3396.27 185.956   2
  -2  14  11 2466.52 152.607   2
  -2  14  10 627.464 86.1845   2
  -2  14   9 1645.95 124.111   2
  -2  14   8 3407.01 158.730   2
  -2 -14   8 2718.76 53.4708   2
  -2 -14   7 19.7702 12.5467   2
  -2  14   7-18.9122 43.7179   2
  -2 -14   6 2681.49 76.4021   2
  -2  14   6 2540.20 137.876   3
  -2 -14   6 2383.29 54.3602   3
   2  14  -6 2842.27 78.2895   2
  -2  14   6 2701.85 136.353   2
  -2 -14   5 433.815 36.6265   2
  -2  14   5 357.328 59.0639   2
   2  14  -5 402.145 36.2905   2
  -2  14   5 250.821 55.9084   3
  -2 -14   5 333.633 28.5364   3
  -2 -14   4 72.9255 23.6899   2
  -2  14   4-27.0053 38.7657   2
  -2  14   4 49.8588 42.6463   3
  -2 -14   4 71.7125 19.3259   3
   2  14  -4 53.0374 26.1509   2
   2  14  -3 54.2333 26.2621   2
  -2  14   3 7.88043 39.4063   2
  -2  14   3-28.6207 44.5362   3
  -2 -14   3 19.2015 22.5444   2
  -2  14   3 82.0418 55.4036   1
  -2 -14   3 23.1895 19.4337   3
  -2  14   2 3721.03 143.974   2
   2  14  -2 4064.47 125.932   2
  -2 -14   2 3904.14 113.661   3
  -2  14   2 3854.64 154.100   3
  -2 -14   2 4058.90 124.457   2
  -2  14   2 4077.36 174.808   1
  -2  14   1 1391.28 108.427   1
  -2 -14   1 1221.57 74.9226   2
  -2  14   1 1358.61 94.7089   3
   2  14  -1 1238.68 78.1370   2
  -2 -14   1 1184.63 69.7633   3
  -2  14   1 1350.23 83.7270   2
  -2  14   0 1644.47 113.655   1
  -2 -14   0 1701.23 89.2824   2
  -2  14   0 1765.24 90.5417   2
   2  14   0 1854.85 97.1539   2
   2  14   0 1541.57 105.812   1
  -2 -14   0 1822.39 89.6223   3
  -2  14   0 1719.24 100.184   3
  -2  14  -1 1068.62 68.8617   2
  -2 -14  -1 906.455 67.5401   3
  -2 -14  -1 959.046 71.7576   2
   2 -14   1 1029.79 71.8147   3
  -2  14  -1 1016.23 75.2508   3
   2  14   1 981.771 89.6127   1
  -2  14  -1 813.918 88.1484   1
   2  14   1 998.322 77.2923   2
  -2  14  -2 116.306 29.1570   2
   2  14   2 192.657 59.9917   1
  -2  14  -2 172.495 61.9010   1
  -2  14  -2 148.692 35.5644   3
   2 -14   2 133.705 35.0104   3
   2  14   2 163.485 50.4410   2
  -2  14  -3 32.3601 25.5205   2
   2  14   3 98.5820 46.6593   1
   2  14   3 25.5056 40.3081   2
   2 -14   3 29.7138 26.3708   3
  -2  14  -3 13.0261 33.0644   3
  -2  14  -3-65.8143 62.2230   1
   2  14   4 15574.2 309.885   2
  -2  14  -4 15875.6 200.812   2
   2 -14   4 16445.9 249.533   3
  -2  14  -4 15568.1 343.230   1
   2  14   4 16133.9 303.872   1
  -2  14  -4 15620.3 254.169   3
  -2  14  -5 832.296 43.8160   2
  -2  14  -5 914.506 47.4686   2
   2  14   5 904.835 89.2271   2
  -2  14  -5 1043.79 70.2642   3
  -2  14  -6 36551.6 240.158   2
  -2  14  -6 36627.9 371.217   3
   2  14   6 36717.1 509.346   2
  -2  14  -7 2390.02 48.0341   2
  -2  14  -7 2720.11 101.525   3
   2  14   7 2633.96 147.321   2
   2  14   8 500.545 78.4595   2
  -2  14  -8 352.581 42.8454   3
   2  14   9 619.639 89.5946   2
  -2  14  -9 515.459 45.8805   3
   2  14  10-19.2497 58.4316   2
  -2  14 -10 26.3002 26.1674   3
  -2  14 -11 990.803 60.5340   3
   2  14  11 846.315 100.265   2
   2  14  12-12.0816 62.3506   2
  -2  14 -12 46.4226 23.4633   3
  -2  14 -13 100.949 28.5645   3
   2  14  13 116.968 67.1363   2
  -2  14 -14 1161.74 65.4253   3
   2  14  14 1204.59 124.839   2
   2  14  15 913.513 118.185   2
   2  14  16 14611.2 411.382   2
   2  14  17 1445.88 140.598   2
   2  14  18 5265.85 258.126   2
   2  14  19 1492.31 153.193   2
   2  14  20 381.908 102.175   2
   2  14  21-66.5462 73.7769   2
   2  14  22 2528.82 199.297   2
   2  14  23-29.4162 71.3850   2
  -2  15  24 448.576 108.887   2
  -2  15  23 802.017 124.652   2
  -2  15  22 805.316 121.631   2
  -2  15  21 2401.36 191.110   2
  -2  15  20 32.7522 71.6121   2
  -2  15  19 284.613 85.2103   2
  -2  15  18-59.3492 66.5478   2
  -2  15  17 680.468 107.824   2
  -2  15  16 20.7259 60.8123   2
  -2  15  15 229.249 74.8545   2
  -2  15  14-61.4908 57.8082   2
  -2  15  13 299.271 76.6240   2
  -2  15  12 2936.53 173.569   2
  -2  15  11 12112.5 325.997   2
  -2  15  10 512.941 86.8339   2
  -2  15   9 6913.30 238.461   2
  -2  15   8 265.347 64.2659   2
  -2  15   7 536.494 75.7243   2
  -2 -15   7 556.206 33.4418   2
  -2 -15   6 553.893 37.1079   2
  -2  15   6 460.791 67.7010   2
  -2 -15   6 465.714 26.8607   3
   2  15  -6 599.091 39.7732   2
  -2 -15   5 403.007 39.6697   2
  -2  15   5 438.925 63.5501   2
   2  15  -5 554.357 42.3985   2
  -2 -15   5 415.287 32.5957   3
  -2  15   5 490.955 70.6827   3
  -2 -15   4 862.921 55.5738   2
   2  15  -4 856.693 56.0171   2
  -2  15   4 774.188 77.3298   2
  -2 -15   4 797.901 47.9429   3
  -2  15   4 857.576 82.3963   3
  -2 -15   3 12.3664 22.7778   2
   2  15  -3 33.3296 28.2444   2
  -2  15   3 62.1207 40.6208   2
  -2  15   3 19.5216 43.5959   3
  -2 -15   3 49.5389 22.4526   3
  -2  15   3 186.868 64.6717   1
  -2 -15   2 1833.90 87.0783   2
  -2  15   2 1700.61 102.238   2
   2  15  -2 2022.86 93.0572   2
  -2  15   2 1950.45 132.208   1
  -2  15   2 2027.03 115.319   3
  -2 -15   2 1881.15 83.8808   3
  -2 -15   1 121.502 29.8624   3
  -2  15   1 160.507 43.0092   2
   2  15  -1 116.806 50.9521   1
  -2  15   1 117.356 58.2849   1
  -2 -15   1 95.0642 29.9522   2
  -2  15   1 85.9709 40.2428   3
   2  15  -1 78.2718 33.2387   2
  -2  15   0 1635.06 119.410   1
  -2 -15   0 1495.78 81.9781   3
  -2  15   0 1464.93 87.4615   2
  -2 -15   0 1634.25 89.5886   2
   2  15   0 1482.18 107.004   1
   2  15   0 1592.19 92.5874   2
  -2  15   0 1490.51 97.0523   3
  -2 -15  -1 18565.9 290.395   3
  -2  15  -1 18367.0 270.690   2
  -2  15  -1 18972.6 381.666   1
   2  15   1 19046.5 316.815   2
   2  15   1 18697.0 349.253   1
  -2  15  -1 18640.5 311.016   3
   2  15   2 1859.61 119.517   1
   2 -15   2 1994.08 96.1957   3
  -2  15  -2 2006.43 133.396   1
  -2  15  -2 1993.58 104.781   3
   2  15   2 1987.03 111.861   2
  -2  15  -2 2047.93 89.5074   2
  -2  15  -3 13.8228 26.2801   2
  -2  15  -3 9.43270 52.5417   1
   2  15   3-8.29075 40.3803   2
   2 -15   3 20.6102 26.3787   3
   2  15   3 9.89452 47.3503   1
  -2  15  -3-3.18064 31.4187   3
   2  15   4 102.245 57.7346   1
  -2  15  -4 57.0736 24.6964   2
  -2  15  -4 9.80641 30.9222   3
  -2  15  -4-73.4464 63.8604   1
   2  15   4 6.68509 40.8115   2
   2 -15   4 13.2155 23.3209   3
  -2  15  -5 44.5521 18.3621   2
  -2  15  -5-7.42973 14.6411   2
   2  15   5 80.3593 49.5868   2
  -2  15  -5 14.7743 28.5151   3
  -2  15  -5-24.7180 60.2576   1
   2  15   6 1709.19 124.747   2
  -2  15  -6 1741.70 54.3280   2
  -2  15  -6 1690.90 52.7566   2
  -2  15  -6 1664.45 84.9774   3
   2  15   7 4229.26 185.739   2
  -2  15  -7 4112.45 127.551   3
   2  15   8 1524.86 120.021   2
  -2  15  -8 1395.40 73.4255   3
   2  15   9 6564.71 242.403   2
  -2  15  -9 6824.12 154.133   3
  -2  15 -10 64.6463 26.8796   3
   2  15  10 20.3526 53.6021   2
  -2  15 -11 619.052 50.9017   3
   2  15  11 564.079 84.4878   2
   2  15  12 438.804 85.2260   2
  -2  15 -12 412.112 42.0196   3
   2  15  13 2131.48 155.333   2
   2  15  14 7112.47 279.347   2
   2  15  15 4184.73 220.183   2
   2  15  16 249.215 84.7360   2
   2  15  17-52.0553 68.0921   2
   2  15  18 291.622 88.6524   2
   2  15  19 802.254 118.541   2
   2  15  20 2160.16 180.189   2
   2  15  21 2286.77 187.592   2
   2  15  22 320.249 94.8247   2
  -2  16  23 104.998 78.6560   2
  -2  16  22 274.173 91.9388   2
  -2  16  21 570.342 109.996   2
  -2  16  20-33.9084 73.1723   2
  -2  16  19 71.8409 69.3373   2
  -2  16  18 747.511 116.167   2
  -2  16  17 888.854 121.633   2
  -2  16  16-47.3756 62.1391   2
  -2  16  15 2244.96 164.085   2
  -2  16  14 1157.50 120.472   2
  -2  16  13 4818.21 226.020   2
  -2  16  12 310.217 76.4884   2
  -2  16  11 1452.19 125.142   2
  -2  16  10 42.3509 55.0343   2
  -2  16   9-0.21448 51.9760   2
  -2  16   8 284.712 64.7114   2
  -2  16   7 4572.10 192.593   2
  -2 -16   6 290.672 23.6840   3
  -2  16   6 290.258 60.8833   2
   2  16  -6 304.853 30.7381   2
  -2 -16   6 323.601 30.6080   2
  -2 -16   5 156.821 26.5001   2
  -2  16   5 247.263 56.9094   2
   2  16  -5 109.451 24.6760   2
  -2 -16   5 133.624 21.8863   3
  -2 -16   4 1445.76 69.6750   2
   2  16  -4 1471.36 72.6884   2
  -2  16   4 1330.51 97.1031   2
  -2  16   4 1401.63 106.852   3
  -2 -16   4 1400.22 63.7509   3
   2  16  -3 308.149 42.0083   2
  -2  16   3 364.742 57.5509   2
  -2 -16   3 298.426 36.0562   3
  -2  16   3 450.824 81.9944   1
  -2  16   3 318.601 64.4521   3
  -2 -16   3 241.941 36.4723   2
  -2  16   2 4366.07 159.346   2
  -2  16   2 4210.82 165.829   3
  -2 -16   2 4269.16 124.445   3
  -2  16   2 4430.71 194.111   1
  -2 -16   2 4140.55 127.718   2
   2  16  -2 4462.10 139.836   2
  -2  16   1 3834.80 142.640   2
  -2 -16   1 3661.12 126.172   2
   2  16  -1 4054.42 140.110   2
   2  16  -1 3609.36 167.363   1
  -2 -16   1 3704.59 122.150   3
  -2  16   1 3540.79 149.572   3
  -2  16   1 3858.70 184.543   1
  -2  16   0 2125.29 141.535   1
  -2  16   0 2186.62 105.255   2
   2  16   0 2123.23 132.989   1
  -2 -16   0 2126.51 98.3041   3
  -2  16   0 2062.78 113.122   3
   2  16   0 2367.90 114.108   2
  -2  16  -1 436.286 81.4050   1
  -2  16  -1 418.623 52.0919   2
  -2  16  -1 370.151 58.8428   3
   2  16   1 436.402 62.3135   2
   2  16   1 385.954 73.3732   1
   2  16   2 1156.45 102.231   1
  -2  16  -2 986.965 66.8398   2
  -2  16  -2 1065.51 103.118   1
   2  16   2 1045.70 86.1546   2
  -2  16  -2 1066.57 81.2745   3
  -2  16  -3 8459.64 167.172   2
   2 -16   3 8475.81 188.551   3
   2  16   3 8465.82 241.096   1
   2  16   3 8395.13 231.787   2
  -2  16  -3 8004.29 202.006   3
  -2  16  -3 8432.11 268.214   1
  -2  16  -4 811.599 95.7461   1
  -2  16  -4 931.957 55.4597   2
   2  16   4 881.747 88.6751   2
   2 -16   4 963.578 66.1798   3
   2  16   4 1065.64 98.7449   1
  -2  16  -4 951.440 71.2427   3
  -2  16  -5 12664.5 163.473   2
  -2  16  -5 13557.1 174.545   2
   2  16   5 13252.2 309.027   2
  -2  16  -5 13961.1 351.099   1
  -2  16  -5 13642.3 245.063   3
  -2  16  -6 12706.6 231.064   3
  -2  16  -6 12467.1 142.647   2
   2  16   6 13153.5 314.275   2
  -2  16  -7 213.679 39.0254   3
   2  16   7 141.514 57.3419   2
   2  16   8 214.724 64.9602   2
  -2  16  -8 250.655 38.4778   3
  -2  16  -9 475.228 45.7131   3
   2  16   9 433.199 80.3779   2
  -2  16 -10-2.15794 24.3568   3
   2  16  10 134.491 60.6315   2
  -2  16 -11 1021.46 60.4544   3
   2  16  11 1041.18 116.496   2
   2  16  12 3212.40 189.291   2
   2  16  13 3748.26 206.337   2
   2  16  14-26.9075 60.0038   2
   2  16  15 785.567 106.824   2
   2  16  16 235.008 80.8065   2
   2  16  17 6206.21 281.667   2
   2  16  18-49.9523 73.6980   2
   2  16  19 1679.13 161.756   2
   2  16  20-65.9048 74.0320   2
   2  16  21 1470.62 163.512   2
  -2  17  22 4431.78 263.763   2
  -2  17  21 186.319 91.4770   2
  -2  17  20 2549.91 192.798   2
  -2  17  19 99.6692 72.1394   2
  -2  17  18 1100.78 135.970   2
  -2  17  17 867.730 116.284   2
  -2  17  16 328.029 78.9325   2
  -2  17  15 2734.34 182.128   2
  -2  17  14 27.9351 63.8881   2
  -2  17  13 12.4917 57.1284   2
  -2  17  12 2224.51 156.337   2
  -2  17  11 701.516 95.8029   2
  -2  17  10 5005.69 217.621   2
  -2  17   9 2810.65 162.191   2
  -2  17   8-27.5782 51.6372   2
  -2  17   7 48.4519 47.9527   2
  -2  17   6 1838.88 124.887   2
   2  17  -6 1879.71 69.6706   2
   2  17  -5 78.2538 25.9633   2
  -2  17   5 44.8208 43.4524   2
   2  17  -4 1675.88 79.6212   2
  -2  17   4 1691.33 112.314   2
  -2 -17   4 1527.92 67.4126   3
  -2 -17   4 1583.92 73.0592   2
   2  17  -3 1093.49 72.3946   2
  -2  17   3 1017.12 93.1520   3
  -2 -17   3 974.991 57.8975   3
  -2  17   3 1090.32 91.7852   2
  -2 -17   3 1044.24 63.6737   2
   2  17  -2 415.243 52.4154   2
  -2  17   2 362.036 80.8064   1
  -2  17   2 341.536 56.7877   2
   2  17  -2 256.670 61.0244   1
  -2 -17   2 457.236 46.8737   3
  -2 -17   2 377.538 45.5060   2
  -2  17   2 351.512 61.2618   3
  -2  17   1 3312.22 136.842   2
   2  17  -1 3133.11 162.031   1
  -2  17   1 3220.08 147.303   3
  -2 -17   1 3157.90 112.712   3
  -2  17   1 3031.84 171.208   1
   2  17  -1 3291.83 128.798   2
  -2  17   0 8062.81 266.154   1
  -2  17   0 7823.02 197.869   2
  -2  17   0 7653.11 216.412   3
   2  17   0 7528.74 246.668   1
   2  17   0 7761.94 205.678   2
   2  17   1 693.324 82.4813   1
  -2  17  -1 660.472 69.1764   3
   2  17   1 674.315 70.8118   2
  -2  17  -1 608.483 86.0841   1
  -2  17  -1 622.768 59.9828   2
  -2  17  -2 3378.07 117.689   2
  -2  17  -2 3040.19 131.425   3
  -2  17  -2 3265.29 176.543   1
   2  17   2 3335.96 149.021   2
   2  17   2 3374.63 163.238   1
  -2  17  -3 4634.28 129.253   2
  -2  17  -3 4490.51 153.836   3
   2  17   3 4765.27 191.181   1
   2  17   3 4571.72 177.891   2
  -2  17  -3 4929.96 215.000   1
   2  17   4 32.0486 52.8872   2
   2  17   4 46.1003 57.8259   1
  -2  17  -4-71.0749 63.7303   1
  -2  17  -4-7.02633 21.5698   2
  -2  17  -4-16.7559 31.0681   3
  -2  17  -5 429.116 34.3517   2
  -2  17  -5 487.209 54.3919   3
  -2  17  -5 452.703 83.3951   1
   2  17   5 435.826 70.7360   2
  -2  17  -6 1443.96 121.954   1
  -2  17  -6 1434.97 48.7879   2
  -2  17  -6 1546.09 86.1065   3
   2  17   6 1588.20 119.669   2
   2  17   7 2086.05 136.977   2
  -2  17  -7 2052.27 96.6607   3
  -2  17  -8 45.4302 26.3596   3
   2  17   8 89.4869 55.0051   2
   2  17   9 111.268 60.3859   2
  -2  17  -9 123.764 32.1667   3
  -2  17 -10 81.0055 26.4254   3
   2  17  10 174.196 61.9803   2
   2  17  11 90.7224 59.2230   2
   2  17  12 852.301 108.995   2
   2  17  13 981.530 118.348   2
   2  17  14 649.874 105.451   2
   2  17  15 3648.36 213.752   2
   2  17  16 29.7466 70.0527   2
   2  17  17 135.655 77.4453   2
   2  17  18 1841.04 166.303   2
   2  17  19 3160.53 218.642   2
   2  17  20 3167.06 224.618   2
  -2  18  21 316.926 99.0189   2
  -2  18  20 107.862 78.6611   2
  -2  18  19-27.2331 70.1316   2
  -2  18  18 2205.25 178.651   2
  -2  18  17-25.1812 61.9817   2
  -2  18  16 947.217 118.302   2
  -2  18  15 787.544 113.010   2
  -2  18  14 3136.44 193.248   2
  -2  18  13 21.0473 61.9884   2
  -2  18  12 2200.64 157.899   2
  -2  18  11 331.597 81.1715   2
  -2  18  10 1918.67 138.790   2
  -2  18   9-49.3671 56.9107   2
  -2  18   8 5952.63 229.215   2
  -2  18   7 100.188 56.2956   2
  -2  18   6 883.803 93.1551   2
   2  18  -6 1099.91 55.4931   2
  -2  18   5-3.66598 45.6316   2
   2  18  -5 66.1443 26.7314   2
   2  18  -4 7.34490 25.6855   2
  -2  18   4 45.7067 43.4531   2
   2  18  -3 71.3278 32.3772   2
  -2  18   3 103.166 43.6144   2
   2  18  -3-8.82046 61.9321   1
   2  18  -2 2878.19 161.366   1
   2  18  -2 2979.48 120.134   2
  -2  18   2 3237.76 178.053   1
  -2  18   2 2922.80 137.030   2
  -2  18   1 881.003 77.5156   2
  -2  18   1 1061.70 114.372   1
   2  18  -1 1009.09 79.6985   2
   2  18  -1 920.560 101.653   1
  -2  18   1 997.640 89.5719   3
  -2  18   0 1271.22 86.4612   2
  -2  18   0 1230.82 93.8803   3
   2  18   0 1078.82 106.121   1
   2  18   0 1208.60 89.7000   2
  -2  18   0 1202.47 122.014   1
  -2  18  -1 112.504 65.6387   1
  -2  18  -1 150.824 42.4973   3
  -2  18  -1 131.617 41.9685   2
   2  18   1 136.278 57.5491   1
   2  18   1 76.4971 39.3163   2
   2  18   2 1329.78 114.631   1
  -2  18  -2 1272.64 118.939   1
  -2  18  -2 1306.09 77.4430   2
   2  18   2 1255.40 99.6126   2
  -2  18  -2 1279.49 91.3614   3
  -2  18  -3 2603.63 99.3682   2
  -2  18  -3 2317.33 159.613   1
   2  18   3 2526.24 150.730   1
   2  18   3 2558.11 138.072   2
  -2  18  -3 2386.50 119.689   3
   2  18   4 13151.0 320.220   1
  -2  18  -4 13434.3 360.225   1
   2  18   4 13236.8 311.850   2
  -2  18  -4 13244.0 260.603   3
  -2  18  -4 13517.2 203.948   2
  -2  18  -5 273.269 47.5899   3
  -2  18  -5 232.312 28.1688   2
   2  18   5 242.894 59.9054   2
  -2  18  -5 218.383 74.9041   1
  -2  18  -6 4513.61 215.201   1
  -2  18  -6 4733.79 148.864   3
   2  18   6 4509.69 197.061   2
  -2  18  -7 709.623 98.6199   1
   2  18   7 837.146 95.8680   2
  -2  18  -7 881.399 65.7863   3
   2  18   8 1450.46 124.274   2
  -2  18  -8 1607.59 83.6476   3
   2  18   9 454.745 79.5583   2
   2  18  10 2809.11 174.092   2
   2  18  11-80.7605 65.5677   2
   2  18  12 667.813 97.5287   2
   2  18  13 10.0574 56.1212   2
   2  18  14 720.809 110.006   2
   2  18  15 80.9877 58.9714   2
   2  18  16 2704.54 195.603   2
   2  18  17 26.0832 66.7138   2
   2  18  18 1845.76 173.049   2
   2  18  19 82.6609 74.2964   2
   2  18  20 195.206 86.8826   2
  -2  19  20 1641.74 169.030   2
  -2  19  19 239.503 86.3065   2
  -2  19  18 444.525 94.3583   2
  -2  19  17 439.481 92.7927   2
  -2  19  16 1373.78 143.276   2
  -2  19  15 1902.24 160.296   2
  -2  19  14 51.0514 60.6145   2
  -2  19  13 1231.83 129.810   2
  -2  19  12 302.647 80.1058   2
  -2  19  11 1082.12 115.746   2
  -2  19  10 10005.0 314.158   2
  -2  19   9 3115.39 176.470   2
  -2  19   8 2591.05 158.232   2
  -2  19   7 9.26039 47.0174   2
  -2  19   6 3096.51 161.040   2
  -2  19   5 1066.58 98.4175   2
   2  19  -5 975.423 59.3971   2
   2  19  -4 5257.05 143.600   2
  -2  19   4 5022.85 190.445   2
  -2  19   3 1181.24 97.9848   2
   2  19  -3 1233.48 78.1042   2
   2  19  -3 1074.73 107.439   1
  -2  19   2 1007.37 85.3622   2
   2  19  -2 947.224 104.899   1
  -2  19   2 1073.54 116.237   1
   2  19  -2 1018.18 75.5695   2
   2  19  -1 1082.57 111.578   1
  -2  19   1 1221.19 89.3166   2
   2  19  -1 1234.38 87.6187   2
  -2  19   1 1283.32 122.513   1
  -2  19   0 2174.87 111.129   2
   2  19   0 2189.23 147.023   1
   2  19   0 2293.23 120.896   2
  -2  19   0 2046.47 150.278   1
   2  19   1 4247.94 195.053   1
  -2  19  -1 4084.03 142.670   2
  -2  19  -1 4278.90 168.118   3
   2  19   1 4180.91 163.716   2
  -2  19  -1 4018.00 206.649   1
  -2  19  -2 3009.84 183.250   1
  -2  19  -2 2636.25 130.326   3
  -2  19  -2 2851.45 114.448   2
   2  19   2 2898.19 166.535   1
   2  19   2 2550.28 135.384   2
   2  19   3 481.891 83.7238   1
  -2  19  -3 461.037 89.4767   1
  -2  19  -3 512.511 62.6463   3
  -2  19  -3 581.545 51.4902   2
   2  19   3 516.200 71.6547   2
  -2  19  -4 180.557 49.2294   3
   2  19   4 202.120 75.6567   1
  -2  19  -4 142.398 71.1259   1
   2  19   4 184.536 59.1553   2
  -2  19  -5 2559.56 168.781   1
  -2  19  -5 2484.03 117.866   3
   2  19   5 2578.34 149.235   2
  -2  19  -6 2891.39 179.958   1
  -2  19  -6 3007.99 122.273   3
   2  19   6 2758.56 160.460   2
   2  19   7 2168.35 145.630   2
  -2  19  -7 2118.67 159.266   1
  -2  19  -7 2208.14 102.529   3
  -2  19  -8 3089.63 196.165   1
   2  19   8 3048.05 174.293   2
   2  19   9 14.6769 52.7127   2
   2  19  10-69.1196 64.1609   2
   2  19  11 10.1452 55.0424   2
   2  19  12 1367.11 135.517   2
   2  19  13 2706.42 183.738   2
   2  19  14 1785.01 156.182   2
   2  19  15 276.809 87.0618   2
   2  19  16 116.755 71.2065   2
   2  19  17 309.746 87.8776   2
   2  19  18 510.524 111.410   2
   2  19  19 275.620 87.5366   2
  -2  20  19 1249.30 147.526   2
  -2  20  18 109.638 71.2677   2
  -2  20  17 1499.32 156.891   2
  -2  20  16-29.2712 65.0136   2
  -2  20  15 1062.63 128.222   2
  -2  20  14 998.561 126.301   2
  -2  20  13 8477.29 312.323   2
  -2  20  12 3128.27 192.905   2
  -2  20  11 810.883 103.861   2
  -2  20  10 1534.92 130.300   2
  -2  20   9 1632.45 132.760   2
  -2  20   8 588.928 88.2291   2
  -2  20   7 2028.12 143.681   2
  -2  20   6 138.492 53.5405   2
  -2  20   5 89.3750 53.9375   2
   2  20  -4 298.248 79.7547   1
  -2  20   4 321.946 61.6067   2
   2  20  -3 2649.67 114.068   2
  -2  20   3 2555.12 135.702   2
   2  20  -3 2478.63 161.852   1
  -2  20   2 2576.26 134.682   2
  -2  20   2 2602.20 174.853   1
   2  20  -2 2684.68 170.350   1
   2  20  -2 2677.31 121.253   2
   2  20  -1 6519.56 193.875   2
  -2  20   1 6471.39 200.237   2
   2  20  -1 6353.18 246.909   1
  -2  20   1 6313.25 259.018   1
   2  20   0 110.308 63.6027   1
  -2  20   0 131.352 72.6684   1
   2  20   0 225.613 52.3846   2
  -2  20   0 160.024 46.0982   2
  -2  20  -1 289.320 82.2563   1
   2  20   1 315.867 79.4878   1
  -2  20  -1 344.647 53.2666   2
   2  20   1 348.354 63.3103   2
   2  20   2 6.85751 39.3979   2
   2  20   2 24.1090 64.9900   1
  -2  20  -2 22.2556 29.3791   2
  -2  20  -2 0.89668 57.7614   1
  -2  20  -3 7913.08 293.484   1
   2  20   3 7943.82 268.806   1
   2  20   3 7994.65 243.785   2
   2  20   4 74.1392 48.7927   2
  -2  20  -4 43.6445 61.4663   1
   2  20   5 11239.7 306.956   2
  -2  20  -5 11851.4 358.995   1
  -2  20  -6 27.3289 68.4103   1
   2  20   6 71.0139 53.7319   2
  -2  20  -7 1998.88 160.487   1
   2  20   7 1984.36 140.085   2
   2  20   8 427.359 79.9904   2
  -2  20  -8 512.622 94.0645   1
   2  20   9 5028.76 232.531   2
  -2  20  -9 5298.76 253.221   1
   2  20  10 768.486 106.517   2
   2  20  11 317.707 84.1118   2
   2  20  12 320.618 88.3686   2
   2  20  13-124.670 67.4723   2
   2  20  14 471.798 97.7462   2
   2  20  15 4136.73 240.677   2
   2  20  16 94.7747 64.7749   2
   2  20  17 2101.13 182.067   2
   2  20  18 16.8569 69.8965   2
  -2  21  18 265.887 88.2552   2
  -2  21  17 703.541 109.525   2
  -2  21  16 73.0282 77.4249   2
  -2  21  15 2061.84 173.719   2
  -2  21  14 467.808 97.1033   2
  -2  21  13 301.275 81.3684   2
  -2  21  12 13.1486 56.8532   2
  -2  21  11 1176.72 124.224   2
  -2  21  10 2105.88 158.208   2
  -2  21   9 5512.01 238.674   2
  -2  21   8 5.62964 49.2452   2
  -2  21   7-40.6690 46.8052   2
  -2  21   6 105.898 50.7581   2
   2  21  -5 8748.80 304.968   1
  -2  21   5 8604.39 266.056   2
   2  21  -4 461.874 89.4178   1
  -2  21   4 538.463 72.5270   2
  -2  21   3 1206.87 104.523   2
   2  21  -3 1290.00 126.566   1
   2  21  -2 293.784 52.5410   2
  -2  21   2 344.334 84.8201   1
  -2  21   2 415.185 69.2576   2
   2  21  -2 264.327 76.7866   1
   2  21  -1 261.715 49.9594   2
   2  21  -1 139.283 73.0346   1
  -2  21   1 219.038 55.1014   2
  -2  21   1 298.468 82.6763   1
   2  21   0 1263.36 119.105   1
   2  21   0 1179.34 91.8551   2
  -2  21   0 1055.67 82.4291   2
  -2  21   0 1195.57 131.464   1
   2  21   1 3910.57 168.442   2
  -2  21  -1 3729.91 210.351   1
   2  21   1 3977.85 204.486   1
   2  21   2 1281.56 126.803   1
  -2  21  -2 1107.19 124.765   1
   2  21   2 959.211 89.3031   2
   2  21   3 5375.05 208.081   2
   2  21   3 5324.57 227.151   1
  -2  21  -3 5408.86 252.770   1
  -2  21  -4 1454.70 138.958   1
   2  21   4 1391.89 116.966   2
   2  21   5 1611.92 128.997   2
  -2  21  -5 1553.18 150.621   1
  -2  21  -6-9.52429 62.9145   1
   2  21   6 162.929 63.7105   2
  -2  21  -7 5328.29 254.364   1
   2  21   7 4790.55 217.277   2
  -2  21  -8 3439.47 208.786   1
   2  21   8 2891.88 179.697   2
  -2  21  -9 177.345 78.7460   1
   2  21   9-27.9076 53.0671   2
   2  21  10 81.4404 64.6045   2
  -2  21 -10-99.3966 70.6374   1
   2  21  11 93.3159 66.6532   2
   2  21  12 42.9927 63.1356   2
   2  21  13 457.602 88.7872   2
   2  21  14 204.045 80.7278   2
   2  21  15 605.153 100.789   2
   2  21  16 415.681 102.914   2
   2  21  17 1042.91 141.888   2
  -2  22  17 599.216 109.219   2
  -2  22  16-18.0678 61.1900   2
  -2  22  15 349.016 89.9401   2
  -2  22  14 863.749 120.739   2
  -2  22  13 1195.08 133.764   2
  -2  22  12 148.276 67.2139   2
  -2  22  11 53.3185 53.5051   2
  -2  22  10 328.964 79.9738   2
  -2  22   9 563.418 91.0399   2
  -2  22   8 2388.12 161.665   2
  -2  22   7 3494.50 188.448   2
   2  22  -6 1563.44 144.901   1
  -2  22   6 1600.72 127.513   2
  -2  22   5 172.130 59.3630   2
   2  22  -5 315.891 79.9055   1
  -2  22   4-41.2555 43.3095   2
   2  22  -4-3.62106 57.5736   1
  -2  22   3 1789.82 121.340   2
   2  22  -3 1866.25 151.616   1
   2  22  -2 1305.71 126.843   1
  -2  22   2 1398.89 105.090   2
   2  22  -1 290.405 80.5553   1
  -2  22   1 400.284 61.1273   2
  -2  22   1 335.633 87.0278   1
  -2  22   0 792.365 111.778   1
   2  22   0 772.008 81.4304   2
   2  22   0 887.204 108.174   1
   2  22   1 1264.01 124.597   1
  -2  22  -1 1377.80 140.823   1
   2  22   1 1257.39 100.898   2
   2  22   2 1017.54 118.139   1
   2  22   2 1096.35 99.3899   2
  -2  22  -2 1070.04 124.221   1
   2  22   3 3101.08 178.725   1
   2  22   3 3241.84 168.645   2
  -2  22  -3 3398.21 209.669   1
  -2  22  -4 5027.86 253.039   1
   2  22   4 5431.57 219.827   2
  -2  22  -5 268.354 84.3169   1
   2  22   5 226.256 64.4858   2
  -2  22  -6 677.780 104.330   1
   2  22   6 590.032 89.8915   2
  -2  22  -7 101.063 65.2352   1
   2  22   7 186.094 66.6863   2
  -2  22  -8 106.008 68.4014   1
   2  22   8 170.309 67.8175   2
   2  22   9 487.178 93.2495   2
  -2  22  -9 263.897 84.5781   1
   2  22  10 1271.77 132.298   2
  -2  22 -10 1472.53 149.607   1
   2  22  11 334.261 84.7970   2
  -2  22 -11 335.045 87.5446   1
  -2  22 -12 2251.41 185.614   1
   2  22  12 1887.30 165.950   2
   2  22  13 36.6963 60.6857   2
   2  22  14 404.527 92.4657   2
   2  22  15 242.317 85.9508   2
   2  22  16 1724.22 172.144   2
  -2  23  16 803.501 118.608   2
  -2  23  15 254.184 76.6037   2
  -2  23  14 9.47138 59.9056   2
  -2  23  13-65.3396 56.0020   2
  -2  23  12 303.345 80.3913   2
  -2  23  11-87.3498 61.1317   2
  -2  23  10 460.998 89.0766   2
  -2  23   9 630.143 95.4694   2
  -2  23   8 536.718 87.9899   2
  -2  23   7 650.446 93.2006   2
   2  23  -7 800.417 113.517   1
  -2  23   6 760.258 98.1631   2
   2  23  -6 825.430 119.150   1
  -2  23   5 191.953 54.8431   2
   2  23  -5 263.648 85.3082   1
  -2  23   4 886.806 92.6065   2
   2  23  -4 939.807 116.060   1
  -2  23   3 16.7885 43.8578   2
   2  23  -3 63.9092 63.7937   1
   2  23  -2 632.779 100.445   1
   2  23  -1 244.160 75.9049   1
  -2  23   1 218.671 81.5380   1
   2  23   0 388.539 93.2080   1
  -2  23   0 374.361 82.5499   1
  -2  23  -1 278.987 93.5164   1
   2  23   1 285.046 80.2139   1
   2  23   2 5895.77 215.285   2
   2  23   2 5718.69 252.284   1
  -2  23  -2 6054.76 274.111   1
   2  23   3 975.941 113.149   1
  -2  23  -3 959.761 124.483   1
   2  23   3 1130.70 105.575   2
   2  23   4 939.508 99.6531   2
  -2  23  -4 1070.36 129.077   1
  -2  23  -5 310.807 85.5624   1
   2  23   5 324.758 72.4491   2
   2  23   6 1545.49 131.522   2
  -2  23  -6 1356.34 141.975   1
  -2  23  -7 84.3700 74.0973   1
   2  23   7 99.5813 66.9298   2
  -2  23  -8 3967.14 234.474   1
   2  23   8 3399.74 197.936   2
  -2  23  -9 392.531 99.3629   1
   2  23   9 276.831 74.5814   2
  -2  23 -10 656.507 111.428   1
   2  23  10 880.391 116.794   2
   2  23  11 1269.23 136.579   2
  -2  23 -11 1238.17 141.519   1
   2  23  12 1423.83 144.839   2
  -2  23 -12 1683.54 163.975   1
   2  23  13 238.422 74.8813   2
   2  23  14 839.592 128.376   2
   2  23  15 658.292 108.726   2
  -2  24  15 261.862 84.6735   2
  -2  24  14 63.2635 67.5970   2
  -2  24  13 450.978 95.3900   2
  -2  24  12 200.410 78.5760   2
  -2  24  11 327.372 78.5628   2
  -2  24  10 32.7551 52.6347   2
  -2  24   9 157.551 65.2326   2
   2  24  -8 877.309 124.133   1
  -2  24   8 887.957 104.399   2
   2  24  -7 407.547 98.6219   1
  -2  24   7 294.336 67.2189   2
  -2  24   6 65.1995 52.0344   2
   2  24  -6 30.5898 68.1799   1
  -2  24   5 629.503 83.9506   2
   2  24  -5 567.580 107.686   1
   2  24  -4 35.7951 66.3684   1
   2  24  -3 531.153 94.2283   1
   2  24  -2 252.097 75.0337   1
   2  24  -1 497.285 93.0526   1
   2  24   0 515.378 99.1430   1
  -2  24   0 537.079 96.8541   1
  -2  24  -1 194.101 84.9982   1
   2  24   1 59.9646 59.5377   1
  -2  24  -2 378.914 93.9779   1
   2  24   2 407.078 91.9491   1
  -2  24  -3 526.577 102.510   1
   2  24   4 596.713 84.7595   2
  -2  24  -4 744.861 112.126   1
  -2  24  -5 5223.79 265.488   1
   2  24   5 5117.86 223.459   2
  -2  24  -6 1140.99 140.132   1
   2  24   6 1074.40 110.251   2
  -2  24  -7 404.384 91.7514   1
   2  24   7 261.567 68.9101   2
  -2  24  -8-67.6071 74.3633   1
   2  24   8 113.535 63.6681   2
  -2  24  -9 233.440 79.5954   1
   2  24   9 193.068 65.8225   2
   2  24  10 1651.36 151.264   2
   2  24  11 787.543 114.097   2
   2  24  12 121.104 70.5858   2
   2  24  13 53.4067 65.6941   2
  -2  25  14 139.749 69.8084   2
  -2  25  13 240.833 77.2003   2
  -2  25  12 635.251 100.908   2
  -2  25  11 3380.52 203.716   2
  -2  25  10 140.586 64.8290   2
  -2  25   9 441.277 81.2156   2
   2  25  -9 507.716 107.331   1
   2  25  -8 555.434 110.655   1
  -2  25   8 522.180 87.4838   2
   2  25  -7 50.2963 70.1248   1
   2  25  -6 33.3139 67.3910   1
   2  25  -5 350.115 96.0298   1
   2  25  -4 131.037 70.9882   1
   2  25  -3 828.054 121.140   1
   2  25  -2 396.845 94.4996   1
   2  25  -1 33.7689 64.7091   1
   2  25   0 208.318 77.6727   1
  -2  25   0-8.04349 61.7583   1
  -2  25  -1 1313.06 149.494   1
   2  25   1 1060.57 123.659   1
  -2  25  -2 399.146 93.2147   1
   2  25   2 361.171 92.2459   1
  -2  25  -3 3697.58 230.436   1
  -2  25  -4 117.244 76.0524   1
  -2  25  -5 241.745 79.5730   1
  -2  25  -6-42.6693 65.6659   1
   2  25   6 36.1293 50.8451   2
   2  25   7 2618.00 172.364   2
   2  25   8 104.626 60.1491   2
   2  25   9 1258.35 131.097   2
   2  25  10-15.5492 57.0973   2
   2  25  11 109.696 69.1973   2
   2  25  12 171.453 75.2656   2
  -2  26  12 1242.48 129.991   2
  -2  26  11 288.620 73.1330   2
  -2  26  10 370.132 80.2305   2
   2  26  -6 408.401 99.7499   1
   2  26  -5 701.730 120.259   1
   2  26  -4 73.0166 71.9989   1
   2  26  -3 349.862 88.0664   1
   2  26  -2 363.196 92.7956   1
   2  26  -1 1524.90 146.094   1
   2  26   0 987.540 126.604   1
   2  26   1 344.694 93.4188   1
   2  26   9 1654.13 142.145   2
   2  26  10-10.0990 57.2058   2
   2  26  11 603.856 93.6286   2
   2  27  -2 982.332 138.106   1
   2  27  -1 1123.91 141.740   1
   2  27   0 2546.00 191.830   1
   2  27   1 519.882 107.724   1
  -3   0  30 1585.74 140.643   2
  -3   0  29 50.7855 58.8967   2
  -3   0  28 161.901 70.1774   2
  -3   0  27-86.4822 58.4435   2
  -3   0  26 1969.71 148.954   2
  -3   0  25 24.8602 51.1117   2
  -3   0  24 86.6873 56.1086   2
  -3   0  23 27.5682 53.9039   2
  -3   0  22 107.517 50.5737   2
  -3   0  21 103.823 53.0397   2
  -3   0  20 25145.1 441.192   2
  -3   0  19 77.5268 58.2303   2
  -3   0  18 23643.5 401.901   2
  -3   0  17-24.5633 42.4612   2
  -3   0  16 202.569 57.2001   2
  -3   0  15 28.7019 40.6019   2
   3   0 -14 24624.7 335.599   3
  -3   0  14 24821.8 370.960   2
   3   0 -13-3.32062 27.0508   3
  -3   0  13-14.8747 35.8167   3
   3   0 -12 65.6207 31.7860   3
  -3   0  12 65.6137 40.6092   3
  -3   0  11 11.5975 34.8801   3
   3   0 -11 5.21904 27.2282   3
  -3   0  10 11532.0 208.723   3
   3   0 -10 11610.3 202.582   3
   3   0  -9-5.39529 27.2525   3
  -3   0   9 16.9011 31.5650   3
   3   0  -8 71609.1 467.855   3
  -3   0   8 72221.5 480.214   3
   3   0  -7 88.6615 29.2418   3
  -3   0   7-33.1644 33.4930   3
   3   0  -6 120245. 571.420   3
  -3   0   6 120646. 586.957   3
   3   0  -5-22.3504 26.2698   3
  -3   0   5-9.66778 33.7901   3
   3   0  -4 5.74644 26.0254   3
  -3   0   4 36.5612 32.5864   3
   3   0  -3-4.08945 25.9484   3
  -3   0   3 3.67478 33.4506   3
  -3   0   2 26656.2 264.944   3
  -3   0   2 27582.7 270.657   2
  -3   0   1 14.5117 29.8948   2
   3   0  -1 1.19907 35.7859   2
  -3   0   0 170.485 31.6371   2
   3   0   0 158.842 38.6468   2
   3   0   1 13.8803 16.0323   1
  -3   0  -1-14.1272 28.6046   2
   3   0   1 28.6137 38.6127   2
  -3   0  -2 7655.70 147.913   2
   3   0   2 7187.77 149.475   2
   3   0   3-0.51058 34.5516   2
  -3   0  -3 19.0792 12.8603   1
  -3   0  -3-11.8353 28.1096   2
   3   0   4 19144.3 255.581   2
  -3   0  -4 19986.9 249.744   2
   3   0   5 9.14056 35.0203   2
  -3   0  -5-8.07874 29.6525   2
   3   0   6 8860.27 185.252   2
  -3   0  -6 8751.65 177.444   2
   3   0   7 49.4797 41.2077   2
  -3   0  -7 35.7355 33.2310   2
  -3   0  -8 21946.9 300.972   2
   3   0   8 21772.1 306.467   2
  -3   0  -9-38.0446 35.3621   2
   3   0   9-54.3497 45.5924   2
  -3   0 -10 6657.09 176.758   2
   3   0  10 6197.49 174.759   2
   3   0  11-55.5963 44.5309   2
   3   0  12 376.406 60.0984   2
   3   0  13-30.0884 46.6140   2
   3   0  14 326.981 61.4880   2
   3   0  15 24.3697 44.1622   2
   3   0  16 4070.31 170.867   2
   3   0  17-96.3531 54.0332   2
   3   0  18 398.138 69.5482   2
   3   0  19-25.1958 44.5958   2
   3   0  20 3667.71 181.699   2
   3   0  21 63.7867 56.5654   2
   3   0  22 5756.52 231.962   2
   3   0  23-32.8652 48.8142   2
   3   0  24-189.226 63.7723   2
   3   0  25-5.04159 52.8238   2
   3   0  26 223.235 70.9365   2
   3   0  27-159.252 67.5969   2
   3   0  28 1126.15 121.649   2
  -3   1  31-15.7603 62.3403   2
  -3   1  30 261.849 83.9642   2
  -3   1  29 42.4665 58.4554   2
  -3  -1  29-9.76033 52.7003   2
  -3   1  28 38.8232 57.2725   2
  -3  -1  28-25.3954 49.6487   2
  -3  -1  27 18.3348 48.1592   2
  -3   1  27-74.7404 58.7657   2
  -3  -1  26 73.2207 53.6986   2
  -3   1  26 264.494 72.6589   2
  -3   1  25 400.703 85.8947   2
  -3  -1  25 475.373 80.5780   2
  -3   1  24 5600.47 234.377   2
  -3  -1  24 6045.01 231.334   2
  -3   1  23 5537.00 227.365   2
  -3  -1  23 6109.68 227.376   2
  -3   1  22 5734.27 226.277   2
  -3  -1  22 5735.22 218.571   2
  -3  -1  21 6197.29 218.953   2
  -3   1  21 6189.88 229.565   2
  -3  -1  20 335.040 69.2502   2
  -3   1  20 436.947 79.1286   2
  -3  -1  19 3374.87 162.014   2
  -3   1  19 3452.02 169.736   2
  -3  -1  18 111.517 51.7206   2
  -3   1  18 157.020 57.7498   2
  -3   1  17 887.603 88.3445   2
  -3  -1  17 1122.46 91.5242   2
  -3  -1  16 16695.0 315.474   2
  -3   1  16 16699.6 331.601   2
   3   1 -15 1860.63 94.4453   3
  -3  -1  15 1956.99 110.082   2
  -3   1  15 1911.35 119.175   2
   3   1 -14 214.426 38.3549   3
  -3   1  14 266.643 56.9631   2
  -3  -1  14 248.914 52.3358   2
   3   1 -13 2858.28 110.792   3
  -3   1  13 2637.78 119.175   3
   3  -1 -13 2569.02 112.325   3
  -3  -1  13 2702.05 110.350   3
  -3   1  12 17087.2 283.113   3
  -3  -1  12 17249.8 260.067   3
   3  -1 -12 17009.9 274.306   3
   3   1 -12 15999.5 248.120   3
   3   1 -11 22030.4 277.529   3
  -3  -1  11 22044.4 286.348   3
  -3   1  11 22528.1 316.337   3
   3  -1 -11 22255.4 301.093   3
  -3  -1  10 8613.11 172.731   3
   3   1 -10 8575.21 167.931   3
  -3   1  10 8660.80 189.157   3
   3  -1 -10 8319.13 180.130   3
  -3  -1   9 2039.99 85.6535   3
   3  -1  -9 2078.02 89.2349   3
  -3   1   9 2097.55 94.7973   3
   3   1  -9 2121.51 82.6041   3
   3   1  -8 173.916 32.6360   3
   3  -1  -8 116.774 32.9445   3
  -3  -1   8 117.660 31.6426   3
  -3   1   8 197.911 47.6401   3
  -3   1   7 6505.21 148.592   3
   3  -1  -7 6656.34 146.307   3
   3   1  -7 6752.85 134.088   3
  -3  -1   7 6774.51 138.645   3
   3   1  -6 104692. 508.927   3
  -3  -1   6 104873. 519.132   3
  -3   1   6 104001. 569.809   3
   3  -1  -6 105717. 556.280   3
   3   1  -5 40574.0 312.232   3
   3  -1  -5 41591.2 342.847   3
  -3  -1   5 40181.7 316.214   3
  -3   1   5 41087.2 348.230   3
   3  -1  -4 60731.2 403.787   3
  -3   1   4 60477.6 415.364   3
  -3  -1   4 60410.8 382.319   3
   3   1  -4 61024.4 375.344   3
  -3  -1   3 12951.6 186.975   2
   3  -1  -3 12646.8 183.640   3
  -3   1   3 12337.2 188.119   3
  -3  -1   3 12335.7 174.565   3
  -3   1   2 1157.07 65.1729   3
  -3  -1   2 1357.30 65.5927   2
  -3  -1   1 9296.63 160.583   2
  -3   1   1 8914.04 161.112   3
   3   1  -1 9151.80 163.509   2
  -3   1   1 9392.86 159.741   2
   3  -1   0 9082.09 162.889   2
   3   1   0 9379.79 166.021   2
  -3  -1   0 9422.20 159.966   2
  -3   1   0 9460.35 159.526   2
   3  -1   1 3434.16 67.7888   1
   3   1   1 3652.38 108.789   2
   3  -1   1 3577.67 107.024   2
  -3   1  -1 3749.80 102.780   2
  -3  -1  -1 3909.95 108.984   2
  -3   1  -2 9934.35 109.787   1
  -3   1  -2 10226.2 168.142   2
   3   1   2 10349.9 182.275   2
   3  -1   2 10017.6 175.152   2
  -3  -1  -2 10481.1 176.546   2
  -3   1  -3 40736.5 340.139   2
  -3   1  -3 39347.2 220.481   1
   3   1   3 39276.9 362.344   2
   3  -1   3 39731.5 347.804   2
  -3  -1  -3 41227.3 355.637   2
   3   1   4 93.5668 39.1375   2
   3  -1   4 45.4578 38.9271   2
  -3  -1  -4 95.0752 30.7068   2
  -3   1  -4 92.3716 31.9484   2
   3   1   5 4071.21 127.946   2
   3  -1   5 4025.35 120.904   2
  -3  -1  -5 4236.07 123.901   2
  -3   1  -5 4073.58 115.963   2
   3  -1   6 20574.5 273.066   2
   3   1   6 20546.5 287.444   2
  -3  -1  -6 21697.2 285.479   2
  -3   1  -6 21013.6 266.797   2
   3  -1   7 6825.71 165.401   2
  -3  -1  -7 7134.92 170.986   2
  -3   1  -7 7286.68 162.167   2
   3   1   7 7162.27 178.898   2
   3   1   8 82.3745 47.6557   2
   3  -1   8 93.4073 41.7774   2
  -3  -1  -8 102.401 31.6175   2
  -3   1  -8 100.352 33.0481   2
  -3  -1  -9 1798.76 95.3130   2
  -3   1  -9 1748.27 87.5572   2
   3   1   9 1529.61 93.2889   2
   3  -1   9 1523.86 89.8842   2
   3  -1  10 46.1176 35.3760   2
  -3  -1 -10 100.735 35.2712   2
  -3   1 -10 67.6664 30.1381   2
   3   1  10 121.416 48.2345   2
  -3   1 -11 7.10324 29.2871   2
   3   1  11 94.5548 40.9670   2
   3  -1  11 55.1120 34.7527   2
   3  -1  12 2720.60 124.443   2
   3   1  12 2568.68 127.211   2
   3  -1  13 849.314 74.3025   2
   3   1  13 865.555 81.2643   2
   3   1  14 1137.40 94.0669   2
   3  -1  14 1026.38 87.2882   2
   3  -1  15 1478.55 102.824   2
   3   1  15 1385.76 104.823   2
   3   1  16 11.9216 54.6799   2
   3  -1  16-10.5203 40.0257   2
   3   1  17 729.789 85.5376   2
   3  -1  17 723.858 79.9707   2
   3   1  18 3311.21 169.484   2
   3  -1  18 3196.56 156.830   2
   3   1  19-29.0705 45.5361   2
   3  -1  19-5.20222 45.6692   2
   3   1  20 146.325 58.7207   2
   3  -1  20 195.703 57.6203   2
   3   1  21 984.364 111.291   2
   3  -1  21 1036.54 103.717   2
   3   1  22 28.7047 53.5129   2
   3  -1  22 55.0356 51.9575   2
   3   1  23 963.672 111.103   2
   3  -1  23 850.205 99.0917   2
   3  -1  24 77.4761 53.1514   2
   3   1  24-107.289 66.5396   2
   3   1  25 601.363 95.5708   2
   3  -1  25 652.711 93.5152   2
   3   1  26 125.509 62.9192   2
   3  -1  26 387.607 80.0182   2
   3   1  27-10.1444 57.5082   2
   3  -1  27 15.8928 50.1648   2
   3   1  28 309.051 79.3358   2
   3   1  29 519.451 90.3724   2
  -3   2  31 2100.14 165.924   2
  -3   2  30 283.875 83.7561   2
  -3   2  29 426.986 90.2933   2
  -3   2  28 195.593 74.1107   2
  -3  -2  28 156.576 56.8855   2
  -3   2  27 1230.25 128.907   2
  -3  -2  27 1210.56 115.190   2
  -3   2  26 151.572 66.5348   2
  -3  -2  26 222.686 65.3366   2
  -3   2  25 2110.22 155.274   2
  -3  -2  25 2036.47 139.409   2
  -3   2  24 114.644 57.7743   2
  -3  -2  24 96.6568 55.9625   2
  -3   2  23 296.082 71.1678   2
  -3  -2  23 314.852 69.7314   2
  -3   2  22 3105.34 174.990   2
  -3  -2  22 2985.69 160.737   2
  -3   2  21 2043.46 138.399   2
  -3  -2  21 2118.57 130.595   2
  -3   2  20 2609.64 152.279   2
  -3  -2  20 2359.95 131.435   2
  -3  -2  19 2711.26 140.966   2
  -3   2  19 2916.33 155.888   2
  -3   2  18 3991.26 181.779   2
  -3  -2  18 4300.89 165.165   2
  -3  -2  17 219.100 51.9759   2
  -3   2  17 399.822 69.9221   2
  -3  -2  16 643.385 67.8941   2
  -3   2  16 531.110 76.0970   2
   3   2 -16 520.759 52.7917   3
   3   2 -15 8214.94 186.958   3
  -3  -2  15 8284.90 210.855   2
  -3   2  15 7829.62 226.549   2
  -3   2  14 851.953 84.0205   2
   3   2 -14 961.031 65.5922   3
  -3  -2  14 1001.31 76.2419   2
  -3   2  13 1982.36 110.380   3
   3   2 -13 1768.53 85.0827   3
  -3   2  13 1759.53 109.803   2
  -3  -2  12 9820.84 188.278   3
  -3   2  12 9967.26 222.326   3
   3  -2 -12 9854.43 214.993   3
   3   2 -12 9533.64 182.207   3
   3   2 -11 1169.49 65.8400   3
   3  -2 -11 1317.32 80.4046   3
  -3   2  11 1283.53 85.7961   3
  -3  -2  11 1211.67 69.7024   3
   3   2 -10 267.040 35.2858   3
   3  -2 -10 261.694 43.0936   3
  -3   2  10 336.422 54.6934   3
  -3  -2  10 339.260 42.8514   3
   3   2  -9 18492.2 222.622   3
   3  -2  -9 18718.1 269.870   3
  -3   2   9 18635.7 277.530   3
  -3  -2   9 18698.4 230.927   3
   3   2  -8 7611.59 140.082   3
  -3   2   8 7562.41 172.132   3
   3  -2  -8 7518.23 165.805   3
  -3  -2   8 7580.01 142.148   3
   3  -2  -7 43406.2 383.319   3
  -3  -2   7 43306.5 326.610   3
   3   2  -7 43247.7 320.867   3
  -3   2   7 43394.4 393.115   3
   3  -2  -6 7638.59 157.826   3
  -3  -2   6 7765.87 136.615   3
   3   2  -6 7541.08 132.105   3
  -3   2   6 7661.53 164.560   3
  -3  -2   5 10873.5 158.621   3
   3  -2  -5 11139.5 185.741   3
   3   2  -5 10764.8 156.457   3
  -3   2   5 10885.0 191.177   3
  -3  -2   4 10.5805 27.0369   3
  -3  -2   4-8.57957 27.4664   2
  -3   2   4 27.5060 35.3300   3
   3  -2  -4 30.5505 28.6866   3
   3  -2  -3 11698.6 180.223   3
  -3  -2   3 11077.5 171.421   2
  -3  -2   3 10970.5 160.344   3
  -3   2   3 11113.0 183.678   3
   3  -2  -2 5048.34 120.209   3
  -3   2   2 5097.70 125.657   3
  -3  -2   2 5187.77 118.761   2
   3   2  -2 4986.21 122.414   2
  -3   2   1 1810.88 75.2992   2
  -3   2   1 1705.33 77.9973   3
  -3  -2   1 1775.73 72.6074   2
   3   2  -1 1734.79 78.0450   2
  -3   2   0 817.768 59.0817   3
  -3  -2   0 839.134 56.5625   2
  -3   2   0 847.967 52.8033   2
   3   2   0 826.984 61.7503   2
   3  -2   0 824.558 44.0570   1
   3  -2   1 2232.72 87.4411   2
   3  -2   1 2204.32 63.6562   1
   3   2   1 2330.78 91.6735   2
  -3   2  -1 2386.48 82.7297   2
  -3  -2  -1 2407.61 87.1483   2
   3   2   2 29492.5 313.652   2
   3  -2   2 30021.3 293.508   2
  -3   2  -2 30854.5 287.604   2
  -3  -2  -2 30566.5 307.453   2
  -3   2  -2 29349.0 220.943   1
   3   2   3 6437.74 153.010   2
  -3   2  -3 6492.45 135.415   2
  -3   2  -3 6213.44 102.673   1
   3  -2   3 6206.21 138.975   2
  -3  -2  -3 6546.67 146.831   2
   3   2   4 8581.29 182.156   2
  -3   2  -4 8794.02 158.627   2
   3  -2   4 8589.83 163.971   2
  -3  -2  -4 8736.73 175.209   2
  -3   2  -5 1649.93 75.3689   2
   3  -2   5 1624.70 78.1072   2
  -3  -2  -5 1577.61 81.9421   2
   3   2   5 1558.92 86.4902   2
   3  -2   6 6468.73 151.888   2
  -3  -2  -6 6851.56 165.095   2
  -3   2  -6 6554.58 146.343   2
   3   2   6 6356.27 167.214   2
   3  -2   7 5646.65 146.691   2
  -3  -2  -7 5997.19 158.217   2
  -3   2  -7 5544.73 139.495   2
   3   2   7 5345.67 161.246   2
   3  -2   8 725.813 60.7911   2
  -3  -2  -8 633.132 59.3231   2
  -3   2  -8 672.494 56.5844   2
   3   2   8 589.904 64.9926   2
  -3  -2  -9 1338.45 84.7752   2
  -3   2  -9 1340.92 76.3959   2
   3   2   9 1376.24 93.2220   2
   3  -2   9 1419.88 81.9570   2
  -3   2 -10 1545.10 83.4950   2
   3  -2  10 1507.39 88.1436   2
   3   2  10 1614.59 102.651   2
   3   2  11 2496.17 124.531   2
  -3   2 -11 2609.84 108.967   2
   3  -2  11 2596.36 114.180   2
   3   2  12 1482.00 103.903   2
  -3   2 -12 1492.92 86.7525   2
   3  -2  12 1536.92 94.2298   2
   3   2  13 2669.20 136.377   2
   3  -2  13 2634.02 122.189   2
   3   2  14-22.6261 52.0874   2
   3  -2  14-6.40639 39.9369   2
   3  -2  15 1987.40 113.736   2
   3   2  15 1985.78 126.374   2
   3   2  16 991.291 98.3521   2
   3  -2  16 851.254 83.1151   2
   3   2  17-13.3766 49.4012   2
   3  -2  17 11.7319 41.3755   2
   3   2  18 654.415 83.7510   2
   3  -2  18 562.782 72.8332   2
   3   2  19 838.798 100.196   2
   3  -2  19 740.003 84.6514   2
   3   2  20 84.7580 59.7215   2
   3  -2  20 66.0173 48.8771   2
   3   2  21 4681.57 217.005   2
   3  -2  21 5025.89 206.678   2
   3   2  22 58.2103 54.0405   2
   3  -2  22 58.3910 48.5357   2
   3   2  23 3116.75 188.725   2
   3  -2  23 3520.25 180.335   2
   3   2  24 196.620 64.8788   2
   3  -2  24 169.724 60.7348   2
   3   2  25 323.898 80.8202   2
   3  -2  25 290.850 72.2412   2
   3   2  26 33.5306 57.3150   2
   3  -2  26 123.606 57.9703   2
   3   2  27 857.833 113.811   2
   3   2  28 95.5939 54.5884   2
   3   2  29 280.919 84.1435   2
  -3   3  31-7.80683 55.7664   2
  -3   3  30-39.9942 57.1425   2
  -3   3  29 216.471 76.4773   2
  -3   3  28 170.755 66.6874   2
  -3   3  27 1520.05 144.099   2
  -3  -3  27 1477.29 120.507   2
  -3   3  26 484.678 92.1492   2
  -3  -3  26 600.985 87.0821   2
  -3   3  25 1923.62 155.261   2
  -3  -3  25 2254.07 145.524   2
  -3  -3  24 3141.92 166.310   2
  -3   3  24 3006.62 185.708   2
  -3   3  23 6846.72 261.633   2
  -3  -3  23 6818.30 231.038   2
  -3   3  22 237.132 75.6112   2
  -3  -3  22 161.753 48.8457   2
  -3   3  21 595.748 92.7241   2
  -3  -3  21 390.784 65.5151   2
  -3  -3  20 816.769 83.4706   2
  -3   3  20 837.082 100.899   2
  -3  -3  19 183.951 50.3294   2
  -3   3  19 282.676 69.2363   2
  -3  -3  18 784.860 76.5879   2
  -3   3  18 542.663 82.5882   2
  -3   3  17 3678.59 169.405   2
   3   3 -17 3533.46 125.312   3
  -3  -3  17 3424.82 141.005   2
  -3  -3  16 10.5469 34.7171   2
   3   3 -16-8.03086 26.7716   3
  -3   3  16 2.39109 46.5663   2
  -3  -3  15 1454.52 88.1283   2
   3   3 -15 1303.44 74.1825   3
  -3   3  15 1339.98 106.284   2
  -3   3  14 1859.19 116.540   2
   3   3 -14 1875.13 86.2666   3
   3   3 -13 9913.49 184.633   3
  -3   3  13 9839.54 239.255   3
  -3   3  13 10150.5 250.429   2
  -3  -3  12 1448.36 73.7059   3
  -3   3  12 1475.05 95.7162   3
   3   3 -12 1487.79 71.0613   3
   3   3 -11 8527.63 156.659   3
   3  -3 -11 8960.12 204.421   3
  -3   3  11 8816.36 213.883   3
  -3  -3  11 8916.92 165.174   3
   3   3 -10 4293.07 107.395   3
   3  -3 -10 4266.36 139.785   3
  -3  -3  10 4177.66 109.812   3
  -3   3  10 4121.55 144.207   3
   3   3  -9 6599.97 128.127   3
   3  -3  -9 6805.55 170.317   3
  -3  -3   9 6730.64 132.041   3
  -3   3   9 6735.72 178.336   3
   3   3  -8 4084.34 98.0984   3
   3  -3  -8 4068.07 129.711   3
  -3  -3   8 4203.71 101.358   3
  -3   3   8 4142.57 135.149   3
   3   3  -7 366.585 34.5936   3
  -3  -3   7 368.790 36.5751   3
  -3   3   7 426.377 55.2711   3
   3  -3  -7 457.868 48.4301   3
  -3   3   6 9327.16 189.403   3
  -3  -3   6 9314.52 142.417   3
   3   3  -6 9316.41 138.667   3
   3  -3  -6 9637.87 183.099   3
  -3  -3   5 35657.7 272.416   3
  -3  -3   5 36434.8 309.372   2
  -3   3   5 35866.7 353.509   3
   3  -3  -5 36005.5 342.865   3
  -3  -3   4 2942.58 83.1997   3
  -3  -3   4 3079.44 94.2683   2
   3  -3  -4 3170.93 103.196   3
  -3   3   4 3005.66 107.192   3
   3   3  -3 6252.33 135.793   2
   3  -3  -3 6398.60 141.741   3
  -3   3   3 6297.91 146.021   3
  -3  -3   3 6443.50 132.034   2
  -3  -3   2 19049.4 226.054   2
  -3   3   2 18137.8 240.500   3
   3  -3  -2 18933.4 236.473   3
   3   3  -2 18370.2 227.929   2
  -3  -3   1 2571.87 89.2080   2
   3   3  -1 2708.58 95.5659   2
  -3   3   1 2683.22 96.8514   3
   3  -3  -1 2788.98 83.1602   1
   3  -3  -1 2784.34 94.7950   3
   3   3   0 1770.55 81.3509   2
  -3  -3   0 1827.18 77.7736   2
  -3   3   0 1869.97 75.5154   2
   3  -3   0 1853.60 66.4295   1
  -3   3   0 1890.65 81.6239   3
   3   3   1 7880.62 161.750   2
  -3   3  -1 7900.12 144.621   2
   3  -3   1 7633.01 125.786   1
  -3   3  -1 7681.49 157.247   3
  -3   3  -1 7548.89 129.318   1
  -3  -3  -1 7783.81 155.612   2
  -3   3  -2 2003.68 69.3612   1
   3  -3   2 2068.30 82.8705   2
  -3   3  -2 2169.12 78.7765   2
  -3  -3  -2 2088.21 89.0231   2
   3   3   2 2156.05 92.8686   2
  -3   3  -3 375.253 36.5096   1
   3   3   3 395.075 51.5554   2
   3  -3   3 425.894 46.9169   2
  -3  -3  -3 538.792 51.4117   2
  -3   3  -3 448.883 41.8472   2
  -3   3  -4 1041.98 57.8774   2
  -3  -3  -4 1182.45 70.3986   2
   3   3   4 1140.57 76.6501   2
   3  -3   4 1237.45 67.1034   2
   3   3   5 5937.67 160.234   2
  -3  -3  -5 6018.93 155.473   2
   3  -3   5 5633.15 135.597   2
  -3   3  -5 5871.63 131.744   2
  -3  -3  -6 1115.31 73.7032   2
   3  -3   6 1090.41 66.7582   2
  -3   3  -6 1009.65 59.2432   2
   3   3   6 1081.32 79.7073   2
   3  -3   7 898.829 63.0455   2
  -3  -3  -7 1002.11 72.7143   2
  -3   3  -7 977.360 60.7360   2
   3   3   7 882.856 77.9627   2
  -3   3  -8 8785.60 175.521   2
   3  -3   8 8307.65 178.006   2
   3   3   8 8420.94 209.842   2
  -3  -3  -8 8724.05 204.462   2
   3  -3   9 3762.13 124.736   2
   3   3   9 3700.49 145.224   2
  -3   3  -9 4114.17 124.805   2
  -3   3 -10 46.9280 28.9088   2
   3   3  10 0.70590 41.8335   2
   3  -3  10 23.2286 33.0739   2
   3  -3  11 21.5173 33.1841   2
  -3   3 -11 12.2279 26.0764   2
   3   3  11 22.9994 39.6062   2
   3  -3  12 38.7872 32.6822   2
  -3   3 -12 44.0192 29.4083   2
   3   3  12 23.1477 45.7838   2
   3   3  13 1245.89 100.659   2
   3  -3  13 1143.75 82.3159   2
   3   3  14 5430.58 201.084   2
   3  -3  14 5578.26 176.427   2
   3  -3  15 253.493 52.6205   2
   3   3  15 272.560 66.8186   2
   3   3  16-14.6280 49.1207   2
   3  -3  16-42.7317 39.3624   2
   3   3  17 199.170 64.4102   2
   3  -3  17 221.789 50.9457   2
   3   3  18 5058.19 213.170   2
   3  -3  18 5039.13 187.617   2
   3   3  19 4255.41 201.570   2
   3  -3  19 3981.12 172.396   2
   3  -3  20 309.545 69.2849   2
   3   3  20 399.889 82.5242   2
   3  -3  21 239.441 59.6962   2
   3   3  21 200.307 68.5979   2
   3  -3  22 35.3828 42.0804   2
   3   3  22 107.031 64.7621   2
   3   3  23 1127.59 122.078   2
   3  -3  23 1168.53 105.708   2
   3   3  24 961.043 113.249   2
   3  -3  24 1178.96 113.261   2
   3   3  25 1151.78 129.670   2
   3  -3  25 1243.01 114.463   2
   3   3  26 310.445 83.9409   2
   3   3  27 58.9776 59.4991   2
   3   3  28 1906.55 160.222   2
   3   3  29 985.738 120.192   2
  -3   4  31 103.268 73.5763   2
  -3   4  30 617.371 100.499   2
  -3   4  29 31.9482 63.5750   2
  -3   4  28 574.979 95.9292   2
  -3   4  27 491.237 92.6549   2
  -3  -4  26 3269.38 170.341   2
  -3   4  26 3215.63 199.709   2
  -3   4  25 612.606 97.0631   2
  -3  -4  25 458.003 73.6772   2
  -3   4  24 98.2711 61.4758   2
  -3  -4  24 46.2312 49.4008   2
  -3  -4  23 1207.59 100.313   2
  -3   4  23 1171.57 121.113   2
  -3  -4  22 911.880 85.1197   2
  -3   4  22 826.993 106.943   2
  -3   4  21 1770.93 137.933   2
  -3  -4  21 1673.23 110.374   2
  -3   4  20 4168.70 200.985   2
  -3  -4  20 4282.97 163.709   2
  -3  -4  19 3934.73 157.082   2
  -3   4  19 3759.27 185.138   2
  -3   4  18 1075.27 105.301   2
   3   4 -18 962.590 68.2994   3
  -3  -4  18 1101.60 88.2682   2
  -3   4  17 1157.91 105.962   2
   3   4 -17 1136.79 71.3044   3
  -3  -4  17 1136.29 82.3583   2
  -3  -4  16 3518.43 134.308   2
  -3   4  16 3488.62 166.756   2
   3   4 -16 3593.07 118.521   3
  -3   4  15 31.8790 44.1664   2
   3   4 -15-9.19904 21.3698   3
  -3  -4  15-5.82739 31.5371   2
  -3   4  14 18.4800 45.2254   2
   3   4 -14 50.2637 21.1520   3
   3   4 -13 1319.59 66.4590   3
  -3   4  13 1311.53 97.0875   3
  -3   4  13 1402.41 102.914   2
   3   4 -12 56.7069 23.2314   3
  -3   4  12 104.673 48.3949   3
  -3   4  12 108.953 46.7073   2
  -3  -4  11 1951.65 73.8821   3
   3   4 -11 1867.35 71.2474   3
  -3   4  11 1860.63 107.201   3
  -3   4  10 1069.38 84.8256   3
   3   4 -10 1029.62 51.6430   3
   3  -4 -10 1208.07 81.7956   3
  -3  -4  10 1083.67 55.6337   3
   3   4  -9 7581.35 127.412   3
   3  -4  -9 7853.04 187.764   3
  -3  -4   9 7553.32 131.478   3
  -3   4   9 7618.07 194.818   3
   3   4  -8 22381.5 211.013   3
   3  -4  -8 23260.3 309.456   3
  -3  -4   8 22576.2 213.642   3
  -3   4   8 22362.9 319.660   3
  -3  -4   7 5159.59 101.476   3
  -3   4   7 4945.79 149.840   3
   3  -4  -7 5185.04 144.138   3
  -3  -4   6 9794.29 137.032   3
   3  -4  -6 9871.24 193.305   3
  -3   4   6 10055.2 201.535   3
  -3  -4   6 9925.26 163.341   2
   3  -4  -5 558.885 51.2275   3
  -3   4   5 565.733 59.9944   3
  -3  -4   5 583.881 39.6075   3
  -3  -4   5 621.822 45.2330   2
  -3  -4   4 2823.51 88.9643   2
   3  -4  -4 2792.21 100.203   3
  -3   4   4 2935.78 107.732   3
  -3  -4   4 2579.66 76.5033   3
   3   4  -3 7942.02 151.445   2
  -3  -4   3 8042.30 147.509   2
   3  -4  -3 8467.06 164.832   3
  -3   4   3 8184.58 170.531   3
  -3  -4   2 8.90559 25.8349   2
   3  -4  -2 39.3923 29.7770   3
  -3   4   2 21.3739 39.5613   3
   3   4  -2 27.1238 32.3250   2
   3  -4  -2 69.0883 33.5008   1
  -3  -4   1 44078.0 353.420   2
   3  -4  -1 44401.4 369.013   3
   3  -4  -1 44725.4 336.066   1
  -3   4   1 43527.4 377.063   3
   3   4  -1 42383.9 357.791   2
   3   4   0 18884.5 248.424   2
  -3  -4   0 19638.0 241.596   2
  -3   4   0 18804.3 247.512   3
   3  -4   0 19505.2 218.584   1
  -3   4  -1 23825.3 252.436   2
  -3   4  -1 23351.3 276.330   3
   3   4   1 23608.3 281.741   2
  -3  -4  -1 24180.0 275.063   2
  -3   4  -1 22418.6 243.558   1
   3   4   2 650.529 60.6943   2
  -3   4  -2 709.404 52.7958   1
  -3   4  -2 790.568 51.8783   2
  -3  -4  -2 731.672 55.1877   2
   3   4   2 667.551 27.4589   1
  -3   4  -2 742.897 58.5775   3
  -3   4  -3 3384.57 98.1224   1
   3   4   3 3363.75 121.496   2
   3  -4   3 3600.81 105.143   2
  -3  -4  -3 3670.27 117.566   2
  -3   4  -3 3683.03 99.8645   2
  -3   4  -4 30185.3 282.990   2
  -3  -4  -4 29389.9 333.767   2
   3   4   4 28956.0 347.082   2
   3  -4   4 29083.9 289.999   2
  -3   4  -5 6174.10 132.601   2
  -3  -4  -5 5508.97 75.0823   1
   3  -4   5 5966.92 136.353   2
  -3  -4  -5 6180.50 161.007   2
   3   4   5 5802.56 165.402   2
   3   4   6 17323.4 286.134   2
   3  -4   6 17385.7 234.745   2
  -3   4  -6 17625.9 225.862   2
  -3  -4  -6 18040.0 280.111   2
  -3  -4  -7 19648.1 304.351   2
   3  -4   7 19667.3 254.562   2
  -3   4  -7 20007.8 248.767   2
   3   4   7 19283.0 313.844   2
   3  -4   8 139.058 35.7431   2
  -3   4  -8 131.199 29.2965   2
   3   4   8 167.573 53.3070   2
   3   4   9 239.037 54.4493   2
   3  -4   9 289.555 42.4782   2
  -3   4  -9 329.047 40.0764   2
   3  -4  10 4852.34 140.715   2
  -3   4 -10 4837.31 136.684   2
   3   4  10 4721.81 175.921   2
   3  -4  11 3724.01 128.367   2
  -3   4 -11 3790.28 126.367   2
   3   4  11 3623.88 157.640   2
  -3   4 -12 1152.13 73.8139   2
   3   4  12 1132.91 95.4760   2
   3  -4  12 1219.46 78.5653   2
   3  -4  13 150.593 42.0277   2
  -3   4 -13 85.1814 31.9895   2
   3   4  13 135.808 56.6411   2
   3  -4  14 656.667 64.8609   2
   3   4  14 647.376 80.1200   2
   3  -4  15 2319.89 116.738   2
   3   4  15 2154.97 136.529   2
   3  -4  16 5478.35 180.090   2
   3   4  16 5786.07 220.920   2
   3   4  17 1909.59 137.037   2
   3  -4  17 1844.90 109.233   2
   3  -4  18 120.105 45.7980   2
   3   4  18 124.301 58.5599   2
   3  -4  19 124.633 46.7269   2
   3   4  19 202.723 63.0896   2
   3   4  20 2645.82 168.999   2
   3  -4  20 2946.73 146.534   2
   3  -4  21 52.9710 41.9885   2
   3   4  21 60.2495 55.1768   2
   3  -4  22 5959.69 216.771   2
   3   4  22 5680.18 251.109   2
   3  -4  23 732.099 86.5164   2
   3   4  23 948.932 113.772   2
   3  -4  24 135.430 52.1749   2
   3   4  24 167.112 65.0233   2
   3   4  25 48.3895 63.8470   2
   3   4  26 2705.41 194.694   2
   3   4  27 221.844 80.9651   2
   3   4  28 631.344 103.461   2
   3   4  29 723.761 112.495   2
  -3   5  30 1025.84 128.622   2
  -3   5  29-5.51813 67.7848   2
  -3   5  28 54.6253 61.8949   2
  -3   5  27 66.8346 55.3806   2
  -3   5  26 1583.21 148.454   2
  -3   5  25 45.4584 64.2531   2
  -3  -5  25 8.00478 37.0341   2
  -3   5  24 5261.39 242.724   2
  -3  -5  24 5362.93 200.409   2
  -3  -5  23 984.734 90.9105   2
  -3   5  23 1052.32 118.148   2
  -3   5  22 2646.62 171.247   2
  -3  -5  22 2626.11 133.641   2
  -3   5  21 60.3913 52.3587   2
  -3  -5  21 101.055 42.2263   2
  -3   5  20 257.991 77.3420   2
  -3  -5  20 257.030 50.8193   2
  -3  -5  19 1099.72 84.0058   2
  -3   5  19 898.471 106.215   2
  -3  -5  18 654.922 66.4919   2
  -3   5  18 691.730 91.0287   2
   3   5 -18 797.050 58.9186   3
  -3  -5  17 81.3063 34.6447   2
   3   5 -17 161.077 34.4256   3
  -3   5  17 116.675 55.0659   2
  -3   5  16 3275.49 167.446   2
   3   5 -16 3219.61 106.270   3
  -3  -5  16 3522.38 130.867   2
  -3   5  15-2.71144 52.2669   2
   3   5 -15 3.90723 21.2408   3
  -3  -5  15 49.0267 32.3890   2
  -3   5  14 6.13609 46.3421   2
   3   5 -14 38.3022 20.4232   3
   3   5 -13 791.594 49.9281   3
  -3   5  13 722.589 81.3038   2
  -3   5  13 808.327 82.4023   3
   3   5 -12 22232.0 232.596   3
  -3   5  12 23022.3 375.520   2
  -3   5  12 22683.8 367.493   3
   3   5 -11 48.6322 18.2698   3
  -3   5  11 68.2051 44.2988   3
  -3  -5  11 68.7059 22.8100   3
  -3  -5  10 1004.75 48.9980   3
   3   5 -10 995.624 46.5368   3
  -3   5  10 845.347 79.8209   3
  -3   5   9 1574.41 97.1271   3
   3  -5  -9 1447.28 89.4948   3
   3   5  -9 1438.61 53.4310   3
  -3  -5   9 1422.36 54.6029   3
  -3   5   8 1309.77 90.2036   3
   3  -5  -8 1456.37 86.5931   3
  -3  -5   8 1478.15 53.8165   3
  -3  -5   8 1302.98 64.7387   2
  -3   5   7 89.9086 43.8992   3
  -3  -5   7 108.560 29.1262   2
  -3  -5   7 108.694 23.1889   3
   3  -5  -7 139.557 38.4803   3
  -3  -5   6 353.101 38.8513   2
  -3  -5   6 350.128 30.1249   3
   3  -5  -6 415.467 49.4240   3
  -3   5   6 353.643 55.5578   3
  -3  -5   5 648.797 38.8527   3
  -3  -5   5 656.174 46.7964   2
   3  -5  -5 602.157 55.8652   3
  -3   5   5 616.916 61.0540   3
  -3  -5   4 18713.8 222.263   2
   3  -5  -4 18767.4 259.744   3
  -3   5   4 18168.4 268.990   3
   3   5  -4 18294.6 225.789   2
   3   5  -3 992.635 59.2058   2
  -3  -5   3 1098.69 59.5283   2
   3  -5  -3 1153.38 68.1399   3
   3  -5  -3 1122.76 67.0688   1
  -3   5   3 1158.83 75.2210   3
  -3  -5   2 10227.6 170.449   2
   3   5  -2 9798.75 174.189   2
  -3   5   2 10175.2 192.588   3
   3  -5  -2 9866.43 183.568   3
   3  -5  -2 9988.06 176.395   1
   3   5  -1 4997.09 128.501   2
   3  -5  -1 4780.25 120.791   1
  -3   5   1 4792.36 133.425   3
   3  -5  -1 4906.25 126.784   3
  -3  -5   1 4873.30 122.290   2
   3   5   0 1836.47 84.7979   2
  -3   5   0 1804.72 82.6554   1
   3  -5   0 1810.00 79.6961   3
   3  -5   0 1817.42 75.7738   1
  -3  -5   0 1852.79 79.8235   2
  -3   5   0 1808.79 84.7300   3
  -3   5  -1 8049.90 147.968   2
   3   5   1 7815.42 168.734   2
  -3   5  -1 7933.74 166.351   3
  -3   5  -1 7615.24 154.556   1
  -3  -5  -1 8187.88 164.667   2
  -3   5  -2 7881.62 155.415   1
  -3   5  -2 8147.59 147.344   2
  -3   5  -2 7682.91 164.908   3
  -3  -5  -2 8353.62 172.702   2
   3   5   2 7935.62 178.890   2
   3   5   2 7963.08 103.967   1
  -3   5  -3 3179.84 103.244   1
  -3   5  -3 3268.43 110.815   3
  -3   5  -3 3103.97 92.5926   2
  -3  -5  -3 3275.38 115.007   2
   3   5   3 3199.28 119.480   2
   3  -5   4 17956.4 225.760   2
  -3   5  -4 17786.0 214.306   2
  -3  -5  -4 17915.4 269.059   2
   3   5   4 18126.6 281.822   2
   3  -5   5 2416.70 86.5491   2
  -3   5  -5 2418.30 82.9622   2
  -3  -5  -5 2453.49 106.982   2
   3   5   5 2259.29 111.676   2
  -3  -5  -6 47502.0 262.321   1
  -3  -5  -6 50138.7 480.225   2
   3   5   6 47569.4 482.449   2
   3  -5   6 47927.4 379.517   2
  -3   5  -6 48818.0 367.074   2
  -3   5  -7 1556.22 70.3060   2
   3  -5   7 1541.64 73.4479   2
   3   5   7 1544.36 101.164   2
  -3  -5  -7 1588.22 54.1730   1
   3  -5   8 12637.9 205.649   2
   3   5   8 12790.8 269.722   2
  -3   5  -8 12877.7 199.623   2
   3  -5   9 281.226 40.6071   2
  -3   5  -9 295.912 39.4364   2
   3   5   9 277.592 58.9780   2
   3  -5  10 57.8737 32.8397   2
   3   5  10 75.0127 49.7120   2
  -3   5 -10 77.7293 29.6509   2
   3  -5  11 1166.75 73.6063   2
  -3   5 -11 1157.10 68.4666   2
   3   5  11 1141.32 96.7506   2
  -3   5 -12 3706.04 124.564   2
   3  -5  12 3609.18 125.744   2
   3   5  12 3321.82 158.531   2
   3  -5  13 849.359 66.7807   2
  -3   5 -13 841.865 64.1882   2
   3   5  13 740.765 85.6058   2
   3  -5  14 3198.08 126.234   2
   3   5  14 3194.10 163.513   2
  -3   5 -14 3325.73 121.809   2
   3  -5  15 94.0991 34.8072   2
   3   5  15 155.360 57.4915   2
   3  -5  16 3278.39 137.041   2
   3   5  16 3144.82 171.551   2
   3   5  17 1798.91 138.069   2
   3  -5  17 1716.44 102.938   2
   3  -5  18 431.696 60.8084   2
   3   5  18 419.297 79.2585   2
   3   5  19 1439.11 126.581   2
   3  -5  19 1260.21 97.1058   2
   3   5  20 2467.45 165.786   2
   3  -5  20 2394.10 130.160   2
   3  -5  21 591.722 72.6309   2
   3   5  21 754.536 105.492   2
   3   5  22 272.306 76.8607   2
   3  -5  22 76.7944 44.4879   2
   3   5  23 338.240 80.9790   2
   3  -5  23 217.715 57.8730   2
   3   5  24 3007.26 195.472   2
   3   5  25 269.617 89.6749   2
   3   5  26 331.136 85.8800   2
   3   5  27 11.9462 66.4287   2
   3   5  28 825.611 120.587   2
  -3   6  30 129.042 73.9395   2
  -3   6  29 77.4683 64.8369   2
  -3   6  28 1783.11 162.689   2
  -3   6  27 1392.67 145.177   2
  -3   6  26 854.079 116.748   2
  -3   6  25 641.598 105.522   2
  -3   6  24 42.1572 67.4218   2
  -3  -6  24 76.6868 43.9571   2
  -3   6  23 204.081 76.5800   2
  -3  -6  23 152.524 45.3303   2
  -3  -6  22 25.5505 38.1552   2
  -3   6  22 44.8774 60.3338   2
  -3  -6  21 4487.29 162.999   2
  -3   6  21 4242.02 214.125   2
  -3  -6  20 735.235 70.3607   2
  -3   6  20 592.641 90.8439   2
  -3  -6  19 2269.18 113.432   2
  -3   6  19 2650.04 160.485   2
  -3   6  18 227.293 72.8887   2
   3   6 -18 241.870 36.0821   3
  -3  -6  18 256.566 46.4648   2
  -3  -6  17 43.4546 30.5607   2
  -3   6  17-29.7097 53.5083   2
   3   6 -17 40.1482 24.5924   3
   3   6 -16 634.136 48.1602   3
  -3   6  16 675.420 86.8835   2
  -3  -6  16 696.494 60.9219   2
  -3   6  15 2072.38 133.506   2
   3   6 -15 2066.15 77.5930   3
  -3  -6  15 1985.63 92.5594   2
  -3   6  14 1059.07 100.188   2
   3   6 -14 1013.40 52.6718   3
   3   6 -13 8916.38 142.954   3
  -3   6  13 8850.70 250.324   2
  -3   6  13 8917.50 244.251   3
   3   6 -12 2813.92 76.2955   3
  -3   6  12 2919.32 143.220   3
  -3   6  12 2660.22 140.141   2
   3   6 -11 3.04324 14.7580   3
  -3   6  11 37.2746 48.0493   3
  -3   6  11-3.87243 44.8343   2
   3   6 -10 36.4678 15.9822   3
  -3   6  10-9.71660 44.9786   3
  -3  -6  10 41.4861 17.2859   3
  -3  -6   9 11953.2 181.803   2
  -3  -6   9 11586.2 134.998   3
  -3   6   9 11942.6 257.297   3
   3  -6  -8 5870.30 169.963   3
  -3  -6   8 5721.51 92.0295   3
  -3   6   8 5826.34 178.991   3
  -3  -6   8 5698.38 123.683   2
  -3  -6   7 14767.3 196.444   2
  -3   6   7 14617.2 268.057   3
   3  -6  -7 14954.7 258.676   3
  -3  -6   7 14486.1 146.916   3
   3  -6  -6 68.0191 32.7426   3
  -3  -6   6 33.6711 18.3506   3
  -3  -6   6 72.8076 25.0146   2
  -3   6   6 49.0695 42.6798   3
  -3  -6   5 2581.58 84.9282   2
  -3  -6   5 2471.14 66.5918   3
   3  -6  -5 2578.60 105.136   3
  -3   6   5 2623.98 112.375   3
  -3  -6   4 5759.52 126.984   2
   3  -6  -4 6108.93 154.337   3
   3  -6  -4 5982.30 151.683   1
  -3   6   4 5929.37 159.926   3
   3   6  -4 5741.11 129.148   2
  -3  -6   3 866.237 54.2439   2
   3  -6  -3 937.176 65.1162   3
  -3   6   3 809.624 68.4451   3
   3  -6  -3 942.170 64.5453   1
   3   6  -3 908.421 57.7894   2
  -3  -6   2 372.112 40.0473   2
  -3   6   2 394.629 49.2732   3
   3   6  -2 343.912 41.5767   2
   3  -6  -2 439.095 47.8321   3
   3  -6  -2 420.766 46.6305   1
   3   6  -1 12195.7 202.821   2
  -3  -6   1 12728.0 199.595   2
  -3   6   1 12781.7 218.779   3
   3  -6  -1 13078.8 211.699   3
   3  -6  -1 13127.5 209.093   1
   3  -6   0 23646.9 277.191   1
  -3   6   0 23336.4 290.581   3
   3  -6   0 23879.5 283.508   3
  -3  -6   0 24264.2 280.134   2
  -3   6   0 23371.9 286.522   1
   3   6   0 23355.7 287.085   2
  -3   6  -1 1959.28 88.5805   1
   3   6   1 1774.77 90.5552   2
  -3  -6  -1 2035.03 88.6963   2
  -3   6  -1 1866.74 86.6736   3
  -3   6  -2 9224.43 158.118   2
   3   6   2 9109.33 128.219   1
  -3   6  -2 9037.31 181.979   3
  -3  -6  -2 9923.83 193.072   2
  -3   6  -2 9427.01 183.468   1
   3   6   2 8830.02 190.585   2
  -3   6  -3 1535.50 79.2572   1
  -3  -6  -3 1559.13 83.1790   2
  -3   6  -3 1607.18 67.4144   2
   3   6   3 1673.48 56.5783   1
  -3   6  -3 1494.10 79.7679   3
   3   6   3 1519.73 89.3133   2
  -3   6  -4 1260.36 72.8036   3
  -3   6  -4 1316.35 60.8810   2
  -3  -6  -4 1256.48 77.8683   2
   3   6   4 1318.86 87.6104   2
  -3  -6  -5 53300.6 491.264   2
  -3   6  -5 52792.6 372.026   2
   3   6   5 52440.6 503.315   2
   3  -6   6 1915.84 78.0432   2
  -3  -6  -6 1792.93 58.4430   1
  -3  -6  -6 2014.46 104.418   2
   3   6   6 1885.01 109.287   2
  -3   6  -6 1893.82 73.9641   2
  -3  -6  -7 1075.18 49.1074   1
   3  -6   7 1092.88 62.4131   2
   3   6   7 1034.42 87.8760   2
  -3   6  -7 1081.38 57.7984   2
   3   6   8 3153.32 143.697   2
  -3  -6  -8 3160.38 84.4919   1
  -3   6  -8 3220.94 98.9911   2
   3  -6   8 3298.35 103.825   2
   3   6   9 2845.88 140.524   2
   3  -6   9 2647.31 96.2996   2
  -3   6  -9 2893.39 97.2270   2
   3  -6  10 2163.42 89.4300   2
  -3   6 -10 2235.25 89.3572   2
   3   6  10 2382.15 130.593   2
   3   6  11 395.537 67.8949   2
  -3   6 -11 360.847 41.2584   2
   3  -6  11 294.151 41.0749   2
   3  -6  12 5167.47 144.063   2
  -3   6 -12 5377.40 143.675   2
   3   6  12 5213.49 200.742   2
   3  -6  13 1223.85 75.7500   2
  -3   6 -13 1202.00 71.3647   2
   3   6  13 1164.62 104.741   2
   3  -6  14 1936.05 96.8882   2
  -3   6 -14 1984.98 93.1839   2
   3   6  14 1977.04 137.454   2
   3  -6  15 5713.75 167.266   2
  -3   6 -15 6161.28 161.992   2
   3   6  15 5701.39 223.854   2
   3  -6  16 2031.64 104.604   2
   3   6  16 1863.99 137.265   2
   3  -6  17 135.300 41.9349   2
   3   6  17 148.260 63.7574   2
   3  -6  18 27.7428 36.8796   2
   3   6  18 49.9917 54.0226   2
   3  -6  19 32.0615 33.0085   2
   3   6  19-2.78836 58.2496   2
   3  -6  20 3522.19 151.355   2
   3   6  20 3476.97 197.541   2
   3  -6  21 4011.99 165.144   2
   3   6  21 4452.65 223.578   2
   3   6  22 3714.35 213.415   2
   3  -6  22 3842.40 167.460   2
   3   6  23 3638.01 212.947   2
   3   6  24 6.25418 61.0990   2
   3   6  25 109.520 68.7656   2
   3   6  26 1466.08 150.997   2
   3   6  27 1187.85 136.068   2
  -3   7  29 515.756 103.429   2
  -3   7  28 1107.66 138.936   2
  -3   7  27 697.897 115.407   2
  -3   7  26 10.9430 59.4280   2
  -3   7  25 4067.92 227.506   2
  -3   7  24 57.1610 56.8220   2
  -3   7  23 3087.16 196.261   2
  -3   7  22 1831.21 150.737   2
  -3  -7  22 1636.76 101.501   2
  -3  -7  21 1086.41 81.1680   2
  -3   7  21 947.737 113.347   2
  -3   7  20 1423.49 131.854   2
  -3  -7  20 1481.37 91.3945   2
  -3   7  19 518.225 88.7287   2
  -3  -7  19 509.220 56.9164   2
  -3  -7  18 105.798 36.4585   2
  -3   7  18-14.3182 59.3518   2
   3   7 -18 70.3377 22.1104   3
  -3  -7  17 9413.59 199.945   2
   3   7 -17 9252.71 159.463   3
  -3   7  17 8169.46 292.032   2
   3   7 -16 201.804 28.0816   3
  -3   7  16 404.764 78.3030   2
  -3  -7  16 286.770 41.1275   2
  -3   7  15 2962.36 162.696   2
   3   7 -15 3052.58 85.1213   3
  -3  -7  15 3137.79 110.761   2
  -3   7  14 958.675 100.898   2
   3   7 -14 826.506 43.0763   3
   3   7 -13 6004.44 104.197   3
  -3   7  13 6024.04 211.166   3
  -3   7  13 5935.76 213.704   2
  -3   7  12 2692.46 144.367   2
   3   7 -12 2693.50 66.5112   3
  -3   7  12 2895.69 143.433   3
  -3  -7  11 2376.48 85.1469   2
  -3   7  11 2660.60 138.100   2
  -3   7  11 2525.82 133.464   3
  -3   7  10 4393.14 168.577   3
  -3  -7  10 3951.74 72.1022   3
  -3   7  10 4027.87 162.780   2
  -3  -7  10 4045.91 106.344   2
  -3   7   9 4609.66 167.331   3
  -3  -7   9 4631.41 110.847   2
  -3  -7   9 4505.06 74.2309   3
  -3   7   8 131.538 52.4365   3
  -3  -7   8 162.532 17.9898   3
  -3  -7   8 107.965 27.1085   2
  -3  -7   7 6075.11 124.839   2
   3  -7  -7 6241.64 175.605   3
  -3   7   7 6125.15 180.839   3
  -3  -7   7 5716.82 86.9004   3
  -3  -7   6 1722.55 69.2676   2
  -3  -7   6 1654.75 50.2720   3
   3  -7  -6 1824.14 95.8390   3
  -3   7   6 1798.40 101.650   3
  -3  -7   5 22508.1 244.446   2
   3  -7  -5 22587.3 310.073   1
   3   7  -5 22148.2 248.993   2
   3  -7  -5 22987.7 312.644   3
  -3   7   5 22381.8 324.311   3
   3  -7  -4 601.732 55.9450   3
   3   7  -4 681.605 52.1907   2
   3  -7  -4 696.003 62.1887   1
  -3   7   4 744.019 67.8571   3
  -3  -7   4 623.361 46.1818   2
   3  -7  -3 11915.9 215.878   1
   3  -7  -3 11590.6 214.967   3
   3   7  -3 10693.4 183.148   2
  -3   7   3 11282.0 220.380   3
  -3  -7   3 11484.0 182.752   2
   3   7  -2 7229.17 154.740   2
   3  -7  -2 7339.94 168.522   3
   3  -7  -2 7068.85 166.604   1
  -3   7   2 7067.22 173.795   3
  -3  -7   2 7085.92 148.404   2
  -3  -7   1 1657.83 77.1991   2
   3   7  -1 1608.53 79.3433   2
   3  -7  -1 1720.97 86.3328   1
  -3   7   1 1656.86 88.1700   3
  -3   7   1 1669.08 92.3723   1
   3  -7  -1 1705.58 82.4553   3
   3   7   0 6084.96 153.497   2
  -3  -7   0 6497.85 150.168   2
  -3   7   0 6278.92 160.945   1
   3  -7   0 6259.72 151.533   3
  -3   7   0 6313.02 158.229   3
   3   7   1 379.484 51.0158   2
   3  -7   1 434.257 44.7045   3
  -3   7  -1 486.535 53.2648   3
  -3  -7  -1 438.186 48.4270   2
  -3   7  -1 447.545 53.4274   1
   3   7   2 2456.86 77.4453   1
  -3   7  -2 2504.66 84.8702   2
  -3   7  -2 2682.54 108.643   1
  -3  -7  -2 2513.37 102.218   2
  -3   7  -2 2588.09 102.893   3
   3   7   2 2421.14 106.808   2
  -3   7  -3 4867.39 114.282   2
   3   7   3 4689.56 149.833   2
  -3   7  -3 4835.11 143.927   1
  -3   7  -3 4851.18 137.503   3
   3   7   3 4823.68 104.215   1
  -3  -7  -3 4786.48 144.405   2
  -3  -7  -4 7696.70 188.026   2
  -3   7  -4 7897.97 143.107   2
  -3   7  -4 7912.04 173.552   3
   3   7   4 7565.23 192.513   2
   3   7   5-50.2008 45.9176   2
  -3   7  -5 23.6085 32.6536   3
  -3   7  -5-1.15868 21.6299   2
  -3  -7  -5 11.0991 32.8523   2
  -3   7  -6 1683.45 68.8862   2
  -3   7  -6 1545.42 83.8293   3
   3   7   6 1557.19 100.534   2
   3  -7   7 25956.5 271.940   2
   3   7   7 25634.5 384.763   2
  -3  -7  -7 25677.8 242.942   1
  -3   7  -7 26333.2 263.341   2
  -3  -7  -8 1382.88 61.8146   1
   3  -7   8 1447.11 68.6824   2
   3   7   8 1228.49 99.7187   2
  -3   7  -8 1348.41 64.2983   2
   3   7   9 553.877 75.1678   2
  -3   7  -9 429.717 39.6554   2
   3  -7   9 443.226 44.2514   2
  -3  -7  -9 488.186 42.5531   1
   3   7  10 249.404 65.9106   2
  -3   7 -10 308.737 36.8364   2
   3  -7  10 244.436 34.9643   2
   3  -7  11 2728.80 99.1523   2
   3   7  11 2661.60 145.910   2
  -3   7 -11 2839.55 99.0238   2
   3  -7  12 96.3991 32.7905   2
  -3   7 -12 58.5712 24.3812   2
   3   7  12 58.7253 55.1072   2
  -3   7 -13 4304.62 126.593   2
   3  -7  13 4197.38 128.656   2
   3   7  13 4216.32 187.826   2
  -3   7 -14 4659.24 134.743   2
   3  -7  14 4626.69 139.556   2
   3   7  14 4563.22 200.623   2
  -3   7 -15 2497.18 102.389   2
   3  -7  15 2234.42 101.596   2
   3   7  15 2400.70 155.572   2
   3  -7  16 2799.59 117.063   2
   3   7  16 3018.89 175.128   2
   3  -7  17 16445.9 282.764   2
   3   7  17 16544.3 399.331   2
   3  -7  18 451.235 57.3890   2
   3   7  18 544.403 92.4625   2
   3  -7  19 3623.10 143.278   2
   3   7  19 3624.65 203.324   2
   3   7  20-27.4038 60.3071   2
   3  -7  20-29.8522 34.3941   2
   3   7  21 497.077 89.7447   2
   3   7  22 275.369 80.0218   2
   3   7  23 535.654 95.1199   2
   3   7  24 156.624 74.6630   2
   3   7  25 2029.05 171.191   2
   3   7  26 377.405 86.9682   2
   3   7  27 197.610 84.4451   2
  -3   8  28 500.663 105.029   2
  -3   8  27 1192.09 141.552   2
  -3   8  26 1752.80 163.863   2
  -3   8  25 1014.75 129.042   2
  -3   8  24 1218.99 138.054   2
  -3   8  23 1690.44 150.933   2
  -3   8  22 886.830 114.801   2
  -3   8  21 129.601 64.3929   2
  -3  -8  21 19.9726 30.4201   2
  -3  -8  20 2861.55 117.156   2
  -3   8  20 2854.08 181.600   2
  -3  -8  19 809.984 64.6639   2
  -3   8  19 561.720 91.1227   2
  -3  -8  18 5335.92 151.051   2
  -3   8  18 5686.46 235.370   2
  -3  -8  17 617.015 53.8358   2
  -3   8  17 515.187 94.6793   2
   3   8 -17 606.094 39.6230   3
  -3  -8  16 27.3215 25.6335   2
  -3   8  16 126.787 59.4337   2
   3   8 -16 23.3824 14.7560   3
  -3   8  15 3796.19 184.949   2
   3   8 -15 3610.67 79.6421   3
  -3  -8  15 3843.00 116.848   2
  -3   8  14 10907.7 295.793   2
   3   8 -14 9159.07 117.775   3
  -3   8  13 1966.34 136.096   2
  -3  -8  13 1955.47 79.1501   2
  -3   8  13 2214.13 133.391   3
  -3  -8  12 1907.96 75.9050   2
  -3   8  12 2055.61 126.696   2
  -3   8  12 2032.52 128.667   3
  -3   8  11 4798.70 187.638   3
  -3  -8  11 4888.74 115.364   2
  -3   8  11 4987.65 189.713   2
  -3   8  10 6380.40 207.105   2
  -3  -8  10 6700.42 131.492   2
  -3   8  10 7070.95 217.055   3
  -3   8   9 3864.97 159.510   3
  -3   8   9 3784.81 154.845   2
  -3  -8   9 3810.21 98.7119   2
  -3  -8   8 36526.7 300.516   2
  -3   8   8 35803.8 460.194   3
  -3  -8   7 15828.5 198.350   2
  -3  -8   7 14345.7 125.278   3
  -3   8   7 15470.1 295.663   3
  -3  -8   6 19909.9 225.693   2
  -3  -8   6 19481.2 162.028   3
  -3   8   6 20425.5 325.956   3
  -3  -8   5 360.768 36.7159   2
   3  -8  -5 313.433 49.3853   3
   3  -8  -5 376.493 51.5222   1
  -3   8   5 470.477 64.1952   3
   3   8  -5 328.644 38.9561   2
   3  -8  -4 12016.6 231.428   3
  -3   8   4 11580.5 237.067   3
   3   8  -4 11876.8 187.733   2
  -3  -8   4 11794.7 181.574   2
   3  -8  -4 12359.0 234.695   1
   3   8  -3 2362.87 92.1314   2
   3  -8  -3 2475.43 107.142   1
   3  -8  -3 2682.68 109.438   3
  -3  -8   3 2375.28 86.9398   2
  -3   8   3 2523.70 110.443   3
   3   8  -2 5451.62 138.291   2
  -3   8   2 5434.85 157.138   3
  -3  -8   2 5367.02 133.381   2
   3  -8  -2 5886.98 156.319   3
   3  -8  -2 5819.40 158.449   1
   3   8  -1 9561.77 188.276   2
   3  -8  -1 9745.97 203.808   1
  -3   8   1 9603.26 202.352   3
  -3  -8   1 9715.57 181.878   2
  -3   8   1 9887.22 214.384   1
   3  -8  -1 9945.05 198.154   3
   3   8   0 3849.95 126.051   2
   3  -8   0 3876.24 123.054   3
  -3   8   0 3976.64 138.255   1
  -3   8   0 3834.68 129.724   3
  -3  -8   0 3651.22 117.195   2
  -3   8  -1 2126.09 96.7190   3
  -3   8  -1 2015.62 102.633   1
  -3  -8  -1 2080.57 93.9704   2
   3  -8   1 2147.03 92.6853   3
   3   8   1 2036.17 97.9310   2
  -3   8  -2 11818.0 229.181   1
  -3  -8  -2 11855.7 222.832   2
  -3   8  -2 11885.2 217.493   3
   3   8   2 11805.1 180.245   1
   3   8   2 11189.6 226.077   2
  -3  -8  -3 1153.63 76.9157   2
  -3   8  -3 1085.54 72.9333   3
  -3   8  -3 928.978 74.5172   1
  -3   8  -3 1135.30 58.0631   2
   3   8   3 1037.10 79.2235   2
   3   8   3 1191.00 60.0400   1
  -3  -8  -4 9991.23 219.143   2
  -3   8  -4 9405.11 191.739   3
  -3   8  -4 9356.78 156.839   2
   3   8   4 9476.12 220.402   2
  -3   8  -5 2608.59 104.050   3
  -3   8  -5 2539.41 82.0190   2
   3   8   5 2482.34 123.021   2
  -3   8  -6 209.372 30.7675   2
   3   8   6 196.960 48.3170   2
  -3   8  -6 190.245 36.6334   3
   3   8   7 30.2646 47.2420   2
  -3   8  -7 1.22718 19.3647   2
  -3  -8  -7-38.6802 26.4540   1
  -3   8  -7 1.10126 34.1126   3
  -3   8  -8 289.659 33.2546   2
  -3  -8  -8 223.720 32.5621   1
   3   8   8 200.651 60.6709   2
  -3  -8  -9 2296.30 85.8561   1
   3  -8   9 2279.90 83.5309   2
   3   8   9 2098.10 128.381   2
  -3   8  -9 2430.06 84.1120   2
  -3   8 -10 1138.61 59.8587   2
   3   8  10 1063.65 97.8100   2
  -3  -8 -10 1152.06 64.8651   1
   3  -8  10 1155.73 62.7642   2
  -3   8 -11 2971.10 95.9253   2
   3   8  11 2570.62 145.900   2
  -3  -8 -11 2821.72 99.9707   1
   3  -8  11 2764.11 95.5676   2
  -3   8 -12 1828.63 79.5690   2
   3   8  12 1791.02 130.411   2
   3  -8  12 1869.18 81.6358   2
  -3   8 -13 0.83127 21.3730   2
   3  -8  13 7.29247 24.1955   2
   3   8  13 12.6749 49.1149   2
   3  -8  14 519.828 50.1990   2
   3   8  14 368.775 73.2069   2
  -3   8 -14 501.851 46.5494   2
  -3   8 -15 1379.10 72.4024   2
   3   8  15 1086.23 111.121   2
   3  -8  15 1298.86 76.6382   2
   3  -8  16 1430.59 81.5804   2
   3   8  16 1290.92 123.482   2
   3  -8  17 2235.57 102.412   2
   3   8  17 2143.87 156.110   2
   3  -8  18 38.5134 30.5552   2
   3   8  18 54.2090 58.2309   2
   3  -8  19 260.302 42.7905   2
   3   8  19 165.960 68.0694   2
   3   8  20 77.4039 62.4771   2
   3   8  21 1431.23 140.273   2
   3   8  22 950.674 119.708   2
   3   8  23 194.991 75.8705   2
   3   8  24 855.262 128.495   2
   3   8  25 196.362 78.0357   2
   3   8  26 4.83154 66.1569   2
  -3   9  28 2538.02 202.745   2
  -3   9  27 2.37160 68.8184   2
  -3   9  26 92.5770 71.3999   2
  -3   9  25 16.0941 70.8442   2
  -3   9  24 6207.32 284.853   2
  -3   9  23-2.54997 66.1624   2
  -3   9  22 4918.63 245.341   2
  -3   9  21 956.854 122.698   2
  -3   9  20 3295.93 195.857   2
  -3   9  19-198.554 74.0126   2
  -3  -9  19-32.6236 26.0486   2
  -3   9  18 4288.61 214.491   2
  -3  -9  18 4375.80 127.238   2
  -3  -9  17 41.3085 25.4872   2
  -3   9  17 62.2547 65.0448   2
  -3  -9  16 12441.5 200.353   2
  -3   9  16 12657.3 341.933   2
  -3   9  15 327.898 79.4113   2
  -3  -9  15 457.798 41.5565   2
  -3  -9  15 440.594 40.5528   2
  -3  -9  14 1821.79 75.1476   2
  -3   9  14 1733.25 128.715   2
  -3  -9  14 1719.57 71.6136   2
  -3   9  13 471.714 78.8334   3
  -3   9  13 488.667 78.3398   2
  -3  -9  13 475.977 39.0358   2
  -3   9  12 3674.59 170.544   3
  -3  -9  12 3393.25 94.4628   2
  -3   9  12 3250.84 173.058   2
  -3  -9  11 85.9688 22.8428   2
  -3   9  11 165.480 61.0798   3
  -3   9  11 51.5543 52.1336   2
  -3   9  10 15826.2 330.934   3
  -3  -9  10 15945.3 195.718   2
  -3   9  10 15756.6 325.912   2
  -3   9   9 464.861 71.9824   2
  -3   9   9 499.294 73.5277   3
  -3  -9   9 438.544 36.0968   2
  -3  -9   8 43.3982 21.1858   2
  -3   9   8 93.2576 51.1332   2
  -3   9   8 40.9612 48.8454   3
  -3  -9   7 1063.84 32.7267   3
  -3   9   7 1093.52 90.9092   3
  -3  -9   7 1231.73 57.5856   2
  -3   9   6 23347.5 359.741   3
  -3  -9   6 23222.3 244.010   2
  -3  -9   5 394.557 39.1413   2
   3   9  -5 372.120 40.8659   2
  -3   9   5 403.006 63.5317   3
  -3  -9   4 12631.5 191.887   2
   3  -9  -4 12556.7 243.987   3
   3   9  -4 12320.3 196.471   2
  -3   9   4 12754.2 254.520   3
   3  -9  -3 457.662 55.3410   3
   3   9  -3 421.702 44.3300   2
  -3   9   3 440.837 60.5248   3
  -3  -9   3 440.626 44.1176   2
   3   9  -2 852.232 61.0413   2
  -3  -9   2 842.647 58.0084   2
  -3   9   2 869.882 71.4290   3
   3  -9  -2 896.411 68.2317   3
   3  -9  -2 872.594 70.5024   1
   3   9  -1 11416.1 209.980   2
  -3  -9   1 11426.3 202.548   2
  -3   9   1 11421.2 228.283   3
   3  -9  -1 11533.5 219.109   3
  -3   9   1 11086.8 234.444   1
   3  -9   0 2067.87 93.7668   3
  -3  -9   0 1909.84 90.2599   2
  -3   9   0 2025.65 97.4690   3
  -3   9   0 2020.92 109.094   1
   3   9   0 1916.75 95.8204   2
  -3   9  -1 5253.70 151.200   3
  -3  -9  -1 5386.14 150.721   2
   3   9   1 5090.34 154.180   2
   3  -9   1 5602.63 149.486   3
  -3   9  -1 5437.56 167.372   1
  -3  -9  -2 2351.24 105.800   2
  -3   9  -2 2066.70 97.0173   3
  -3   9  -2 2082.83 109.071   1
   3  -9   2 2392.35 97.6384   3
   3   9   2 2070.35 84.8682   1
   3   9   2 2164.98 107.020   2
  -3   9  -3 6815.13 137.563   2
  -3  -9  -3 6653.61 179.031   2
  -3   9  -3 6728.56 184.970   1
  -3   9  -3 6615.19 164.702   3
   3   9   3 6612.32 185.187   2
   3   9   3 6732.27 145.659   1
   3   9   4 2651.77 93.2684   1
  -3   9  -4 2592.72 105.312   3
  -3   9  -4 2541.31 83.3111   2
   3   9   4 2558.38 123.446   2
  -3   9  -4 2493.62 119.272   1
  -3   9  -5 1272.74 59.3213   2
   3   9   5 1210.07 91.5898   2
  -3   9  -5 1334.17 77.6443   3
  -3   9  -6 3578.83 95.2735   2
  -3   9  -6 3568.71 122.216   3
   3   9   6 3312.72 146.212   2
  -3   9  -7 1000.14 51.8820   2
   3   9   7 953.362 89.7592   2
  -3   9  -7 956.803 67.7338   3
   3   9   8 5154.97 190.803   2
  -3  -9  -8 4993.82 127.383   1
  -3   9  -8 5280.99 115.604   2
  -3   9  -8 5274.24 150.613   3
  -3   9  -9-24.9862 39.8799   3
  -3  -9  -9-24.0296 27.7092   1
  -3   9  -9 23.1234 19.3480   2
   3   9   9-30.9137 47.4155   2
  -3   9 -10 15.0413 19.5609   2
   3   9  10-14.3973 46.1717   2
  -3  -9 -10 5.10039 25.0994   1
   3  -9  11 431.238 41.5335   2
  -3   9 -11 374.807 36.4785   2
  -3  -9 -11 390.176 46.6045   1
   3   9  11 370.429 75.2016   2
  -3  -9 -12 39.2920 29.3776   1
   3  -9  12 14.5153 23.3045   2
  -3   9 -12 36.1549 21.5946   2
   3   9  12 9.92871 47.8673   2
   3  -9  13 74.1356 26.4840   2
  -3   9 -13 26.3098 20.8679   2
  -3  -9 -13 68.4499 33.3353   1
   3   9  13-31.2018 53.8343   2
  -3   9 -14 4297.65 117.357   2
   3  -9  14 4239.08 121.227   2
   3   9  14 4217.11 201.595   2
  -3   9 -15 3285.23 103.266   2
   3   9  15 2943.88 175.595   2
   3  -9  15 2932.92 104.561   2
   3   9  16 324.543 76.8661   2
   3  -9  16 362.911 42.8510   2
   3  -9  17 380.181 46.6090   2
   3   9  17 386.017 80.8498   2
   3   9  18 4665.43 231.127   2
   3  -9  18 4857.34 147.696   2
   3   9  19 340.412 85.7241   2
   3   9  20 993.325 120.440   2
   3   9  21 298.346 83.3973   2
   3   9  22 953.676 126.436   2
   3   9  23 162.750 77.9534   2
   3   9  24 628.838 110.477   2
   3   9  25 24.0503 65.8142   2
   3   9  26 311.206 90.4888   2
  -3  10  27 206.638 84.2801   2
  -3  10  26 1182.62 137.842   2
  -3  10  25 1225.83 140.712   2
  -3  10  24 340.613 91.9124   2
  -3  10  23 151.830 69.4762   2
  -3  10  22 1574.43 154.240   2
  -3  10  21 4025.96 222.031   2
  -3  10  20 8391.90 310.060   2
  -3  10  19 2340.02 168.224   2
  -3  10  18 4736.61 226.548   2
  -3 -10  18 4832.36 124.625   2
  -3 -10  17 286.850 35.6682   2
  -3  10  17 181.456 76.0461   2
  -3 -10  16 1702.20 71.3447   2
  -3  10  16 1699.47 135.455   2
  -3  10  15 1290.54 126.391   2
  -3 -10  15 1408.44 61.8941   2
  -3 -10  15 1530.70 65.3146   2
  -3  10  14 7882.44 265.783   2
  -3 -10  14 7719.20 138.316   2
  -3 -10  14 7857.80 140.551   2
  -3  10  13 4807.29 203.478   2
  -3 -10  13 4875.81 108.557   2
  -3  10  12 94.9508 53.0600   3
  -3 -10  12 68.6211 18.5932   2
  -3  10  12 96.7814 56.1095   2
  -3  10  11 56.8153 53.3355   2
  -3  10  11 80.1189 51.7833   3
  -3 -10  11 59.2344 19.2714   2
  -3 -10  10 13716.1 177.314   2
  -3  10  10 13883.2 310.057   2
  -3  10  10 13745.4 313.647   3
  -3  10   9 17451.5 346.176   3
  -3 -10   9 16711.0 196.342   2
  -3  10   9 16702.6 336.428   2
  -3  10   8 7615.47 228.620   3
  -3 -10   8 7791.57 136.636   2
  -3  10   8 7776.42 225.251   2
  -3  10   7 16778.3 324.824   3
  -3  10   7 15620.7 313.666   2
  -3 -10   7 16398.4 202.133   2
   3  10  -6 512.497 42.7928   2
  -3 -10   6 442.137 38.2344   2
  -3  10   6 511.770 68.7962   3
  -3 -10   5 606.989 44.9275   2
  -3  10   5 599.947 68.9642   3
   3  10  -5 631.692 49.6815   2
  -3 -10   4 2161.08 83.9768   2
  -3  10   4 1920.06 108.777   3
   3  10  -4 2173.21 86.3031   2
   3  10  -3 623.772 54.4577   2
   3 -10  -3 583.884 61.2626   3
  -3  10   3 543.353 64.8545   3
  -3 -10   3 550.421 47.3920   2
   3  10  -2 2779.76 106.085   2
   3 -10  -2 3002.71 118.683   3
  -3 -10   2 2941.02 102.757   2
  -3  10   2 2864.84 122.725   3
  -3  10   1 454.375 67.7073   1
  -3  10   1 443.893 58.2152   3
   3  10  -1 439.921 54.2414   2
   3 -10  -1 459.188 51.6574   3
  -3 -10   1 411.022 44.9145   2
  -3  10   0 2114.80 115.525   1
  -3 -10   0 2096.07 94.9438   2
   3 -10   0 2016.92 95.3785   3
  -3  10   0 2034.82 103.286   3
   3  10   0 2026.64 98.8162   2
  -3  10  -1 2628.78 125.374   1
   3  10   1 2718.17 104.155   1
   3 -10   1 2885.04 112.277   3
  -3  10  -1 2727.15 114.104   3
  -3 -10  -1 2775.39 112.085   2
   3  10   1 2749.81 117.449   2
   3 -10   2 829.623 61.1346   3
  -3 -10  -2 793.565 67.6795   2
  -3  10  -2 826.736 67.7403   3
   3  10   2 685.605 56.4905   1
  -3  10  -2 898.129 80.2400   1
   3  10   2 708.222 70.1325   2
  -3  10  -3 4788.51 118.793   2
  -3  10  -3 4690.12 168.275   1
  -3  10  -3 4684.69 145.117   3
   3  10   3 5103.40 166.877   2
   3  10   3 4829.14 133.289   1
  -3  10  -4 18533.6 322.789   1
  -3  10  -4 18773.3 225.207   2
  -3  10  -4 18283.5 279.216   3
   3  10   4 18745.2 254.937   1
   3  10   4 18396.9 319.436   2
  -3  10  -5 302.655 46.3217   3
  -3  10  -5 235.560 31.0664   2
   3  10   5 327.491 62.3290   2
  -3  10  -6 113.329 37.2891   3
  -3  10  -6 83.3164 21.7820   2
   3  10   6 161.010 52.7021   2
  -3  10  -7 888.597 66.8475   3
   3  10   7 879.936 88.7126   2
  -3  10  -7 827.380 47.1692   2
  -3  10  -8 237.244 41.4694   3
  -3  10  -8 311.167 31.1348   2
   3  10   8 202.904 57.5899   2
  -3 -10  -9 551.705 50.8315   1
  -3  10  -9 584.939 54.5139   3
  -3  10  -9 671.395 43.0522   2
   3  10   9 608.344 78.2607   2
  -3 -10 -10 19.8265 26.0092   1
  -3  10 -10-14.4540 31.5795   3
  -3  10 -10 9.77814 17.7611   2
   3  10  10 32.5639 51.0512   2
  -3  10 -11 368.263 33.6278   2
   3  10  11 381.815 73.5111   2
  -3 -10 -11 381.908 46.6215   1
  -3  10 -11 302.736 44.9330   3
  -3  10 -12 504.756 38.8153   2
  -3 -10 -12 459.092 50.7854   1
   3  10  12 443.254 80.8412   2
  -3  10 -13 11.0395 19.8937   2
  -3 -10 -13 73.5698 37.1385   1
   3  10  13-23.7322 54.3667   2
  -3  10 -14 36.7494 21.8910   2
   3 -10  14 3.44735 21.5069   2
   3  10  14 72.3919 63.1340   2
   3 -10  15 215.727 33.1409   2
   3  10  15 187.742 71.7915   2
   3  10  16 1924.45 149.459   2
   3 -10  16 1914.44 82.1363   2
   3  10  17 276.415 75.6079   2
   3  10  18 84.5859 68.4037   2
   3  10  19 1014.71 124.003   2
   3  10  20 87.3188 74.1431   2
   3  10  21 159.032 72.1895   2
   3  10  22 851.141 119.908   2
   3  10  23 200.816 84.9449   2
   3  10  24 106.316 82.3291   2
   3  10  25 193.897 89.3022   2
  -3  11  26 126.177 74.3625   2
  -3  11  25 272.917 93.9035   2
  -3  11  24 454.034 100.559   2
  -3  11  23 3215.42 208.325   2
  -3  11  22 1268.26 139.803   2
  -3  11  21 4314.71 235.387   2
  -3  11  20 950.664 120.189   2
  -3  11  19 22.7512 62.2924   2
  -3  11  18 65.9836 56.6863   2
  -3  11  17 6192.35 261.172   2
  -3  11  16 2026.57 151.677   2
  -3 -11  16 2022.07 69.6176   2
  -3 -11  15 5480.02 109.104   2
  -3  11  15 5217.33 228.365   2
  -3  11  14 1089.36 118.149   2
  -3 -11  14 1216.90 52.0654   2
  -3 -11  14 1328.68 53.9067   2
  -3 -11  13 8655.93 133.461   2
  -3  11  13 9131.42 285.297   2
  -3  11  12 3009.72 165.264   3
  -3  11  12 3147.52 165.025   2
  -3 -11  12 2986.64 78.9272   2
  -3  11  11 9645.14 278.574   3
  -3  11  11 8980.90 268.237   2
  -3 -11  11 9285.13 139.251   2
  -3  11  10 79.3660 49.2235   2
  -3  11  10 76.2713 53.0873   3
  -3 -11  10 86.6780 18.7632   2
  -3 -11   9 3842.20 93.2751   2
  -3  11   9 3804.34 171.474   3
  -3  11   9 3646.30 165.632   2
  -3  11   8 4989.13 188.626   3
  -3 -11   8 4934.01 108.527   2
  -3  11   8 5085.82 185.653   2
  -3  11   7 1431.51 101.365   2
  -3  11   7 1458.94 110.032   3
  -3 -11   7 1494.03 63.1480   2
   3  11  -6 1178.24 61.9922   2
  -3 -11   6 1073.20 57.0747   2
  -3  11   6 1264.47 99.2763   3
  -3  11   6 1247.19 94.8506   2
  -3 -11   5 30983.9 302.185   2
   3  11  -5 31193.1 308.471   2
  -3  11   5 30758.8 432.832   3
  -3  11   5 29882.8 409.813   2
   3  11  -4 564.646 49.7956   2
  -3 -11   4 628.284 51.0584   2
  -3  11   4 669.794 71.7262   3
   3  11  -3 504.936 52.6489   2
  -3 -11   3 540.413 48.6720   2
  -3  11   3 553.472 66.0835   3
   3  11  -2 2732.94 105.924   2
  -3 -11   2 2721.41 102.678   2
  -3  11   2 2633.49 130.934   1
  -3  11   2 2630.84 119.625   3
  -3  11   1 21.8084 45.8248   1
  -3 -11   1 47.8909 27.7274   2
   3  11  -1 87.2764 36.0503   2
   3 -11  -1 68.5968 32.1775   3
  -3  11   1 84.8533 35.8650   3
  -3  11   0 69.0031 52.0573   1
  -3 -11   0-19.5099 29.3040   2
  -3  11   0 44.9337 35.8882   3
   3 -11   0-8.57238 27.8054   3
   3  11   0 33.5597 35.7486   2
  -3  11  -1 2355.75 109.434   3
  -3  11  -1 2435.86 126.130   1
  -3 -11  -1 2362.51 108.572   2
   3 -11   1 2447.05 105.790   3
   3  11   1 2478.62 106.282   1
   3  11   1 2507.64 113.127   2
  -3  11  -2 2105.36 118.786   1
  -3  11  -2 1967.37 99.3551   3
   3 -11   2 2205.75 98.4182   3
   3  11   2 2043.87 107.781   2
   3  11   2 1842.99 91.4415   1
  -3  11  -3 5272.09 182.031   1
  -3  11  -3 5346.81 156.296   3
   3  11   3 5337.98 148.677   1
   3  11   3 5168.26 172.479   2
  -3  11  -4 1381.43 100.212   1
  -3  11  -4 1366.11 82.4117   3
   3  11   4 1569.95 85.8634   1
   3  11   4 1500.59 100.610   2
  -3  11  -4 1477.54 66.4365   2
  -3  11  -5 10712.0 216.093   3
  -3  11  -5 10735.0 168.113   2
   3  11   5 10529.1 256.745   2
  -3  11  -6 3389.29 91.6469   2
  -3  11  -6 3304.03 122.340   3
   3  11   6 3358.52 155.512   2
   3  11   7 11101.5 282.106   2
  -3  11  -7 11325.5 162.834   2
  -3  11  -7 11332.3 221.128   3
  -3  11  -8 5175.37 151.144   3
  -3  11  -8 5492.02 110.452   2
   3  11   8 4977.50 197.603   2
  -3  11  -9 2368.56 104.956   3
   3  11   9 2147.44 137.849   2
  -3  11  -9 2376.10 73.7124   2
  -3 -11 -10 1.62394 29.5163   1
  -3  11 -10 8.99553 28.9517   3
  -3  11 -10 5.81594 15.0104   2
   3  11  10 32.1253 56.5447   2
  -3  11 -11 1405.76 56.2087   2
  -3  11 -11 1287.88 79.2051   3
  -3 -11 -11 1323.02 77.1194   1
   3  11  11 1313.67 116.091   2
  -3  11 -12 92.6676 20.1423   2
  -3  11 -12 103.068 36.3996   3
   3  11  12 77.1955 51.6296   2
  -3  11 -13 45.5400 17.8012   2
  -3  11 -13 67.6319 32.0542   3
   3  11  13-13.7725 58.1258   2
  -3  11 -14 79.2214 30.1659   3
   3  11  14 95.6145 64.7963   2
   3  11  15-7.87674 58.1222   2
   3  11  16 605.047 99.5483   2
   3  11  17 569.284 96.6171   2
   3  11  18 75.0593 68.1771   2
   3  11  19 3517.52 213.402   2
   3  11  20 374.446 98.4078   2
   3  11  21 1312.50 142.149   2
   3  11  22 171.781 80.1790   2
   3  11  23 454.689 100.790   2
   3  11  24-44.8862 69.5639   2
  -3  12  26 284.757 96.2277   2
  -3  12  25 1162.79 137.213   2
  -3  12  24 131.955 76.3239   2
  -3  12  23 142.324 79.3166   2
  -3  12  22 474.870 97.3306   2
  -3  12  21 387.380 91.1908   2
  -3  12  20 1459.99 144.291   2
  -3  12  19 3958.66 219.444   2
  -3  12  18 235.189 74.0373   2
  -3  12  17 1076.62 121.330   2
  -3  12  16 429.996 85.7544   2
  -3 -12  15 12766.2 144.233   2
  -3  12  15 14542.9 374.719   2
  -3 -12  14-3.57628 11.3576   2
  -3  12  14-13.7591 54.2398   2
  -3  12  13 10258.9 317.445   2
  -3 -12  13 10276.1 127.575   2
  -3 -12  13 10891.8 132.746   2
  -3  12  12 47.5067 61.2746   2
  -3 -12  12 36.7115 11.7623   2
  -3  12  11 100.707 58.3689   2
  -3 -12  11 26.7140 12.9769   2
  -3  12  11-68.0836 55.8492   3
  -3  12  10 4176.10 189.623   3
  -3 -12  10 4061.63 89.8134   2
  -3  12  10 4166.28 182.748   2
  -3  12   9 7372.16 232.554   2
  -3 -12   9 6526.94 118.458   2
  -3  12   9 6484.56 225.373   3
  -3 -12   8 1433.02 59.5444   2
  -3  12   8 1429.35 112.813   3
  -3  12   8 1634.70 114.549   2
  -3 -12   7 11663.3 172.543   2
  -3  12   7 11619.7 286.824   3
  -3  12   7 11221.3 272.456   2
  -3 -12   6 1485.23 47.5854   3
  -3 -12   6 1607.20 69.3992   2
  -3  12   6 1659.95 109.066   2
  -3  12   6 1646.40 112.643   3
   3  12  -6 1609.77 70.8171   2
  -3  12   5 194.652 53.2432   2
  -3  12   5 174.868 56.4094   3
   3  12  -5 145.109 31.7170   2
  -3 -12   5 115.511 28.3858   2
  -3 -12   5 110.995 20.6068   3
  -3 -12   4 3210.54 105.042   2
  -3  12   4 3446.65 146.699   3
   3  12  -4 3292.58 109.386   2
  -3  12   4 3471.83 141.088   2
  -3  12   3 6196.53 180.999   2
   3  12  -3 6505.19 158.236   2
  -3 -12   3 6320.48 152.511   2
  -3  12   3 6453.21 194.874   3
   3  12  -2 58.5710 29.8694   2
  -3 -12   2 50.0750 28.8520   2
  -3  12   2 84.6936 50.6881   1
  -3  12   2 53.0313 38.4865   3
  -3  12   1 8.17535 48.4940   1
   3  12  -1-11.2423 34.5996   2
  -3 -12   1 34.9991 26.6398   2
  -3  12   1 34.6759 43.4209   3
  -3  12   0 6611.94 188.443   3
  -3 -12   0 6947.69 179.102   2
  -3  12   0 6506.29 206.644   1
   3  12   0 6866.16 183.362   2
  -3  12  -1 1572.70 113.133   1
   3  12   1 1429.85 86.8533   1
  -3 -12  -1 1510.47 87.3893   2
   3 -12   1 1556.91 88.8614   3
  -3  12  -1 1546.16 92.4898   3
   3  12   1 1399.92 91.4889   2
  -3  12  -2 4714.90 177.050   1
  -3  12  -2 4487.55 151.017   3
   3  12   2 4551.10 148.704   1
   3 -12   2 4861.86 147.199   3
   3  12   2 4626.04 160.513   2
   3  12   3 2480.91 125.762   2
   3  12   3 2771.80 116.810   1
  -3  12  -3 2712.93 116.725   3
  -3  12  -3 2658.32 138.248   1
   3  12   4 4274.69 140.673   1
  -3  12  -4 4108.41 109.902   2
  -3  12  -4 4259.99 141.624   3
  -3  12  -4 4193.79 171.077   1
   3  12   4 3988.38 164.124   2
  -3  12  -5 13274.0 186.991   2
   3  12   5 12927.0 289.800   2
  -3  12  -5 12773.5 239.339   3
  -3  12  -5 13061.4 297.766   1
  -3  12  -6 7320.86 132.823   2
  -3  12  -6 7364.29 182.565   3
   3  12   6 7046.82 226.141   2
  -3  12  -7 115.233 23.5534   2
   3  12   7 98.2154 58.3645   2
  -3  12  -7 102.164 34.3131   3
   3  12   8 23.3498 47.8498   2
  -3  12  -8 123.707 37.2807   3
  -3  12  -8 95.3835 18.8531   2
  -3  12  -9 2156.11 101.902   3
   3  12   9 2166.20 138.948   2
  -3  12  -9 2075.56 66.2430   2
  -3  12 -10 2953.53 74.8156   2
   3  12  10 3111.15 168.353   2
  -3  12 -10 3258.35 122.547   3
  -3  12 -11 937.986 69.0152   3
  -3  12 -11 853.319 40.2656   2
   3  12  11 775.823 94.5835   2
  -3  12 -12 10.3126 12.0581   2
  -3  12 -12-23.7150 29.9454   3
   3  12  12-6.24785 57.2651   2
   3  12  13 1152.92 116.643   2
  -3  12 -13 966.163 71.5952   3
  -3  12 -14 1043.09 75.3069   3
   3  12  14 832.140 106.295   2
  -3  12 -15 365.508 49.9194   3
   3  12  15 378.161 86.8329   2
   3  12  16 348.905 80.2475   2
  -3  12 -16 444.881 56.8405   3
  -3  12 -17 110.369 38.6805   3
   3  12  17 302.897 82.7921   2
   3  12  18 21.2982 66.3706   2
   3  12  19 97.2869 70.4261   2
   3  12  20 156.904 77.9228   2
   3  12  21 1840.51 169.165   2
   3  12  22 3638.15 228.315   2
   3  12  23-45.0858 68.3622   2
   3  12  24 550.168 109.015   2
  -3  13  25 158.917 77.5901   2
  -3  13  24 1311.87 151.086   2
  -3  13  23 351.603 89.7712   2
  -3  13  22 4351.81 242.809   2
  -3  13  21 712.842 112.058   2
  -3  13  20 19.6075 65.3505   2
  -3  13  19-160.559 74.2292   2
  -3  13  18 381.754 89.2315   2
  -3  13  17 1437.07 135.317   2
  -3  13  16-35.0792 55.5168   2
  -3  13  15 979.164 122.968   2
  -3  13  14 671.092 98.7234   2
  -3  13  13 161.592 66.6212   2
  -3  13  12 1403.79 122.901   2
  -3 -13  12 1190.69 40.8716   2
  -3  13  11 1059.22 112.242   2
  -3 -13  11 1062.59 42.6644   2
  -3  13  11 1273.82 115.732   3
  -3  13  10 18991.9 391.340   2
  -3 -13  10 18005.2 181.448   2
  -3  13  10 19123.0 398.967   3
  -3  13   9 122.268 56.6544   3
  -3  13   9 74.5122 54.3823   2
  -3 -13   9 60.7454 18.7824   2
  -3  13   8 146.933 55.6814   2
  -3 -13   8 90.9714 21.7980   2
  -3  13   8 27.4600 49.4118   3
  -3  13   7 3720.26 167.243   3
  -3 -13   7 3576.75 97.6194   2
  -3  13   7 3337.91 161.338   2
  -3  13   6 4496.67 179.121   3
  -3 -13   6 4318.11 112.327   2
  -3 -13   6 3970.47 78.4383   3
   3  13  -6 4415.95 116.060   2
  -3  13   6 4317.90 168.286   2
   3  13  -5 2740.05 96.8119   2
  -3 -13   5 2791.46 95.2881   2
  -3  13   5 2868.02 142.042   3
  -3 -13   5 2747.95 77.3980   3
  -3  13   5 2798.92 133.594   2
  -3 -13   4 3961.83 119.225   2
   3  13  -4 4004.15 122.104   2
  -3  13   4 4117.69 168.534   3
  -3 -13   4 4090.24 103.618   3
  -3  13   4 4256.74 158.244   2
  -3  13   3 26.4510 38.7581   2
  -3 -13   3 24.8368 24.2720   2
   3  13  -3-8.65627 28.3353   2
  -3  13   3 73.8099 48.0835   3
  -3 -13   3 14.0285 21.1645   3
   3  13  -2 6062.90 162.726   2
  -3  13   2 5958.30 188.266   3
  -3  13   2 5751.96 204.703   1
  -3  13   2 5456.41 171.893   2
  -3 -13   2 5753.08 154.533   2
  -3 -13   1 3354.61 121.815   2
  -3  13   1 3397.42 141.390   3
  -3  13   1 3456.60 159.186   1
  -3  13   1 3476.87 129.292   2
   3  13  -1 3292.99 125.973   2
   3  13   0 144.687 48.1154   2
  -3  13   0 109.063 55.7633   1
  -3 -13   0 104.043 32.0219   2
   3  13   0 25.6674 45.7251   1
  -3  13   0 178.813 47.4828   3
  -3  13  -1 4748.88 185.979   1
   3  13   1 4589.40 158.033   1
  -3  13  -1 4426.00 154.915   3
   3  13   1 4383.51 156.864   2
   3 -13   2 9331.40 205.650   3
  -3  13  -2 8758.26 251.009   1
   3  13   2 8516.99 210.659   1
   3  13   2 8762.29 226.608   2
  -3  13  -2 8823.61 212.545   3
   3  13   3 1974.89 107.493   1
   3  13   3 1928.58 115.715   2
   3 -13   3 2039.39 97.1714   3
  -3  13  -3 2000.39 101.991   3
  -3  13  -3 2209.00 133.591   1
  -3  13  -4 1211.25 62.5448   2
  -3  13  -4 1139.04 103.045   1
  -3  13  -4 1167.06 80.2090   3
   3  13   4 1080.57 92.6157   2
   3  13   4 1252.97 85.7572   1
  -3  13  -5 109.101 54.8787   1
  -3  13  -5 100.312 34.2323   3
  -3  13  -5 82.8429 23.2817   2
   3  13   5 78.6804 51.3367   2
  -3  13  -6 2390.47 76.8236   2
   3  13   6 2377.34 138.192   2
  -3  13  -6 2245.05 103.499   3
   3  13   7 946.828 96.4673   2
  -3  13  -7 898.536 46.7275   2
  -3  13  -7 898.253 67.5038   3
   3  13   8 1041.32 102.225   2
  -3  13  -8 1035.47 73.5696   3
  -3  13  -8 1010.09 44.8519   2
  -3  13  -9 5090.58 94.9977   2
   3  13   9 5455.33 217.470   2
  -3  13  -9 5500.59 158.122   3
  -3  13 -10 5357.76 156.510   3
  -3  13 -10 4946.92 86.2324   2
   3  13  10 5376.42 222.290   2
  -3  13 -11 82.3603 36.2081   3
   3  13  11-24.9744 60.4147   2
   3  13  12 3999.19 203.626   2
  -3  13 -12 4007.31 137.700   3
  -3  13 -13 277.533 45.1699   3
   3  13  13 282.966 74.2074   2
  -3  13 -14 1428.88 86.1214   3
   3  13  14 1313.34 127.786   2
  -3  13 -15 1323.76 84.1231   3
   3  13  15 1256.74 130.806   2
   3  13  16 1666.50 144.116   2
  -3  13 -16 1734.59 98.1780   3
   3  13  17 1542.55 146.728   2
   3  13  18 5499.54 263.478   2
   3  13  19 61.5542 73.8654   2
   3  13  20 4270.11 244.161   2
   3  13  21 426.119 103.067   2
   3  13  22 188.404 93.0165   2
   3  13  23 208.396 91.7841   2
  -3  14  24-238.674 96.8736   2
  -3  14  23 1787.55 172.470   2
  -3  14  22 737.537 116.848   2
  -3  14  21-31.3130 59.0795   2
  -3  14  20 39.9059 63.9812   2
  -3  14  19 89.1805 64.0726   2
  -3  14  18 2270.65 172.317   2
  -3  14  17-4.68311 65.8843   2
  -3  14  16 1371.16 131.769   2
  -3  14  15 1096.28 118.650   2
  -3  14  14 4625.00 219.189   2
  -3  14  13 57.1831 60.4835   2
  -3  14  12 2129.21 158.234   2
  -3  14  11 1547.43 133.620   2
  -3  14  10 0.78142 53.5284   2
  -3 -14  10 55.0097 13.8665   2
  -3  14  10 74.8572 54.6594   3
  -3  14   9 4250.79 195.568   2
  -3 -14   9 4441.81 93.3981   2
  -3  14   9 4732.83 200.513   3
  -3 -14   8 9319.59 145.500   2
  -3  14   8 9366.95 277.500   3
  -3  14   8 8962.98 267.635   2
  -3  14   7 1140.67 106.248   2
   3  14  -7 1263.59 61.2099   2
  -3 -14   7 1214.57 58.3594   2
  -3  14   7 1248.61 107.566   3
  -3  14   6 11506.3 279.163   2
  -3 -14   6 11279.8 182.864   2
  -3 -14   6 10883.9 131.275   3
   3  14  -6 11760.3 191.037   2
  -3  14   6 11665.0 293.138   3
  -3 -14   5 2087.66 84.7866   2
  -3  14   5 2245.51 129.316   3
   3  14  -5 2267.54 90.7265   2
  -3  14   5 2304.92 125.146   2
  -3 -14   5 2128.13 69.9065   3
  -3  14   4 195.631 54.6941   2
   3  14  -4 240.477 39.5383   2
  -3 -14   4 203.855 33.5951   2
  -3  14   4 205.595 57.0131   3
  -3 -14   4 197.409 30.2324   3
   3  14  -3 883.957 65.7579   2
  -3 -14   3 789.118 59.4951   2
  -3 -14   3 893.717 57.0679   3
  -3  14   3 971.048 89.4043   3
  -3  14   3 962.964 81.0890   2
   3  14  -2 4031.19 138.018   2
  -3 -14   2 3983.53 120.905   3
  -3 -14   2 3816.72 127.374   2
  -3  14   2 3987.46 179.100   1
  -3  14   2 3992.67 162.178   3
  -3  14   2 3922.73 145.090   2
  -3 -14   1 2694.49 111.570   2
  -3  14   1 2854.32 155.430   1
  -3  14   1 2920.90 134.939   3
  -3 -14   1 2701.94 104.628   3
  -3  14   1 2788.30 121.674   2
   3  14  -1 2798.21 121.107   2
   3  14   0 1688.92 105.453   1
  -3  14   0 1622.35 102.251   3
  -3  14   0 1693.50 124.022   1
   3  14   0 1613.41 98.0227   2
  -3  14   0 1577.54 92.0359   2
  -3  14  -1 1452.94 116.353   1
  -3  14  -1 1726.99 104.150   3
   3  14   1 1429.47 97.1380   1
   3  14   1 1685.13 102.948   2
  -3  14  -1 1589.68 86.2590   2
   3  14   2 1923.43 110.289   1
  -3  14  -2 1911.81 127.274   1
  -3  14  -2 1875.10 104.131   3
  -3  14  -2 2054.23 92.6779   2
   3  14   2 1876.55 113.693   2
  -3  14  -3 141.398 32.9584   2
  -3  14  -3 163.907 42.1484   3
   3  14   3 149.230 53.5891   1
   3  14   3 20.7843 43.4962   2
  -3  14  -3 64.5213 55.7039   1
  -3  14  -4 9715.87 170.974   2
  -3  14  -4 9811.05 278.860   1
  -3  14  -4 9613.50 219.966   3
   3  14   4 10134.0 234.680   1
   3  14   4 9574.02 254.642   2
  -3  14  -5 8220.97 255.261   1
   3  14   5 8128.83 243.386   2
  -3  14  -5 8108.40 201.454   3
  -3  14  -5 8600.77 151.555   2
  -3  14  -6 5223.13 208.443   1
  -3  14  -6 5378.97 112.701   2
  -3  14  -6 5228.32 158.823   3
   3  14   6 5422.60 205.477   2
  -3  14  -7 129.958 21.2168   2
  -3  14  -7 116.376 35.7481   3
   3  14   7 205.330 65.3692   2
   3  14   8 1233.85 109.917   2
  -3  14  -8 1260.48 80.2444   3
  -3  14  -8 1156.24 45.5323   2
  -3  14  -9 333.134 45.3550   3
  -3  14  -9 282.061 22.7889   2
   3  14   9 403.546 79.4104   2
  -3  14 -10 7072.01 179.000   3
   3  14  10 7140.87 258.620   2
  -3  14 -11 205.498 39.8622   3
   3  14  11 190.399 66.8644   2
  -3  14 -12 267.464 41.8111   3
   3  14  12 149.520 69.1914   2
   3  14  13 66.5230 65.5732   2
  -3  14 -13 30.5644 30.1833   3
  -3  14 -14 528.433 58.6816   3
   3  14  14 596.959 100.184   2
   3  14  15 731.996 106.290   2
   3  14  16 6549.06 281.458   2
   3  14  17 819.965 116.477   2
   3  14  18 1129.00 133.372   2
   3  14  19 1097.90 133.433   2
   3  14  20 3085.95 211.379   2
   3  14  21 989.619 132.822   2
   3  14  22 4269.93 255.641   2
  -3  15  23 1172.63 145.059   2
  -3  15  22-47.4535 63.6333   2
  -3  15  21-66.4621 67.6220   2
  -3  15  20-63.9538 60.9666   2
  -3  15  19 326.556 90.1972   2
  -3  15  18 59.8768 68.6593   2
  -3  15  17 4643.70 237.211   2
  -3  15  16 2980.03 191.582   2
  -3  15  15 28.2779 61.7844   2
  -3  15  14 85.3680 63.3504   2
  -3  15  13 79.5837 67.3706   2
  -3  15  12 509.633 86.5179   2
  -3  15  11 2921.21 167.205   2
  -3  15  10 373.742 78.8844   2
  -3  15   9 7598.04 252.363   2
  -3  15   9 7566.92 258.465   3
  -3  15   8 2287.64 139.354   2
  -3 -15   8 2141.71 70.7329   2
  -3  15   8 2090.02 140.118   3
  -3  15   7 1084.48 100.703   2
   3  15  -7 1251.81 61.5831   2
  -3 -15   7 1110.08 56.9226   2
  -3  15   7 1038.15 99.9915   3
  -3  15   6 1251.22 106.594   2
  -3 -15   6 1296.11 65.1062   2
   3  15  -6 1384.72 69.4333   2
  -3 -15   6 1174.00 45.9718   3
  -3  15   6 1168.06 105.481   3
  -3 -15   5 785.289 44.6130   3
  -3  15   5 875.709 86.5632   2
  -3 -15   5 847.126 56.6301   2
   3  15  -5 869.566 59.3474   2
  -3  15   5 766.231 83.8272   3
  -3  15   4 830.814 81.4088   2
  -3 -15   4 708.130 55.0069   2
   3  15  -4 766.122 60.2239   2
  -3 -15   4 774.058 49.3289   3
  -3  15   4 817.390 81.7052   3
  -3  15   3 1947.72 111.278   2
   3  15  -3 2101.39 99.5563   2
  -3 -15   3 2069.30 94.3082   2
  -3 -15   3 2014.54 83.0627   3
  -3  15   3 2187.68 128.279   3
  -3  15   2-7.71789 34.2081   2
   3  15  -2 7.81532 32.4407   2
  -3 -15   2-0.40777 23.8445   2
  -3  15   2 101.829 66.3761   1
  -3  15   2 61.8733 45.8654   3
  -3 -15   2 12.3550 23.2399   3
  -3  15   1 194.060 69.5749   1
  -3 -15   1 156.767 32.9745   3
   3  15  -1 209.112 46.7375   2
  -3  15   1 154.804 42.8479   2
  -3  15   1 148.439 51.6010   3
   3  15   0 1556.53 107.375   1
  -3  15   0 1784.10 108.984   3
  -3  15   0 1662.04 124.905   1
  -3 -15   0 1562.40 85.0245   3
   3  15   0 1700.36 102.338   2
  -3  15   0 1636.08 92.9040   2
  -3  15  -1 10580.1 217.342   2
  -3  15  -1 10486.9 292.529   1
   3  15   1 10551.0 260.362   1
  -3  15  -1 10470.3 247.887   3
   3  15   1 10784.4 252.223   2
   3  15   2 1380.87 97.9521   2
  -3  15  -2 1564.48 122.122   1
  -3  15  -2 1403.96 93.1016   3
  -3  15  -2 1360.70 79.8040   2
   3  15   2 1562.85 106.999   1
  -3  15  -3 5743.62 147.049   2
  -3  15  -3 5728.04 178.916   3
  -3  15  -3 5606.08 220.468   1
   3  15   3 5973.97 201.115   2
   3  15   3 6143.40 194.585   1
  -3  15  -4 331.859 39.4244   2
  -3  15  -4 353.119 38.6507   2
  -3  15  -4 364.031 73.4635   1
  -3  15  -4 432.869 58.6815   3
   3  15   4 438.366 68.8262   2
   3  15   4 442.860 68.2009   1
  -3  15  -5 285.309 35.3100   2
  -3  15  -5 267.138 31.9091   2
  -3  15  -5 117.163 55.3914   1
  -3  15  -5 335.482 53.1414   3
   3  15   5 348.062 70.2189   2
  -3  15  -6 4503.42 101.686   2
   3  15   6 4588.04 193.790   2
  -3  15  -6 4574.11 152.548   3
  -3  15  -6 4853.19 207.168   1
  -3  15  -6 4462.07 107.509   2
   3  15   7 367.416 74.2356   2
  -3  15  -7 357.569 30.4421   2
  -3  15  -7 317.659 51.2286   3
  -3  15  -7 376.092 32.2265   2
  -3  15  -8 178.180 20.4935   2
  -3  15  -8 246.076 45.5977   3
   3  15   8 185.166 63.2407   2
   3  15   9 3555.94 182.789   2
  -3  15  -9 3307.86 125.639   3
  -3  15 -10 781.234 65.1709   3
   3  15  10 873.251 105.099   2
  -3  15 -11 92.5035 35.2213   3
   3  15  11 29.0607 54.1926   2
  -3  15 -12 1779.42 92.9946   3
   3  15  12 1741.03 143.149   2
  -3  15 -13 3475.93 126.429   3
   3  15  13 3549.10 200.579   2
   3  15  14 1689.16 148.953   2
   3  15  15 1620.83 145.352   2
   3  15  16 453.646 95.2992   2
   3  15  17 2584.80 188.506   2
   3  15  18 767.087 118.034   2
   3  15  19 4105.93 242.159   2
   3  15  20 463.471 104.739   2
   3  15  21 54.7722 67.7319   2
  -3  16  23 131.407 77.7133   2
  -3  16  22-81.6205 73.3109   2
  -3  16  21 450.795 100.850   2
  -3  16  20-57.1427 62.9183   2
  -3  16  19 3216.25 210.794   2
  -3  16  18 378.302 91.6652   2
  -3  16  17 403.607 88.3685   2
  -3  16  16 3.42883 59.0854   2
  -3  16  15 2354.49 173.072   2
  -3  16  14 107.293 62.3363   2
  -3  16  13 6123.00 254.141   2
  -3  16  12 44.8299 51.7130   2
  -3  16  11 602.454 86.0714   2
  -3  16  10-0.77088 49.9409   2
  -3  16   9 5.07689 55.1502   2
  -3  16   9 59.0060 50.7538   3
  -3  16   8 9429.82 280.440   2
  -3  16   8 9466.29 288.571   3
  -3  16   7 1305.94 115.719   2
   3  16  -7 1414.40 65.7191   2
  -3  16   7 1376.27 115.017   3
  -3  16   6 2098.58 132.844   2
  -3 -16   6 2398.53 86.5586   2
   3  16  -6 2547.57 93.3772   2
  -3  16   6 2226.38 138.601   3
  -3  16   5 2770.90 142.973   2
  -3 -16   5 2726.88 98.1373   2
   3  16  -5 2939.93 105.995   2
  -3  16   5 2673.91 145.597   3
  -3 -16   5 2536.24 77.7639   3
  -3  16   4 361.093 66.8777   3
  -3  16   4 213.596 56.9802   2
  -3 -16   4 303.210 38.6930   2
   3  16  -4 321.542 47.7556   2
  -3 -16   4 251.911 32.2204   3
  -3  16   3 2688.63 133.365   2
  -3 -16   3 2655.55 104.469   2
   3  16  -3 2877.45 116.567   2
  -3  16   3 2771.36 145.274   3
  -3 -16   3 2648.64 96.6219   3
   3  16  -2 1526.68 92.0409   2
  -3 -16   2 1442.22 81.2369   2
  -3  16   2 1576.80 126.162   1
  -3 -16   2 1511.52 77.8515   3
  -3  16   2 1564.14 111.303   3
  -3  16   2 1499.01 100.911   2
  -3  16   1 2928.21 128.760   2
   3  16  -1 2851.38 146.540   1
  -3  16   1 2914.51 164.276   1
  -3  16   1 2906.66 142.692   3
   3  16  -1 2867.38 126.146   2
  -3 -16   1 2781.06 109.982   3
   3  16   0 1417.43 99.8805   2
  -3  16   0 1389.37 89.0844   2
   3  16   0 1358.84 105.517   1
  -3  16   0 1536.99 125.262   1
  -3  16   0 1466.38 102.758   3
  -3  16  -1 3534.66 130.687   2
   3  16   1 3222.82 153.107   1
  -3  16  -1 3372.17 148.191   3
   3  16   1 3586.06 152.640   2
  -3  16  -1 3266.21 173.439   1
  -3  16  -2 2995.22 115.256   2
  -3  16  -2 3061.83 166.462   1
   3  16   2 2857.71 144.009   1
  -3  16  -2 2977.42 135.829   3
   3  16   2 2879.72 143.883   2
  -3  16  -3 4553.95 133.285   2
   3  16   3 4595.06 176.317   1
  -3  16  -3 4360.24 199.390   1
  -3  16  -3 4674.38 164.901   3
   3  16   3 4462.62 180.756   2
  -3  16  -4 2625.18 98.4174   2
  -3  16  -4 2824.38 93.3225   2
   3  16   4 2912.52 140.358   1
  -3  16  -4 2609.91 122.683   3
  -3  16  -4 2493.34 158.388   1
   3  16   4 2437.69 140.713   2
  -3  16  -5 13443.8 347.871   1
   3  16   5 13685.0 326.795   2
  -3  16  -5 14050.2 204.432   2
  -3  16  -5 13620.5 265.557   3
  -3  16  -5 13785.3 189.486   2
  -3  16  -6 2966.22 88.9328   2
  -3  16  -6 3143.34 128.448   3
  -3  16  -6 3139.87 174.256   1
   3  16   6 3188.52 166.397   2
  -3  16  -7-7.18745 12.6799   2
  -3  16  -7 10.0446 30.2508   3
  -3  16  -7-21.0206 61.4432   1
   3  16   7-27.6156 49.8403   2
  -3  16  -8 11.0963 27.9143   3
   3  16   8 95.8177 56.4674   2
  -3  16  -9 183.359 42.0011   3
   3  16   9 68.8136 51.0088   2
  -3  16 -10 75.0115 34.4873   3
   3  16  10-5.87502 53.2670   2
  -3  16 -11 1760.46 92.5796   3
   3  16  11 1600.32 139.418   2
   3  16  12 1443.71 132.845   2
  -3  16 -12 1613.41 87.7398   3
   3  16  13 77.8838 59.5785   2
   3  16  14-28.7533 61.1786   2
   3  16  15 3131.87 201.745   2
   3  16  16 112.367 70.4840   2
   3  16  17 390.696 95.8714   2
   3  16  18 69.0867 78.1450   2
   3  16  19 67.6025 79.4790   2
   3  16  20 1973.44 177.563   2
   3  16  21 3412.06 234.654   2
  -3  17  22 5802.22 299.385   2
  -3  17  21 224.805 82.8559   2
  -3  17  20 1383.35 153.588   2
  -3  17  19 5.09259 66.4487   2
  -3  17  18 804.530 114.817   2
  -3  17  17 141.291 76.0177   2
  -3  17  16 143.324 72.4312   2
  -3  17  15 701.685 105.609   2
  -3  17  14 449.658 89.6046   2
  -3  17  13 1486.54 141.192   2
  -3  17  12 11055.2 336.418   2
  -3  17  11 13.7746 53.2213   2
  -3  17  10 246.159 63.5373   2
  -3  17   9 2730.76 161.523   2
  -3  17   8 2416.79 157.840   2
  -3  17   8 2892.23 164.857   3
   3  17  -7 442.829 41.4509   2
  -3  17   7 383.997 72.3294   2
  -3  17   7 360.896 71.0255   3
  -3  17   6 272.883 61.0226   2
  -3  17   6 350.757 69.7355   3
   3  17  -6 283.659 38.7130   2
  -3  17   5 1252.19 104.410   2
   3  17  -5 1280.65 74.0746   2
  -3  17   5 1182.31 107.777   3
  -3  17   4 4333.81 174.694   2
   3  17  -4 4463.64 139.879   2
  -3  17   4 4362.11 185.932   3
  -3  17   3 1206.73 100.896   2
   3  17  -3 1206.15 81.5922   2
  -3  17   3 1176.46 106.716   3
   3  17  -2 5268.27 165.179   2
  -3  17   2 5020.42 192.811   3
  -3  17   2 5184.41 222.293   1
   3  17  -2 4980.80 200.274   1
  -3  17   2 4916.65 177.589   2
  -3  17   1 41.1665 34.9496   2
   3  17  -1-48.2226 34.3544   2
   3  17  -1-37.1150 60.5839   1
  -3  17   1-26.5629 43.4987   3
  -3  17   1 0.52723 57.7663   1
   3  17   0 323.673 55.6853   2
  -3  17   0 294.842 46.9383   2
  -3  17   0 403.327 83.2286   1
  -3  17   0 292.688 58.9279   3
   3  17   0 209.634 58.7595   1
   3  17   1 281.536 59.1901   2
   3  17   1 357.987 67.2385   1
  -3  17  -1 358.074 83.7934   1
  -3  17  -1 354.038 52.9336   2
  -3  17  -1 334.724 56.3191   3
  -3  17  -2 1360.91 123.452   1
  -3  17  -2 1451.79 86.1040   2
   3  17   2 1360.62 101.631   2
  -3  17  -2 1468.84 100.933   3
   3  17   2 1492.63 112.914   1
  -3  17  -3 6503.28 163.416   2
  -3  17  -3 6347.00 246.761   1
   3  17   3 6413.80 214.319   2
  -3  17  -3 6685.23 200.839   3
   3  17   3 6504.09 217.100   1
  -3  17  -4 500.447 49.7817   2
  -3  17  -4 369.731 55.2718   3
   3  17   4 516.927 78.6030   1
  -3  17  -4 377.291 89.6681   1
   3  17   4 443.078 70.6950   2
  -3  17  -5 1234.04 66.2718   2
  -3  17  -5 1405.36 91.0545   3
   3  17   5 1414.17 116.012   2
  -3  17  -5 1414.31 129.547   1
  -3  17  -6 5620.23 236.627   1
  -3  17  -6 5754.66 175.885   3
   3  17   6 5629.45 223.331   2
  -3  17  -6 5992.05 124.077   2
  -3  17  -7 1325.39 126.236   1
  -3  17  -7 1364.41 88.1538   3
   3  17   7 1255.83 118.054   2
  -3  17  -8 1356.50 125.867   1
  -3  17  -8 1330.27 85.6625   3
   3  17   8 1262.89 115.295   2
   3  17   9 97.6372 60.9284   2
  -3  17  -9 147.493 37.1602   3
  -3  17 -10-0.64783 27.8744   3
   3  17  10-1.48675 56.3538   2
   3  17  11 1209.50 121.814   2
   3  17  12 602.257 93.1506   2
   3  17  13 3485.83 204.529   2
   3  17  14 114.933 67.6806   2
   3  17  15 313.651 88.4171   2
   3  17  16 2890.12 201.608   2
   3  17  17-42.9579 71.9035   2
   3  17  18 271.312 88.2200   2
   3  17  19 1996.25 178.593   2
   3  17  20 429.519 103.352   2
  -3  18  21 107.617 73.9220   2
  -3  18  20 2589.66 200.011   2
  -3  18  19 822.271 123.847   2
  -3  18  18 2309.44 184.080   2
  -3  18  17 570.122 109.062   2
  -3  18  16-15.4725 64.8883   2
  -3  18  15 327.280 85.0886   2
  -3  18  14 4733.22 237.333   2
  -3  18  13 197.567 77.3194   2
  -3  18  12 2494.07 168.758   2
  -3  18  11 883.143 112.424   2
  -3  18  10 1945.62 144.076   2
  -3  18   9 124.037 51.9920   2
  -3  18   8 6449.43 237.927   2
  -3  18   7 270.163 66.1074   2
  -3  18   6 3462.64 167.842   2
   3  18  -6 3668.12 114.326   2
  -3  18   6 3484.00 177.477   3
  -3  18   5 2329.57 137.960   2
   3  18  -5 2580.46 103.766   2
  -3  18   5 2380.09 146.356   3
  -3  18   4 11.3652 41.7249   2
   3  18  -4 10.6229 29.9783   2
  -3  18   4 23.9773 46.8251   3
  -3  18   3 407.132 62.4892   2
  -3  18   3 660.469 80.6109   3
   3  18  -3 582.212 60.6561   2
  -3  18   2 981.430 88.1399   2
   3  18  -2 1182.16 108.227   1
  -3  18   2 1151.87 99.9187   3
   3  18  -2 1208.27 87.3199   2
   3  18  -1 2770.26 130.158   2
  -3  18   1 2527.27 128.223   2
   3  18  -1 2728.70 152.883   1
  -3  18   1 2599.68 165.677   1
  -3  18   1 2641.80 141.961   3
   3  18   0 208.071 52.1053   2
  -3  18   0 179.682 71.2300   1
  -3  18   0 242.104 51.0826   2
   3  18   0 210.594 58.5661   1
  -3  18   0 249.584 58.3561   3
  -3  18  -1 1634.42 95.9384   2
  -3  18  -1 1638.73 133.072   1
   3  18   1 1870.95 116.418   2
   3  18   1 1777.67 124.663   1
  -3  18  -1 1664.21 110.725   3
  -3  18  -2 2164.91 104.439   2
   3  18   2 2325.91 139.870   1
  -3  18  -2 2282.33 125.890   3
   3  18   2 2213.23 130.380   2
  -3  18  -2 1985.90 149.846   1
  -3  18  -3 412.931 51.2134   2
   3  18   3 411.676 78.1338   1
  -3  18  -3 395.349 60.1249   3
  -3  18  -3 411.691 84.8913   1
   3  18   3 430.788 74.6889   2
  -3  18  -4 9797.00 189.751   2
  -3  18  -4 9572.16 311.404   1
   3  18   4 9749.91 268.007   1
  -3  18  -4 9291.61 236.600   3
   3  18   4 9529.62 274.219   2
  -3  18  -5 266.592 79.6346   1
  -3  18  -5 274.199 36.3699   2
  -3  18  -5 283.159 53.0008   3
   3  18   5 229.192 58.3053   2
  -3  18  -6 830.807 101.111   1
  -3  18  -6 962.947 80.5901   3
   3  18   6 806.028 96.4371   2
  -3  18  -7 2712.44 174.696   1
   3  18   7 2589.66 160.171   2
  -3  18  -7 2774.47 124.429   3
   3  18   8 2915.56 173.338   2
  -3  18  -8 2947.02 125.280   3
  -3  18  -8 2785.50 177.661   1
  -3  18  -9 44.4785 31.9970   3
  -3  18  -9 6.72293 69.6255   1
   3  18   9-12.9624 51.7822   2
   3  18  10 238.721 73.2151   2
   3  18  11 99.1805 57.8380   2
   3  18  12 557.811 95.1197   2
   3  18  13 49.4931 61.2315   2
   3  18  14 172.098 81.8552   2
   3  18  15 133.257 72.1545   2
   3  18  16 1509.20 153.033   2
   3  18  17 563.794 110.195   2
   3  18  18 182.480 86.8205   2
   3  18  19 157.195 77.4883   2
  -3  19  20 67.4405 70.9045   2
  -3  19  19 291.924 98.0026   2
  -3  19  18 1471.70 152.733   2
  -3  19  17 1617.81 158.740   2
  -3  19  16 8198.01 327.322   2
  -3  19  15 904.557 123.700   2
  -3  19  14-25.2918 63.2806   2
  -3  19  13 343.480 79.4051   2
  -3  19  12 323.753 78.4940   2
  -3  19  11 4629.64 231.222   2
  -3  19  10 7946.64 284.340   2
  -3  19   9 394.314 78.8428   2
  -3  19   8 1860.19 139.684   2
  -3  19   7 1019.79 104.373   2
  -3  19   6 6085.92 225.936   2
  -3  19   5 3484.62 167.819   2
   3  19  -5 3415.21 119.627   2
  -3  19   5 3179.50 173.116   3
  -3  19   4 1589.68 112.506   2
  -3  19   4 1504.96 117.814   3
   3  19  -4 1514.64 86.7745   2
  -3  19   3 1399.39 102.308   2
   3  19  -3 1458.28 89.7118   2
   3  19  -3 1566.91 127.295   1
  -3  19   3 1397.68 113.033   3
   3  19  -2-65.4641 62.1039   1
  -3  19   2 70.1469 40.8708   2
   3  19  -2 38.1633 37.2959   2
  -3  19   2 57.0913 51.2877   3
   3  19  -1 58.2412 44.4152   2
  -3  19   1-47.4535 36.8200   2
   3  19  -1-73.9693 59.7001   1
  -3  19   1 21.2496 66.0230   1
  -3  19   1-5.84796 42.5221   3
   3  19   0 4561.68 199.721   1
  -3  19   0 4564.99 162.855   2
  -3  19   0 4926.90 226.911   1
  -3  19   0 4193.48 178.007   3
   3  19   0 4427.30 172.664   2
   3  19   1 244.015 57.4768   2
  -3  19  -1 176.943 42.3579   2
  -3  19  -1 129.972 68.7657   1
   3  19   1 244.457 66.9743   1
  -3  19  -1 273.656 57.5634   3
  -3  19  -2 1505.61 89.4536   2
   3  19   2 1419.03 109.749   2
  -3  19  -2 1572.98 110.293   3
   3  19   2 1621.98 121.444   1
  -3  19  -2 1480.13 137.223   1
   3  19   3 190.111 64.9381   1
  -3  19  -3 114.459 35.7936   2
  -3  19  -3 152.849 51.3078   3
  -3  19  -3 147.336 74.5562   1
   3  19   3 119.457 57.2922   2
  -3  19  -4 702.595 105.283   1
   3  19   4 703.930 89.6323   1
  -3  19  -4 622.134 72.9153   3
   3  19   4 552.753 80.8004   2
  -3  19  -5 3168.08 191.564   1
   3  19   5 3080.25 167.652   2
  -3  19  -5 3022.08 138.773   3
   3  19   6 1442.05 122.119   2
  -3  19  -6 1611.86 100.034   3
  -3  19  -6 1580.69 142.349   1
   3  19   7 862.380 102.905   2
  -3  19  -7 943.387 116.159   1
  -3  19  -7 1163.34 85.4887   3
  -3  19  -8 3409.78 196.837   1
   3  19   8 3253.82 182.687   2
  -3  19  -9 277.758 83.2247   1
   3  19   9 189.029 65.4923   2
   3  19  10 469.689 89.9477   2
  -3  19 -10 607.443 101.844   1
   3  19  11-73.3167 59.3949   2
   3  19  12 93.3757 65.0124   2
   3  19  13-62.2698 56.2091   2
   3  19  14 531.648 98.1454   2
   3  19  15 173.077 67.9101   2
   3  19  16-124.770 78.9814   2
   3  19  17 21.1476 64.8872   2
   3  19  18 1633.23 167.990   2
  -3  20  19 3827.33 244.443   2
  -3  20  18 25.8523 67.4264   2
  -3  20  17 1383.09 152.000   2
  -3  20  16 2157.76 179.071   2
  -3  20  15 3056.89 202.868   2
  -3  20  14 1459.51 146.528   2
  -3  20  13 1793.01 153.678   2
  -3  20  12-9.34597 55.9491   2
  -3  20  11 973.346 114.977   2
  -3  20  10 1177.36 119.940   2
  -3  20   9 11128.5 331.869   2
  -3  20   8 83.1998 59.6204   2
  -3  20   7 6778.09 252.957   2
  -3  20   6-20.8615 44.6734   2
  -3  20   5 112.643 50.3761   2
  -3  20   4 2262.03 136.506   2
   3  20  -4 2244.65 154.837   1
  -3  20   3 1588.61 112.424   2
   3  20  -3 1717.78 100.024   2
   3  20  -3 1785.18 139.310   1
  -3  20   3 1808.24 127.796   3
  -3  20   2 317.000 60.8536   2
   3  20  -2 247.422 45.7778   2
   3  20  -2 221.404 69.7639   1
  -3  20   2 365.366 68.7770   3
   3  20  -1 2376.46 128.256   2
   3  20  -1 2337.75 152.063   1
  -3  20   1 2282.25 163.387   1
  -3  20   1 2190.83 123.875   2
  -3  20   1 2105.13 132.410   3
   3  20   0 175.548 51.8159   2
   3  20   0 350.222 72.2700   1
  -3  20   0 285.637 55.9781   3
  -3  20   0 245.814 51.6430   2
  -3  20   0 304.228 85.6747   1
  -3  20  -1 119.494 48.6974   3
  -3  20  -1 87.5474 66.2913   1
  -3  20  -1 138.906 41.7921   2
   3  20   1 120.852 62.4480   1
   3  20   1 230.007 56.4084   2
   3  20   2 31.9170 40.4487   2
   3  20   2 134.876 58.1474   1
  -3  20  -2 8.41217 28.7384   2
  -3  20  -2 128.864 72.0172   1
  -3  20  -2 55.6386 44.7306   3
  -3  20  -3 5200.30 242.642   1
   3  20   3 4918.18 205.518   1
  -3  20  -3 4808.44 183.286   3
   3  20   3 4872.17 200.230   2
  -3  20  -4 581.251 69.8904   3
   3  20   4 374.703 71.0935   2
  -3  20  -4 619.167 102.242   1
  -3  20  -5 488.900 97.2435   1
   3  20   5 482.728 78.5660   2
  -3  20  -5 579.976 67.8847   3
  -3  20  -6 49.3276 64.6294   1
  -3  20  -6 19.5710 33.3808   3
   3  20   6 15.0891 49.0809   2
  -3  20  -7 271.989 72.7912   1
   3  20   7 308.884 73.1974   2
  -3  20  -8 774.989 108.032   1
   3  20   8 748.735 100.088   2
  -3  20  -9 718.180 108.024   1
   3  20   9 657.184 100.414   2
  -3  20 -10 525.749 99.5156   1
   3  20  10 411.218 87.0716   2
  -3  20 -11 91.1994 63.8782   1
   3  20  11 93.0396 65.5035   2
   3  20  12 292.453 81.2698   2
   3  20  13 117.478 82.2321   2
   3  20  14-10.1286 72.1649   2
   3  20  15 759.047 120.585   2
   3  20  16 263.314 89.1273   2
   3  20  17 2295.24 191.030   2
  -3  21  18 219.204 83.5882   2
  -3  21  17 4342.25 253.113   2
  -3  21  16 63.4903 59.1826   2
  -3  21  15 606.103 103.159   2
  -3  21  14-139.950 73.4386   2
  -3  21  13 1263.02 132.290   2
  -3  21  12 95.3615 73.0454   2
  -3  21  11 7437.90 291.967   2
  -3  21  10 1604.49 140.379   2
  -3  21   9 569.338 92.4896   2
  -3  21   8 0.08642 50.4894   2
  -3  21   7 1730.97 134.601   2
  -3  21   6 1457.57 121.597   2
  -3  21   5 4501.79 197.155   2
   3  21  -5 4861.42 228.990   1
  -3  21   4 2428.29 145.120   2
   3  21  -4 2347.21 162.307   1
   3  21  -3 1462.90 133.479   1
  -3  21   3 1633.03 117.810   2
   3  21  -2 776.282 100.566   1
   3  21  -2 1033.13 83.7962   2
  -3  21   2 919.111 86.8700   2
   3  21  -1 261.987 56.1723   2
  -3  21   1 267.917 56.9832   2
   3  21  -1 227.117 68.5016   1
  -3  21   1 302.060 86.4184   1
  -3  21   1 301.845 62.0494   3
   3  21   0 805.326 82.1632   2
  -3  21   0 878.882 79.9186   2
  -3  21   0 869.984 117.760   1
   3  21   0 743.363 98.8683   1
  -3  21   0 783.690 89.3762   3
  -3  21  -1 7908.13 301.548   1
   3  21   1 7530.31 264.033   1
  -3  21  -1 7495.53 240.540   3
   3  21   1 7731.61 242.527   2
   3  21   2 268.368 63.8325   2
   3  21   2 222.684 67.9072   1
  -3  21  -2 275.034 83.5595   1
  -3  21  -2 261.356 60.1496   3
   3  21   3 309.223 65.4069   2
  -3  21  -3 203.079 69.1814   1
   3  21   3 293.040 73.1578   1
  -3  21  -3 246.931 56.1456   3
  -3  21  -4 1131.24 94.3461   3
  -3  21  -4 936.406 117.151   1
   3  21   4 1001.93 104.816   2
  -3  21  -5 1948.91 162.631   1
   3  21   5 1780.00 135.246   2
  -3  21  -6-64.0973 63.4946   1
   3  21   6 6.30770 47.6647   2
   3  21   7 451.404 84.7804   2
  -3  21  -7 585.647 103.715   1
  -3  21  -8 1902.38 159.940   1
   3  21   8 1763.52 144.156   2
   3  21   9 650.239 98.7324   2
  -3  21  -9 486.369 101.989   1
  -3  21 -10 843.012 113.488   1
   3  21  10 768.565 112.289   2
  -3  21 -11 923.704 130.460   1
   3  21  11 817.453 113.485   2
   3  21  12 24.1008 67.2780   2
  -3  21 -12-121.034 84.0524   1
  -3  21 -13 341.923 92.3074   1
   3  21  13 641.941 107.869   2
   3  21  14 73.9578 70.4419   2
   3  21  15 452.277 102.465   2
   3  21  16 72.9337 79.1876   2
  -3  22  17 229.747 80.1483   2
  -3  22  16-10.1121 68.8990   2
  -3  22  15 1089.50 135.286   2
  -3  22  14 1967.86 167.630   2
  -3  22  13 1141.50 132.601   2
  -3  22  12 13.2573 58.1196   2
  -3  22  11 162.362 71.7712   2
  -3  22  10 1165.98 123.867   2
  -3  22   9 379.961 82.2039   2
  -3  22   8 3013.28 181.340   2
  -3  22   7 194.587 59.3640   2
  -3  22   6 2493.19 159.096   2
  -3  22   5 85.9669 52.3263   2
   3  22  -5 237.514 80.1205   1
   3  22  -4-34.6569 62.8832   1
  -3  22   4 21.7077 45.7428   2
  -3  22   3 1159.88 102.608   2
   3  22  -3 1152.10 120.136   1
  -3  22   2 43.0369 40.4985   2
   3  22  -2 113.581 71.8600   1
   3  22  -1-5.51530 53.4490   1
   3  22   0 417.995 66.3610   2
   3  22   0 325.379 76.1494   1
  -3  22   0 352.079 95.0439   1
  -3  22  -1 130.985 70.5071   1
   3  22   1 49.7905 46.5555   2
   3  22   1-14.9960 55.0046   1
   3  22   2-1.14630 43.4045   2
   3  22   2 116.543 65.1372   1
  -3  22  -2 21.2676 62.4575   1
  -3  22  -2 65.5709 46.7770   3
   3  22   3 510.254 80.7786   2
  -3  22  -3 753.957 113.678   1
   3  22   3 816.300 104.107   1
   3  22   4 6223.62 240.309   2
  -3  22  -4 6753.75 290.387   1
  -3  22  -5 213.375 79.0643   1
   3  22   5 219.237 65.9364   2
  -3  22  -6 1213.91 140.331   1
   3  22   6 1185.44 118.125   2
  -3  22  -7 1934.24 165.048   1
   3  22   7 1704.42 143.183   2
   3  22   8 548.175 96.0087   2
  -3  22  -8 531.114 104.861   1
  -3  22  -9-23.2648 70.3980   1
   3  22   9 16.0635 56.8740   2
   3  22  10 306.527 84.1323   2
  -3  22 -10 152.521 78.8499   1
   3  22  11 64.7832 67.1784   2
  -3  22 -11-20.3395 77.9682   1
  -3  22 -12 652.550 110.505   1
   3  22  12 672.274 115.192   2
  -3  22 -13 48.5931 73.1650   1
   3  22  13 203.611 78.8097   2
   3  22  14 1038.18 136.247   2
   3  22  15 26.9653 64.2091   2
  -3  23  16 2195.58 182.004   2
  -3  23  15-6.46912 60.2588   2
  -3  23  14 263.007 80.7210   2
  -3  23  13 168.144 75.5917   2
  -3  23  12 2373.05 177.200   2
  -3  23  11 114.076 69.4839   2
  -3  23  10 1547.44 140.409   2
  -3  23   9 315.797 77.7939   2
  -3  23   8 15.6814 49.1203   2
  -3  23   7 700.406 95.5349   2
   3  23  -7 806.807 114.570   1
  -3  23   6 2913.18 168.632   2
   3  23  -6 3001.87 194.523   1
   3  23  -5-16.1048 69.1436   1
  -3  23   5 2.86079 45.3439   2
   3  23  -4 2108.90 164.406   1
  -3  23   4 2343.18 145.535   2
   3  23  -3 2856.59 184.374   1
   3  23  -2-41.0160 61.6751   1
   3  23  -1-7.17759 64.8470   1
   3  23   0 672.493 101.025   1
  -3  23   0 769.850 118.850   1
   3  23   1 24.1717 59.8762   1
  -3  23  -1 99.7725 77.5209   1
   3  23   2 2079.31 157.089   1
  -3  23  -2 2137.56 173.729   1
   3  23   2 1993.42 133.968   2
   3  23   3 298.887 69.8636   2
  -3  23  -3 342.956 90.0313   1
   3  23   3 327.826 75.8048   1
  -3  23  -4 304.239 91.7880   1
   3  23   4 130.511 58.4383   2
   3  23   5 69.2041 58.4267   2
  -3  23  -5 24.9823 64.9609   1
  -3  23  -6 1955.06 170.186   1
   3  23   6 2103.11 151.624   2
  -3  23  -7 1916.73 168.306   1
   3  23   7 2110.20 156.034   2
  -3  23  -8 1601.73 160.367   1
   3  23   8 1710.84 147.781   2
  -3  23  -9 1753.82 166.786   1
   3  23   9 1645.34 146.736   2
  -3  23 -10-23.0150 77.7212   1
   3  23  10 34.8133 64.3038   2
  -3  23 -11-106.276 90.6618   1
   3  23  11 26.7314 59.2590   2
   3  23  12 330.697 94.7197   2
   3  23  13 357.869 91.5450   2
   3  23  14 2050.95 177.271   2
  -3  24  15-55.7151 77.3123   2
  -3  24  14 888.242 122.448   2
  -3  24  13 357.471 87.2996   2
  -3  24  12 109.231 65.5695   2
  -3  24  11 113.533 56.1614   2
  -3  24  10 53.6426 60.5093   2
  -3  24   9 1493.81 133.630   2
   3  24  -8 650.459 113.398   1
  -3  24   8 543.925 89.1357   2
  -3  24   7 1946.02 147.179   2
   3  24  -7 1788.86 159.984   1
   3  24  -6 123.053 74.4352   1
  -3  24   6 157.380 62.9440   2
   3  24  -5 479.696 100.977   1
   3  24  -4 531.308 98.0203   1
   3  24  -3 107.828 78.3653   1
   3  24  -2 616.912 106.351   1
   3  24  -1 1099.06 125.081   1
   3  24   0 48.1658 59.8672   1
  -3  24   0 154.971 73.1073   1
   3  24   1 268.314 74.2987   1
  -3  24  -1 224.171 78.3301   1
  -3  24  -2 118.450 78.4488   1
   3  24   2 200.479 79.4785   1
  -3  24  -3 869.373 122.851   1
   3  24   4 91.9139 52.7037   2
  -3  24  -4 211.734 92.0697   1
   3  24   5 3493.07 190.623   2
  -3  24  -5 3651.99 229.138   1
  -3  24  -6 1181.25 142.498   1
   3  24   6 1325.90 126.549   2
  -3  24  -7 789.027 122.222   1
   3  24   7 794.213 104.205   2
  -3  24  -8 990.702 141.172   1
   3  24   8 734.341 104.121   2
   3  24   9 545.665 95.5152   2
   3  24  10 22.4450 57.1741   2
   3  24  11 734.016 110.699   2
   3  24  12 117.084 65.8664   2
   3  24  13 146.351 74.1309   2
  -3  25  13 165.140 74.7311   2
  -3  25  12 675.824 104.841   2
  -3  25  11 1128.54 126.270   2
  -3  25  10 65.7208 58.2745   2
  -3  25   9 2421.26 167.750   2
   3  25  -9 2629.30 198.448   1
   3  25  -8 366.426 97.9845   1
  -3  25   8 147.919 59.7020   2
   3  25  -7 52.5896 66.0563   1
   3  25  -6-12.0162 71.3457   1
   3  25  -5 229.430 81.0792   1
   3  25  -4 361.351 92.6154   1
   3  25  -3 1019.15 126.580   1
   3  25  -2 23.3781 63.8935   1
   3  25  -1 176.596 86.3748   1
   3  25   0 216.102 80.0644   1
  -3  25  -1 3467.93 224.158   1
   3  25   1 3144.88 195.911   1
   3  25   2 142.231 72.0998   1
  -3  25  -2 138.349 89.3907   1
  -3  25  -3 1156.42 144.118   1
  -3  25  -4-27.4368 80.1800   1
   3  25   6 333.465 70.8785   2
   3  25   7 1499.56 137.854   2
   3  25   8-37.9913 57.6558   2
   3  25   9 1502.34 143.276   2
   3  25  10 90.6966 62.9953   2
   3  25  11 330.739 85.2732   2
  -3  26  11 158.680 65.5361   2
   3  26  -6 2051.30 177.606   1
   3  26  -5-72.6551 75.8356   1
   3  26  -4 61.7525 80.6989   1
   3  26  -3 725.741 117.362   1
   3  26  -2 1172.50 136.602   1
   3  26  -1 1887.80 162.901   1
   3  26   0 424.832 92.2912   1
   3  26   1 563.747 100.992   1
   3  26   9 2448.32 163.126   2
   3  27  -2 331.858 88.0736   1
   3  27  -1 129.808 73.1237   1
   3  27   0 304.036 83.2637   1
   3  27   1 133.213 81.5516   1
  -4   0  30 5638.86 254.490   2
  -4   0  29-110.805 61.5085   2
  -4   0  28 1308.36 131.229   2
  -4   0  27 60.3631 57.2628   2
  -4   0  26 5152.85 235.125   2
  -4   0  25 36.0276 53.4020   2
  -4   0  24 207.237 68.9828   2
  -4   0  23 0.88009 51.0765   2
  -4   0  22 9020.72 285.141   2
  -4   0  21-13.1824 47.5677   2
  -4   0  20 3069.89 162.688   2
  -4   0  19 39.8306 50.5638   2
  -4   0  18 2032.25 127.942   2
  -4   0  17 25.7558 45.1994   2
  -4   0  16 1276.53 94.1716   3
  -4   0  15-74.4418 41.0068   3
  -4   0  14 2386.61 115.318   3
   4   0 -13-39.0250 33.4165   3
  -4   0  13 13.9079 34.7679   3
  -4   0  12 14893.9 264.598   3
   4   0 -12 14933.0 257.170   3
   4   0 -11-20.7607 31.6111   3
  -4   0  11-5.26064 36.3113   3
  -4   0  10 17803.6 275.029   3
   4   0 -10 18264.1 270.122   3
   4   0  -9 28.9300 28.9461   3
  -4   0   9-41.4839 39.6922   3
   4   0  -8 29509.4 326.750   3
  -4   0   8 28872.5 333.615   3
   4   0  -7 10.0794 27.0367   3
  -4   0   7-3.01591 33.8713   3
   4   0  -6 5759.73 141.221   3
  -4   0   6 5583.14 144.250   3
   4   0  -5 1.82780 27.3819   3
  -4   0   5 26.4350 34.6187   3
  -4   0   4 1709.58 84.3310   3
  -4   0   4 1850.52 86.5182   2
  -4   0   3-11.7913 35.0664   3
  -4   0   3 0.34135 30.0245   2
  -4   0   2 357.736 45.1169   2
  -4   0   2 332.035 49.6312   3
  -4   0   1-21.5201 30.1329   2
   4   0  -1 40.1165 40.7006   2
  -4   0   0 5867.65 145.325   2
   4   0   0 5409.19 147.059   2
   4   0   1 8.91218 41.3820   2
   4   0   1-0.22868 16.4847   1
  -4   0  -1-26.3814 34.2430   2
  -4   0  -2 17539.9 254.445   2
   4   0   2 16870.8 261.567   2
  -4   0  -3-26.7603 34.8825   2
   4   0   3 1.89739 38.9942   2
   4   0   4 1338.19 85.3839   2
  -4   0  -4 1235.99 37.1073   1
  -4   0  -4 1351.27 77.6950   2
   4   0   5-16.4713 45.7453   2
  -4   0  -5-28.9061 16.4763   1
  -4   0  -5 32.7545 32.6646   2
   4   0   6 180.745 48.4862   2
  -4   0  -6 268.018 44.9850   2
   4   0   7-7.67399 40.9405   2
  -4   0  -7 22.3454 29.6240   2
   4   0   8 3332.09 135.974   2
  -4   0  -8 3245.95 126.738   2
   4   0   9 23.0597 41.8236   2
   4   0  10 21782.9 351.018   2
   4   0  11 27.8682 42.5383   2
   4   0  12 2907.53 140.768   2
   4   0  13 15.7662 42.5537   2
   4   0  14 22.1993 46.5213   2
   4   0  15 35.7910 46.2353   2
   4   0  16 355.705 68.9542   2
   4   0  17 57.2404 50.5025   2
   4   0  18 2056.00 137.493   2
   4   0  19 107.404 55.4058   2
   4   0  20 9884.68 298.775   2
   4   0  21 154.647 66.0924   2
   4   0  22 7190.27 264.540   2
   4   0  23 27.7439 66.1270   2
   4   0  24 139.331 63.6047   2
   4   0  25 73.1232 50.8316   2
   4   0  26-2.88569 52.8710   2
   4   0  27-46.3071 60.2860   2
  -4   1  31 151.371 61.0119   2
  -4   1  30 240.850 76.1293   2
  -4   1  29 1419.40 139.513   2
  -4  -1  29 1467.97 138.378   2
  -4   1  28 365.356 79.1166   2
  -4  -1  28 352.931 82.7677   2
  -4   1  27 36.6960 53.1528   2
  -4  -1  27 66.9631 56.7650   2
  -4   1  26 81.3569 57.4995   2
  -4  -1  26-36.2873 56.6747   2
  -4   1  25 1921.01 144.667   2
  -4  -1  25 1889.32 143.491   2
  -4  -1  24 6238.85 238.926   2
  -4   1  24 6310.94 248.959   2
  -4  -1  23 3210.56 170.317   2
  -4   1  23 3196.24 176.472   2
  -4  -1  22 4407.71 200.628   2
  -4   1  22 4179.38 201.075   2
  -4  -1  21 1698.41 123.565   2
  -4   1  21 1566.95 128.538   2
  -4  -1  20 218.528 60.6534   2
  -4   1  20 156.864 60.4538   2
  -4  -1  19 838.716 87.9756   2
  -4   1  19 952.219 99.5989   2
  -4  -1  18 4926.56 187.942   2
  -4   1  18 4912.45 196.976   2
  -4   1  17 437.137 68.7434   2
  -4  -1  17 459.862 68.5612   2
  -4   1  16 5436.22 183.092   3
  -4   1  16 5286.93 196.307   2
  -4   1  15 1168.11 89.0431   3
  -4  -1  15 1238.50 85.0269   3
   4   1 -14 1160.67 77.5447   3
  -4   1  14 1212.36 90.9531   3
  -4  -1  14 1109.93 79.0537   3
  -4  -1  13-11.0229 32.9963   3
   4   1 -13 23.8638 25.7992   3
  -4   1  13 1.07774 37.4714   3
  -4   1  12 1534.88 93.6023   3
   4  -1 -12 1414.21 85.8304   3
   4   1 -12 1359.13 78.0571   3
  -4  -1  12 1558.18 88.2999   3
   4   1 -11 10740.5 206.948   3
  -4  -1  11 10953.7 213.306   3
  -4   1  11 11075.4 230.826   3
   4  -1 -11 11142.2 223.135   3
   4   1 -10 6392.54 155.957   3
   4  -1 -10 6942.19 172.355   3
  -4  -1  10 6734.66 162.401   3
  -4   1  10 6862.00 179.151   3
   4   1  -9 414.457 45.5376   3
   4  -1  -9 464.228 50.9712   3
  -4  -1   9 440.402 51.5340   3
  -4   1   9 406.569 54.4311   3
   4   1  -8 7877.87 162.813   3
   4  -1  -8 8052.55 178.596   3
  -4  -1   8 7943.36 169.501   3
  -4   1   8 7850.32 180.929   3
   4   1  -7 15301.0 223.809   3
  -4  -1   7 14871.0 228.610   3
  -4   1   7 14748.0 244.598   3
   4  -1  -7 14436.0 232.780   3
   4   1  -6 7188.09 153.257   3
  -4  -1   6 7284.86 159.798   3
  -4   1   6 6984.82 165.849   3
   4  -1  -6 7298.79 161.697   3
   4  -1  -5 21415.6 271.823   3
  -4  -1   5 20578.0 263.827   3
  -4   1   5 20759.8 279.502   3
  -4  -1   5 21029.2 280.504   2
   4  -1  -4 252.492 37.9980   3
  -4  -1   4 268.262 40.1522   2
  -4  -1   4 264.494 42.0997   3
  -4   1   4 309.649 51.2589   3
  -4  -1   3 371.578 45.2674   2
  -4  -1   3 348.551 47.3835   3
  -4   1   3 390.861 47.7315   2
  -4   1   3 395.306 52.3274   3
  -4   1   2 1903.25 86.0116   2
  -4   1   2 1760.33 86.3845   3
   4   1  -2 1748.82 87.9579   2
  -4  -1   2 1784.06 84.0748   2
  -4   1   1 10.6819 26.6323   2
   4   1  -1 8.97294 38.4019   2
  -4   1   1 0.05997 41.9054   3
   4  -1   0 1230.01 51.3918   1
   4  -1   0 1120.45 75.8165   2
  -4   1   0 1299.14 71.5523   2
   4   1   0 1192.15 76.8886   2
  -4  -1   0 1191.88 72.3784   2
  -4  -1  -1 6169.28 151.769   2
   4  -1   1 5864.19 96.0093   1
   4   1   1 6033.60 159.094   2
  -4   1  -1 6061.67 147.226   2
   4  -1   1 6050.04 155.987   2
  -4  -1  -2 2471.96 100.848   2
  -4   1  -2 2559.37 98.7819   2
   4   1   2 2639.39 110.259   2
   4  -1   2 2484.53 104.876   2
  -4   1  -3 10613.1 199.490   2
   4   1   3 9665.26 204.138   2
   4  -1   3 9785.80 201.633   2
  -4  -1  -3 10103.7 199.570   2
  -4   1  -4 10474.5 125.831   1
   4   1   4 10569.5 219.496   2
   4  -1   4 11059.4 215.198   2
  -4  -1  -4 11604.5 216.327   2
  -4   1  -4 11018.9 207.255   2
   4   1   5 12870.2 245.267   2
   4  -1   5 12650.0 234.714   2
  -4  -1  -5 13266.2 237.034   2
  -4   1  -5 13280.5 229.945   2
   4   1   6 46168.2 472.849   2
   4  -1   6 47053.3 454.235   2
  -4  -1  -6 48511.2 465.604   2
  -4   1  -6 48403.0 448.934   2
   4   1   7 19293.4 316.650   2
   4  -1   7 19755.0 304.122   2
  -4  -1  -7 20449.2 311.472   2
  -4   1  -7 20474.5 298.180   2
   4   1   8 8148.20 215.743   2
   4  -1   8 8060.75 201.805   2
  -4   1  -8 8493.74 200.374   2
   4  -1   9 4799.07 160.871   2
   4   1   9 5095.20 172.800   2
   4  -1  10 8299.91 217.246   2
   4   1  10 8083.83 221.985   2
   4   1  11 107.117 47.9727   2
   4  -1  11 88.4930 43.3480   2
   4   1  12 625.901 77.0259   2
   4  -1  12 584.178 71.8783   2
   4   1  13 6028.66 205.385   2
   4  -1  13 6110.52 201.891   2
   4   1  14 555.215 74.0946   2
   4  -1  14 546.111 70.8620   2
   4  -1  15 595.891 76.3626   2
   4   1  15 623.409 82.1965   2
   4  -1  16 22.2243 44.1064   2
   4   1  16 46.0254 52.3597   2
   4   1  17 10200.3 293.403   2
   4  -1  17 10291.9 280.820   2
   4   1  18 4863.17 207.897   2
   4  -1  18 4832.24 198.899   2
   4  -1  19 1472.07 122.438   2
   4   1  19 1483.86 121.410   2
   4  -1  20 426.173 79.3324   2
   4   1  20 294.852 69.8103   2
   4  -1  21 175.201 63.8462   2
   4   1  21 144.304 67.0606   2
   4  -1  22 564.358 86.2337   2
   4   1  22 629.148 96.5309   2
   4   1  23 552.508 88.0420   2
   4  -1  23 466.763 84.5535   2
   4  -1  24 772.773 98.5357   2
   4   1  24 804.433 112.224   2
   4   1  25 361.086 81.9330   2
   4  -1  25 165.912 62.9939   2
   4   1  26 2553.22 180.673   2
   4  -1  26 2434.40 169.852   2
   4   1  27 17.0019 54.7071   2
   4   1  28 41.5173 56.5250   2
  -4   2  31 1084.44 126.039   2
  -4   2  30 263.227 73.3823   2
  -4   2  29 942.810 125.474   2
  -4   2  28-63.9127 60.4202   2
  -4  -2  28 75.0141 53.5403   2
  -4   2  27 1301.12 135.654   2
  -4  -2  27 1352.88 124.815   2
  -4   2  26 56.4773 60.9374   2
  -4  -2  26 202.398 64.4539   2
  -4   2  25 2100.00 153.334   2
  -4  -2  25 2222.32 148.595   2
  -4   2  24 1514.53 133.621   2
  -4  -2  24 1418.12 118.945   2
  -4  -2  23 920.789 97.4376   2
  -4   2  23 943.592 108.537   2
  -4   2  22 693.464 91.9324   2
  -4  -2  22 779.320 89.8326   2
  -4  -2  21 1335.66 108.219   2
  -4   2  21 1218.08 116.601   2
  -4  -2  20 797.311 87.1917   2
  -4   2  20 840.211 99.3165   2
  -4   2  19 4974.00 211.295   2
  -4  -2  19 5555.68 198.127   2
  -4  -2  18 295.707 58.7179   2
  -4   2  18 352.704 69.3435   2
  -4   2  17 80.1921 49.9201   2
  -4  -2  17 142.719 51.6741   2
  -4   2  16 7247.00 219.862   3
  -4   2  16 7373.71 231.980   2
  -4   2  15 3644.61 153.985   3
   4   2 -15 3730.93 129.501   3
  -4  -2  15 3966.49 141.244   3
   4   2 -14 28.6127 25.0864   3
  -4   2  14-9.83668 44.0134   3
  -4  -2  14 19.9794 33.9860   3
  -4   2  13 721.195 74.4957   3
   4   2 -13 852.456 63.1816   3
  -4  -2  13 751.098 64.2051   3
  -4   2  12 4733.50 162.978   3
   4   2 -12 4666.30 135.670   3
  -4  -2  12 4713.52 140.063   3
   4   2 -11 339.600 41.0102   3
   4  -2 -11 366.529 51.8224   3
  -4  -2  11 358.786 48.6303   3
  -4   2  11 382.135 55.6734   3
   4   2 -10 4133.90 120.593   3
   4  -2 -10 4115.28 138.381   3
  -4  -2  10 4152.33 123.987   3
  -4   2  10 4086.25 144.633   3
  -4   2   9 19194.4 298.602   3
   4  -2  -9 20105.6 295.876   3
  -4  -2   9 19758.6 260.424   3
   4   2  -9 20056.8 254.686   3
   4  -2  -8 94.0573 35.7244   3
   4   2  -8 84.7934 29.2157   3
  -4  -2   8 88.0614 36.3802   3
  -4   2   8 81.5642 44.9956   3
   4   2  -7 3044.05 98.7247   3
  -4  -2   7 3133.34 104.671   3
  -4   2   7 3116.77 118.109   3
   4  -2  -7 3167.00 114.793   3
  -4  -2   6 184.818 39.9844   2
   4  -2  -6 248.596 42.9114   3
  -4  -2   6 269.366 42.1692   3
  -4   2   6 313.817 51.5252   3
  -4   2   5 179.321 49.2986   3
  -4  -2   5 87.1519 35.9276   2
   4  -2  -5 148.756 39.6925   3
  -4  -2   5 139.702 35.1755   3
  -4  -2   4 24.1292 29.2801   2
  -4  -2   4 20.9405 30.2406   3
   4  -2  -4 12.1391 30.1012   3
  -4   2   4-2.12519 39.2509   3
  -4  -2   3 428.791 49.1044   3
   4  -2  -3 564.453 49.4772   3
  -4   2   3 558.455 57.2496   3
  -4  -2   3 618.750 53.4072   2
   4   2  -2 20234.3 277.086   2
  -4   2   2 20916.9 273.629   2
  -4   2   2 20715.5 280.406   3
  -4  -2   2 20921.7 271.857   2
  -4   2   1 2887.81 111.206   3
  -4   2   1 2860.25 102.948   2
  -4  -2   1 3097.65 107.865   2
   4   2  -1 2882.80 111.421   2
  -4  -2   0 3843.67 121.829   2
  -4   2   0 3605.42 121.149   3
   4   2   0 3559.40 124.361   2
  -4   2   0 3646.13 115.100   2
   4  -2   0 3327.46 86.0714   1
  -4  -2  -1 6365.39 155.573   2
   4  -2   1 5717.95 106.339   1
   4  -2   1 5741.05 151.996   2
   4   2   1 5759.13 156.392   2
  -4   2  -1 5676.10 143.653   2
  -4  -2  -2 35.6053 35.6177   2
   4  -2   2-5.47813 41.6301   2
  -4   2  -2-2.88508 30.6592   2
   4   2   2 51.4153 41.5931   2
  -4   2  -3 6329.18 152.811   2
   4   2   3 6231.76 170.918   2
  -4   2  -3 6005.33 109.467   1
   4  -2   3 6042.52 159.643   2
  -4  -2  -3 6361.43 161.187   2
  -4   2  -4 328.551 43.9265   2
  -4  -2  -4 372.066 49.7966   2
  -4   2  -4 283.135 29.7348   1
   4   2   4 313.551 56.0622   2
   4  -2   4 355.393 51.1698   2
  -4  -2  -5 2259.02 102.152   2
   4  -2   5 2332.55 103.552   2
  -4   2  -5 2360.65 97.7625   2
   4   2   5 2380.21 116.526   2
   4   2   6 2299.90 115.690   2
  -4   2  -6 2568.57 104.027   2
   4  -2   6 2177.03 103.879   2
  -4  -2  -6 2332.00 107.736   2
   4   2   7 8777.91 218.281   2
   4  -2   7 8596.93 200.154   2
  -4   2  -7 8788.76 193.821   2
   4   2   8-46.2926 43.6284   2
   4  -2   8 13.0624 37.3023   2
  -4   2  -8 27.6893 30.4579   2
   4  -2   9 20273.5 321.690   2
  -4   2  -9 21328.2 314.515   2
   4   2   9 20119.6 346.929   2
   4  -2  10 2685.83 124.277   2
   4   2  10 2525.98 129.107   2
   4  -2  11 6803.96 195.156   2
   4   2  11 6686.52 209.244   2
   4  -2  12 2271.56 120.421   2
   4   2  12 2279.71 132.320   2
   4  -2  13 5805.43 192.801   2
   4   2  13 5898.85 209.066   2
   4  -2  14 78.6385 44.9377   2
   4   2  14 57.3727 56.2640   2
   4  -2  15 300.393 58.9510   2
   4   2  15 305.513 66.0319   2
   4  -2  16 328.118 62.4299   2
   4   2  16 290.263 65.8933   2
   4  -2  17 504.258 75.8176   2
   4   2  17 419.824 75.9491   2
   4  -2  18 603.381 76.9614   2
   4   2  18 707.966 93.1497   2
   4   2  19 355.409 76.1352   2
   4  -2  19 337.265 67.3220   2
   4  -2  20 12.5550 44.6681   2
   4   2  20 128.199 60.2833   2
   4   2  21 6436.30 258.566   2
   4  -2  21 6487.10 237.133   2
   4  -2  22 61.5120 55.2443   2
   4   2  22 26.0762 62.4610   2
   4   2  23 2069.26 155.533   2
   4  -2  23 1776.76 139.932   2
   4  -2  24 157.375 65.1244   2
   4   2  24 139.381 69.2221   2
   4  -2  25 129.482 56.9847   2
   4   2  25-3.89870 54.0533   2
   4   2  26-86.9147 58.1511   2
   4  -2  26-10.2869 51.6297   2
   4   2  27 1023.69 126.191   2
   4   2  28 246.149 75.2568   2
  -4   3  31 188.272 74.8752   2
  -4   3  30-17.5964 56.3681   2
  -4   3  29 563.558 105.890   2
  -4   3  28-6.20392 59.0913   2
  -4   3  27 2273.09 166.074   2
  -4  -3  27 2164.70 146.818   2
  -4   3  26 160.842 70.6704   2
  -4  -3  26 279.934 73.6037   2
  -4   3  25 911.109 113.353   2
  -4  -3  25 893.535 99.8251   2
  -4   3  24 206.962 73.0962   2
  -4  -3  24 125.606 53.5493   2
  -4   3  23 3151.47 187.334   2
  -4  -3  23 3551.76 173.627   2
  -4  -3  22 205.956 57.2862   2
  -4   3  22 71.9558 51.9840   2
  -4  -3  21 71.2387 47.0282   2
  -4   3  21 26.1721 59.3304   2
  -4  -3  20-11.0751 42.7580   2
  -4   3  20 164.318 66.7749   2
  -4  -3  19 321.667 60.2872   2
  -4   3  19 313.964 75.1133   2
  -4  -3  18 1608.19 105.409   2
  -4   3  18 1577.83 126.153   2
  -4   3  17 6317.65 224.850   2
  -4  -3  17 6062.94 195.127   2
   4   3 -16 2059.87 96.3617   3
  -4   3  16 2148.17 126.609   3
  -4   3  16 2144.94 135.712   2
   4   3 -15 2525.69 103.910   3
  -4  -3  15 2531.00 107.059   3
  -4   3  15 2695.36 137.332   3
  -4  -3  14 1852.47 91.3626   3
   4   3 -14 1881.97 88.5863   3
  -4   3  14 2119.21 119.270   3
   4   3 -13 3372.43 115.089   3
  -4   3  13 3542.86 149.602   3
  -4  -3  13 3486.21 120.525   3
  -4  -3  12 1666.34 82.7230   3
  -4   3  12 1686.78 104.736   3
   4   3 -12 1711.51 80.7639   3
   4   3 -11 6528.82 149.029   3
  -4  -3  11 6705.38 153.794   3
  -4   3  11 6615.06 192.299   3
  -4  -3  10 4480.39 124.020   3
  -4   3  10 4787.97 159.687   3
   4   3 -10 4394.99 119.502   3
   4   3  -9 1808.70 76.8567   3
   4  -3  -9 1720.16 92.4531   3
  -4  -3   9 1899.17 83.2330   3
  -4   3   9 1686.66 96.6103   3
   4   3  -8 14923.1 209.234   3
   4  -3  -8 15300.2 259.662   3
  -4   3   8 14601.6 265.522   3
  -4  -3   8 14874.0 214.077   3
   4  -3  -7 525.661 55.1298   3
  -4  -3   7 510.188 51.2718   2
  -4  -3   7 506.393 46.5706   3
  -4   3   7 549.446 62.7520   3
  -4  -3   6 4659.18 131.028   2
   4  -3  -6 4957.50 142.476   3
  -4   3   6 4524.34 147.575   3
  -4  -3   6 4533.45 118.587   3
   4  -3  -5 11219.8 209.710   3
  -4  -3   5 10790.4 180.570   3
  -4   3   5 10462.5 212.574   3
  -4  -3   5 10684.1 195.675   2
   4  -3  -4 1231.36 74.1821   3
  -4   3   4 1134.93 77.7910   3
  -4  -3   4 1106.88 63.9241   3
  -4  -3   4 1115.82 67.6897   2
   4  -3  -3 884.002 64.8628   3
   4   3  -3 1015.51 71.3492   2
  -4  -3   3 899.492 62.5923   2
  -4   3   3 903.825 72.3467   3
   4  -3  -2 1630.34 82.6251   3
   4   3  -2 1414.80 79.8950   2
  -4   3   2 1476.49 86.8293   3
  -4  -3   2 1461.06 76.7362   2
  -4   3   1 1899.36 85.8022   2
  -4  -3   1 1919.72 87.0736   2
  -4   3   1 1981.50 96.1652   3
   4  -3  -1 2075.17 76.4368   1
   4   3  -1 1851.64 90.8338   2
   4  -3   0 522.019 41.8812   1
  -4   3   0 563.557 59.9205   3
  -4  -3   0 493.607 51.7947   2
   4   3   0 464.860 57.2367   2
  -4   3   0 551.470 50.8289   2
  -4   3  -1 825.948 67.4820   3
   4   3   1 786.750 67.7444   2
   4  -3   1 787.416 48.3481   1
  -4   3  -1 827.262 58.4188   2
  -4  -3  -1 830.884 62.1475   2
   4  -3   2 2668.98 105.729   2
   4   3   2 2604.75 112.821   2
  -4   3  -2 2739.05 100.210   2
  -4   3  -2 2525.75 82.0685   1
  -4  -3  -2 2743.65 108.161   2
  -4  -3  -3 11.6033 29.8432   2
  -4   3  -3 13.0119 26.5565   2
   4  -3   3 1.37992 37.7328   2
  -4   3  -3 49.4786 27.5673   1
   4   3   3-27.3735 45.1848   2
   4  -3   4 642.466 60.8443   2
  -4   3  -4 747.369 57.9788   2
   4   3   4 597.168 69.5049   2
  -4   3  -4 631.546 46.2463   1
  -4  -3  -4 651.028 58.7475   2
  -4   3  -5 1020.80 67.0281   2
   4   3   5 1047.66 84.5343   2
  -4  -3  -5 1158.81 78.8355   2
   4  -3   5 1095.74 75.0212   2
   4   3   6 12368.4 256.351   2
   4  -3   6 12110.7 228.381   2
  -4  -3  -6 12869.5 252.751   2
  -4   3  -6 12369.2 221.412   2
   4  -3   7 14652.8 252.684   2
  -4   3  -7 15621.5 249.693   2
   4   3   7 15124.3 289.417   2
   4   3   8 714.648 80.0267   2
   4  -3   8 677.830 64.5054   2
  -4   3  -8 803.491 62.5654   2
   4  -3   9 877.832 69.9458   2
   4   3   9 818.191 82.8655   2
  -4   3  -9 810.627 66.1045   2
   4  -3  10 1101.65 80.3085   2
  -4   3 -10 1199.77 79.7489   2
   4   3  10 1258.28 98.4316   2
   4  -3  11 12913.4 260.226   2
   4   3  11 12142.5 286.091   2
   4  -3  12 3510.69 144.563   2
   4   3  12 3257.03 159.291   2
   4  -3  13 501.273 63.0249   2
   4   3  13 471.346 72.0477   2
   4  -3  14 80.9511 42.3967   2
   4   3  14 130.536 52.6710   2
   4  -3  15-3.44360 37.6615   2
   4   3  15 39.4045 53.6576   2
   4  -3  16 375.195 63.0576   2
   4   3  16 401.387 76.0416   2
   4  -3  17 1399.85 105.973   2
   4   3  17 1322.97 119.274   2
   4  -3  18 1663.03 119.056   2
   4   3  18 1750.04 139.649   2
   4   3  19 6871.61 262.167   2
   4  -3  19 7083.74 233.958   2
   4  -3  20 840.980 92.3799   2
   4   3  20 819.876 106.702   2
   4  -3  21 456.354 74.5889   2
   4   3  21 537.268 91.9084   2
   4   3  22 1278.86 126.952   2
   4  -3  22 1303.16 114.126   2
   4  -3  23 361.686 70.5582   2
   4   3  23 323.612 77.7378   2
   4  -3  24 2003.47 144.607   2
   4   3  24 1865.48 156.172   2
   4   3  25 3651.38 218.733   2
   4   3  26 224.617 76.9043   2
   4   3  27 425.686 93.5980   2
   4   3  28 207.008 71.6242   2
  -4   4  30 341.247 90.7922   2
  -4   4  29 171.446 74.0077   2
  -4   4  28 35.6827 56.4931   2
  -4   4  27 1127.69 126.594   2
  -4   4  26 506.966 97.4293   2
  -4  -4  26 704.211 87.5262   2
  -4   4  25-88.3405 62.5610   2
  -4  -4  25 68.0922 48.4506   2
  -4  -4  24 1164.31 104.152   2
  -4   4  24 1090.20 117.461   2
  -4   4  23 246.744 69.8544   2
  -4  -4  23 235.784 56.7092   2
  -4   4  22 657.066 94.6682   2
  -4  -4  22 915.413 92.2041   2
  -4  -4  21 2914.55 146.901   2
  -4   4  21 3010.28 176.450   2
  -4  -4  20 4968.77 184.320   2
  -4   4  20 4892.71 218.698   2
  -4   4  19 2119.61 146.258   2
  -4  -4  19 2061.14 117.434   2
  -4  -4  18 2269.57 121.722   2
  -4   4  18 2544.46 155.520   2
  -4   4  17 929.238 98.5732   2
   4   4 -17 795.772 60.0123   3
  -4  -4  17 800.899 74.9023   2
  -4   4  16 598.058 84.8048   2
   4   4 -16 683.138 55.8849   3
  -4   4  16 674.338 78.3868   3
  -4   4  15 330.190 62.1168   3
  -4   4  15 507.054 74.7547   2
   4   4 -15 380.262 43.5617   3
   4   4 -14 1124.90 67.8132   3
  -4   4  14 1212.11 96.6826   3
  -4  -4  14 1318.35 73.7778   3
   4   4 -13 262.299 37.1178   3
  -4   4  13 292.766 61.1265   3
  -4  -4  13 293.386 39.7275   3
   4   4 -12 2335.00 89.5244   3
  -4  -4  12 2495.29 94.4731   3
  -4   4  12 2429.35 126.302   3
   4   4 -11 2.83464 21.6926   3
  -4  -4  11 19.0563 26.0002   3
  -4   4  11 27.3691 40.8290   3
   4   4 -10 110.557 26.6016   3
  -4  -4  10 140.018 29.9377   3
  -4   4  10 93.3878 44.0493   3
   4   4  -9 13303.7 193.038   3
  -4  -4   9 13547.7 198.265   3
  -4   4   9 13552.2 266.741   3
  -4   4   8 5747.46 171.832   3
  -4  -4   8 5695.80 150.227   2
   4  -4  -8 5995.71 167.470   3
  -4  -4   8 5740.55 128.799   3
  -4  -4   7 2206.84 93.7182   2
   4  -4  -7 2273.61 104.137   3
  -4   4   7 2322.07 111.174   3
  -4  -4   7 2118.56 79.9830   3
  -4   4   6 158.291 53.9879   3
  -4  -4   6 72.2023 27.3543   2
   4  -4  -6 130.198 42.0560   3
  -4  -4   6 57.3920 27.1724   3
  -4  -4   5 1331.65 67.6592   3
  -4   4   5 1385.58 87.7059   3
  -4  -4   5 1471.69 75.6502   2
   4  -4  -5 1534.52 84.3594   3
   4  -4  -4 130.109 35.8456   3
  -4   4   4 77.2127 40.6761   3
  -4  -4   4 202.735 39.0013   2
   4   4  -3 21.9231 35.0011   2
  -4  -4   3 46.7295 31.2065   2
   4  -4  -3 54.4242 30.5499   3
  -4   4   3 5.91257 40.8254   3
  -4  -4   2 4151.74 126.411   2
  -4   4   2 4342.34 139.259   3
   4  -4  -2 4482.83 132.779   3
   4  -4  -2 4417.55 118.987   1
   4   4  -2 4227.31 132.876   2
  -4  -4   1 1251.95 73.9464   2
  -4   4   1 1374.83 73.8698   2
   4   4  -1 1261.02 78.9392   2
  -4   4   1 1355.27 82.3492   3
   4  -4  -1 1378.92 67.7301   1
  -4  -4   0 8548.49 181.654   2
  -4   4   0 8774.91 175.889   2
   4   4   0 8436.74 188.397   2
   4  -4   0 8417.63 154.278   1
  -4   4   0 8621.17 191.395   3
  -4   4  -1 773.542 67.2239   3
   4   4   1 709.594 65.7831   2
  -4   4  -1 815.765 58.4561   2
  -4  -4  -1 840.462 61.8045   2
   4   4   2 21354.8 312.579   2
  -4   4  -2 21466.5 303.768   3
  -4   4  -2 21929.7 275.768   2
  -4  -4  -2 22226.6 301.812   2
  -4   4  -2 20714.5 245.853   1
  -4   4  -3 1175.40 64.3844   1
   4   4   3 1244.70 88.0238   2
   4  -4   3 1190.84 75.3741   2
  -4   4  -3 1188.73 70.3242   2
  -4  -4  -3 1223.08 78.7764   2
   4  -4   4 8917.63 187.697   2
   4   4   4 9004.82 213.535   2
  -4   4  -4 9166.27 181.367   2
  -4  -4  -4 9390.35 208.383   2
  -4   4  -4 8800.89 160.031   1
   4  -4   5 180.456 45.4271   2
   4   4   5 214.093 58.6392   2
  -4   4  -5 239.759 38.6522   2
  -4  -4  -5 202.415 43.6535   2
   4   4   6 976.731 84.5425   2
  -4   4  -6 815.516 61.0863   2
   4  -4   6 790.286 62.6861   2
   4   4   7 381.239 65.2595   2
   4  -4   7 404.054 53.1881   2
  -4  -4  -7 343.460 19.3698   1
  -4   4  -7 473.918 51.4321   2
   4  -4   8 14525.7 254.736   2
  -4   4  -8 15012.6 249.029   2
   4   4   8 14091.8 292.437   2
   4   4   9 185.883 56.7724   2
   4  -4   9 143.498 42.6589   2
  -4   4  -9 139.940 32.7726   2
   4  -4  10 27639.4 360.826   2
  -4   4 -10 28308.1 356.543   2
   4   4  10 27826.0 427.398   2
   4  -4  11 5421.82 167.834   2
  -4   4 -11 5664.74 161.197   2
   4   4  11 5522.61 201.418   2
   4  -4  12 1130.24 84.7636   2
   4   4  12 1117.90 102.148   2
   4  -4  13 468.196 61.5660   2
   4   4  13 419.060 73.1141   2
   4  -4  14 2360.82 123.505   2
   4   4  14 2461.14 148.043   2
   4  -4  15 49.1654 37.8059   2
   4   4  15-71.0873 60.9399   2
   4  -4  16 98.9433 45.1240   2
   4   4  16 49.2310 51.7051   2
   4  -4  17 56.2554 42.0363   2
   4   4  17 9.10993 57.2877   2
   4  -4  18 176.994 52.3145   2
   4   4  18 107.746 64.6739   2
   4  -4  19 582.601 75.7670   2
   4   4  19 481.872 82.4928   2
   4  -4  20 6735.29 230.181   2
   4   4  20 7579.17 280.905   2
   4  -4  21 2392.91 148.235   2
   4   4  21 2520.91 173.643   2
   4  -4  22 8919.26 276.320   2
   4   4  22 8892.61 319.176   2
   4  -4  23 44.4597 49.5674   2
   4   4  23-75.1778 57.3506   2
   4   4  24 6.57799 58.6059   2
   4   4  25-70.7647 73.5372   2
   4   4  26 1753.52 158.950   2
   4   4  27 17.0778 63.8568   2
   4   4  28 2116.40 173.403   2
  -4   5  30 595.154 107.576   2
  -4   5  29 85.7257 70.0470   2
  -4   5  28 395.777 85.9537   2
  -4   5  27 39.7883 63.2566   2
  -4   5  26 294.886 87.2101   2
  -4   5  25 82.9713 59.5068   2
  -4  -5  25 117.918 51.0433   2
  -4   5  24 1424.75 138.068   2
  -4  -5  24 1360.88 110.188   2
  -4   5  23-107.950 65.1417   2
  -4  -5  23 2.07113 41.9092   2
  -4  -5  22 107.687 44.0863   2
  -4   5  22 106.998 62.7712   2
  -4  -5  21-19.8084 39.5987   2
  -4   5  21-87.5278 54.9762   2
  -4  -5  20 118.506 46.0385   2
  -4   5  20 188.869 67.3655   2
  -4  -5  19 153.055 48.2388   2
  -4   5  19 199.693 63.4809   2
  -4  -5  18 394.160 58.6484   2
  -4   5  18 342.842 77.4700   2
   4   5 -18 332.296 41.6272   3
  -4  -5  17 2104.10 111.415   2
   4   5 -17 2140.64 91.7840   3
  -4   5  17 2282.16 145.354   2
   4   5 -16 9091.73 181.699   3
  -4   5  16 8957.36 264.129   3
  -4   5  16 9601.16 280.597   2
   4   5 -15 381.158 42.4681   3
  -4   5  15 474.915 79.5763   2
  -4   5  15 249.788 56.6077   3
   4   5 -14 6913.40 152.115   3
  -4   5  14 7107.43 227.911   3
  -4  -5  14 7059.66 155.309   3
  -4   5  14 6828.25 229.163   2
   4   5 -13 860.436 54.8240   3
  -4   5  13 952.339 87.5710   3
  -4  -5  13 762.580 54.9525   3
   4   5 -12 6820.42 142.109   3
  -4   5  12 6778.63 209.020   3
  -4  -5  12 6793.47 145.397   3
   4   5 -11 839.092 51.5657   3
  -4  -5  11 887.793 53.9979   3
  -4   5  11 779.530 79.3859   3
  -4  -5  10 1024.87 55.5809   3
  -4   5  10 1063.02 86.3274   3
  -4  -5   9 3296.03 112.353   2
  -4  -5   9 3183.62 93.5426   3
  -4   5   9 3196.35 138.329   3
  -4  -5   8 2109.41 76.2126   3
  -4  -5   8 2110.42 89.1597   2
  -4   5   8 2173.19 114.185   3
  -4  -5   7 1650.13 69.5267   3
   4  -5  -7 1777.65 96.7364   3
  -4   5   7 1679.53 101.826   3
  -4  -5   7 1555.06 80.0905   2
  -4  -5   6 2841.70 89.9076   3
   4  -5  -6 3212.46 123.997   3
  -4   5   6 3191.10 129.541   3
  -4  -5   6 2996.31 104.332   2
   4  -5  -5 10287.1 215.642   3
  -4  -5   5 10119.7 167.564   3
  -4  -5   5 10445.3 192.547   2
  -4   5   5 10537.7 226.759   3
   4   5  -4 36580.6 374.946   2
  -4  -5   4 37956.4 362.410   2
  -4   5   4 37297.5 415.009   3
   4  -5  -4 38311.7 402.834   3
  -4  -5   3 1235.78 71.9816   2
  -4   5   3 1255.98 83.2949   3
   4  -5  -3 1216.23 76.1335   3
   4  -5  -3 1122.26 70.9811   1
   4   5  -3 1101.37 74.8415   2
  -4  -5   2 10477.5 197.352   2
  -4   5   2 10628.9 217.992   3
   4   5  -2 10322.5 204.151   2
   4  -5  -2 10534.7 207.094   3
   4  -5  -2 10540.5 189.656   1
  -4  -5   1 66.2488 35.1861   2
   4  -5  -1 94.9168 34.0486   1
  -4   5   1 133.130 44.5462   3
   4  -5  -1 122.915 38.5776   3
   4   5  -1 109.452 42.4997   2
  -4   5   0 1687.35 81.9605   2
   4  -5   0 1637.97 77.7369   1
   4   5   0 1586.34 90.3233   2
  -4   5   0 1632.66 89.5604   3
  -4  -5   0 1661.83 84.2127   2
   4   5   1 2214.45 106.696   2
  -4   5  -1 2257.96 102.951   3
  -4   5  -1 2448.37 96.2788   1
  -4  -5  -1 2343.42 100.877   2
  -4   5  -1 2315.59 93.9691   2
   4   5   2 137.362 51.5537   2
  -4   5  -2 159.736 39.2640   1
  -4   5  -2 118.036 42.8091   3
  -4   5  -2 170.812 37.2638   2
  -4  -5  -2 105.378 31.3287   2
   4   5   3 2652.86 121.539   2
  -4   5  -3 2760.24 99.7675   1
  -4   5  -3 2644.37 112.684   3
  -4   5  -3 2745.26 100.437   2
  -4  -5  -3 2697.37 114.136   2
   4   5   4 4440.65 156.839   2
  -4   5  -4 4209.20 122.492   1
  -4   5  -4 4382.17 126.110   2
   4  -5   4 4348.52 131.891   2
  -4  -5  -4 4459.49 148.230   2
   4  -5   5 973.340 68.5969   2
  -4   5  -5 1012.30 64.4585   2
   4   5   5 907.551 83.5281   2
   4  -5   6 18182.7 270.931   2
   4   5   6 18404.7 324.716   2
  -4   5  -6 19561.5 269.738   2
  -4   5  -7 9.19359 26.7884   2
   4   5   7-8.07033 43.3538   2
   4  -5   7-15.7726 31.1455   2
   4  -5   8 4918.20 146.557   2
  -4   5  -8 4950.56 142.265   2
  -4  -5  -8 4585.96 79.1970   1
   4   5   8 4973.85 181.156   2
   4  -5   9 1964.10 97.5209   2
  -4   5  -9 1905.07 91.7896   2
   4   5   9 1998.60 123.755   2
   4   5  10 2110.13 129.238   2
  -4   5 -10 2234.28 101.435   2
   4  -5  10 2394.32 108.784   2
   4  -5  11 2621.84 116.063   2
  -4   5 -11 2793.91 112.392   2
   4   5  11 2467.80 142.959   2
   4  -5  12 8610.63 209.118   2
   4   5  12 8606.95 258.511   2
   4  -5  13 28.0902 39.9626   2
   4   5  13 1.80705 51.8739   2
   4  -5  14 5098.10 170.177   2
   4   5  14 5504.20 218.199   2
   4  -5  15 3259.79 140.980   2
   4   5  15 3452.65 180.901   2
   4  -5  16 851.663 80.1914   2
   4   5  16 889.946 103.292   2
   4  -5  17 212.037 51.1125   2
   4   5  17 256.481 64.8644   2
   4  -5  18 5021.23 186.263   2
   4   5  18 5237.51 233.499   2
   4  -5  19 5209.09 191.151   2
   4   5  19 5446.61 241.639   2
   4  -5  20 1807.49 122.413   2
   4   5  20 1684.35 144.649   2
   4  -5  21-16.2223 42.2111   2
   4   5  21 48.8042 59.3762   2
   4  -5  22 1715.35 123.675   2
   4   5  22 1858.56 157.475   2
   4   5  23 202.307 80.8472   2
   4   5  24 5625.92 270.726   2
   4   5  25 95.8154 74.2685   2
   4   5  26 242.524 71.2006   2
   4   5  27 34.2061 60.4212   2
  -4   6  29 119.594 73.2798   2
  -4   6  28 465.407 97.9102   2
  -4   6  27 2357.24 182.087   2
  -4   6  26 567.587 102.060   2
  -4   6  25 414.964 88.7638   2
  -4   6  24-79.3537 64.1597   2
  -4  -6  24 75.4127 47.0290   2
  -4   6  23 23.1660 60.8948   2
  -4  -6  23 60.2616 43.4041   2
  -4  -6  22 1874.62 113.370   2
  -4   6  22 1877.61 149.519   2
  -4  -6  21 961.126 83.2524   2
  -4   6  21 1194.15 123.781   2
  -4  -6  20 1143.98 87.2473   2
  -4   6  20 887.387 113.123   2
  -4   6  19 8579.71 287.970   2
  -4  -6  19 8427.61 219.884   2
  -4   6  18 3952.29 195.599   2
   4   6 -18 3931.21 117.799   3
  -4  -6  18 3944.97 148.733   2
  -4   6  17 263.993 70.5190   2
   4   6 -17 251.387 35.3049   3
  -4  -6  17 218.609 45.7324   2
  -4   6  16 145.102 65.0364   2
   4   6 -16 162.563 31.4057   3
  -4   6  16 126.520 55.6796   3
  -4   6  15 202.295 67.9108   2
   4   6 -15 104.633 24.3539   3
  -4   6  15 90.1729 53.1898   3
   4   6 -14 18.3482 19.5536   3
  -4   6  14 11.3501 46.9158   3
  -4   6  14-32.0339 50.0174   2
   4   6 -13 4895.86 117.300   3
  -4   6  13 4974.65 196.010   3
  -4  -6  13 4875.65 117.579   3
   4   6 -12 1012.93 53.3741   3
  -4  -6  12 964.490 53.3632   3
  -4   6  12 985.280 93.4966   3
  -4  -6  11 178.105 39.0590   2
  -4  -6  11 178.808 27.4525   3
  -4   6  11 143.133 46.7709   3
  -4  -6  10 452.483 48.6656   2
  -4  -6  10 445.888 37.0409   3
  -4   6  10 495.313 68.5476   3
  -4  -6   9 11099.9 163.008   3
  -4   6   9 11202.7 259.269   3
  -4  -6   9 11563.4 203.995   2
  -4  -6   8 3421.11 91.4507   3
  -4   6   8 3668.00 148.623   3
  -4  -6   8 3366.05 110.695   2
  -4  -6   7 6297.63 151.366   2
  -4   6   7 6132.97 184.514   3
  -4  -6   7 6040.99 121.908   3
  -4  -6   6 268.826 34.6375   3
  -4  -6   6 281.987 39.0460   2
  -4   6   6 232.035 50.9487   3
   4  -6  -5 1363.34 84.1760   3
  -4  -6   5 1448.87 76.8113   2
  -4   6   5 1516.44 96.6286   3
   4   6  -4 4962.11 141.348   2
  -4  -6   4 5379.32 138.835   2
   4  -6  -4 5381.87 152.523   1
  -4   6   4 4960.34 158.695   3
   4  -6  -4 5311.60 156.986   3
  -4  -6   3 11319.9 204.553   2
   4  -6  -3 11443.8 223.547   3
  -4   6   3 11272.0 231.960   3
   4  -6  -3 11586.9 215.227   1
   4   6  -3 10522.4 206.461   2
   4  -6  -2 3244.75 113.975   1
   4  -6  -2 3240.36 120.485   3
  -4   6   2 3055.69 124.234   3
   4   6  -2 3188.94 118.285   2
  -4  -6   2 3178.46 112.602   2
   4   6  -1 11495.4 219.957   2
  -4   6   1 11815.3 233.526   3
   4  -6  -1 12049.6 224.350   3
   4  -6  -1 11296.9 204.539   1
  -4  -6   1 11856.3 215.465   2
   4  -6   0 1561.44 77.6709   1
   4   6   0 1402.14 86.8229   2
  -4   6   0 1568.09 89.7184   3
  -4  -6   0 1633.53 85.6773   2
  -4   6  -1 44.0098 41.9155   1
  -4   6  -1 1.20885 27.6139   2
   4   6   1 42.6084 38.1887   2
  -4   6  -1 22.3876 37.3411   3
  -4  -6  -1 61.1495 30.8669   2
   4   6   2 1221.51 88.0232   2
  -4   6  -2 1229.90 81.5998   3
   4   6   2 1237.60 45.5802   1
  -4  -6  -2 1321.79 84.4395   2
  -4   6  -2 1237.58 70.3801   2
  -4   6  -2 1203.59 75.3967   1
   4   6   3 229.324 53.9450   2
  -4   6  -3 297.890 46.7663   1
  -4   6  -3 248.159 47.1078   3
   4   6   3 284.003 25.1909   1
  -4  -6  -3 290.883 48.1752   2
  -4   6  -3 263.275 36.9994   2
  -4   6  -4 878.779 66.1469   1
  -4   6  -4 951.332 73.0242   3
  -4   6  -4 972.576 62.7769   2
   4   6   4 875.831 80.3526   2
   4   6   5 5963.00 187.332   2
  -4   6  -5 6059.06 147.516   2
  -4   6  -5 5701.21 151.996   1
  -4   6  -6 1206.05 69.4382   2
   4  -6   6 1181.04 74.2739   2
   4   6   6 1356.70 99.3163   2
   4  -6   7 8155.48 181.727   2
   4   6   7 8169.63 227.836   2
  -4   6  -7 8093.05 174.192   2
   4   6   8 4331.97 175.085   2
  -4  -6  -8 4280.23 83.9882   1
   4  -6   8 4446.94 136.159   2
  -4   6  -8 4788.94 136.704   2
   4  -6   9 18579.2 281.159   2
  -4   6  -9 19153.7 274.837   2
   4   6   9 18105.8 355.853   2
  -4  -6  -9 18378.3 183.429   1
  -4   6 -10 3230.79 117.678   2
   4  -6  10 3119.57 120.086   2
   4   6  10 3197.28 159.740   2
  -4  -6 -10 3178.23 83.0244   1
  -4   6 -11 3298.67 120.042   2
   4  -6  11 3070.57 121.838   2
   4   6  11 3045.82 159.094   2
   4  -6  12 27.1989 32.1136   2
   4   6  12 4.83665 53.6843   2
  -4   6 -12 71.9758 28.0898   2
   4  -6  13-1.53458 32.1235   2
   4   6  13 8.77059 50.9618   2
   4  -6  14 2487.41 115.761   2
   4   6  14 2598.63 159.156   2
   4  -6  15 14609.3 282.476   2
   4   6  15 14531.5 362.572   2
   4  -6  16 4271.85 158.349   2
   4   6  16 4115.35 199.953   2
   4  -6  17 533.273 63.3401   2
   4   6  17 540.375 86.7920   2
   4  -6  18 897.721 81.2264   2
   4   6  18 944.302 111.045   2
   4  -6  19 4392.83 171.840   2
   4   6  19 4385.25 221.397   2
   4  -6  20 3876.68 166.094   2
   4   6  20 3967.68 214.771   2
   4  -6  21 5343.84 199.598   2
   4   6  21 5405.54 255.539   2
   4   6  22 1325.05 139.550   2
   4   6  23 1333.77 140.650   2
   4   6  24-63.1173 70.3184   2
   4   6  25 84.5744 66.7990   2
   4   6  26 747.921 114.506   2
  -4   7  29 896.033 129.954   2
  -4   7  28 700.000 116.283   2
  -4   7  27 399.535 92.9728   2
  -4   7  26-55.0172 69.7328   2
  -4   7  25 115.609 64.6144   2
  -4   7  24 248.712 74.7797   2
  -4   7  23 3088.70 195.397   2
  -4  -7  22 1229.16 93.0606   2
  -4   7  22 1213.79 127.657   2
  -4  -7  21 608.049 65.3213   2
  -4   7  21 644.702 101.844   2
  -4  -7  20 832.220 74.1107   2
  -4   7  20 737.722 101.124   2
  -4   7  19-0.67550 61.7016   2
  -4  -7  19 13.4979 31.4963   2
  -4   7  18 2243.88 154.979   2
  -4  -7  18 2312.25 111.917   2
  -4   7  17 1292.74 118.115   2
   4   7 -17 1256.33 61.7948   3
  -4  -7  17 1374.54 85.3929   2
  -4   7  16 0.07055 53.8859   3
   4   7 -16 17.3845 20.2474   3
   4   7 -15 10918.9 169.617   3
  -4   7  15 11300.7 308.836   2
  -4   7  15 11311.3 299.306   3
   4   7 -14 1743.94 67.3467   3
  -4   7  14 1750.58 121.905   3
  -4   7  14 1778.35 126.736   2
  -4  -7  13 393.430 44.9598   2
  -4  -7  13 444.371 37.5412   3
  -4   7  13 495.439 76.8526   3
  -4   7  13 417.021 72.1728   2
  -4  -7  12 66.6189 28.5690   2
  -4  -7  12 60.6269 20.1698   3
  -4   7  12 110.982 50.2965   3
  -4   7  11 4904.09 185.915   3
  -4  -7  11 4911.82 102.695   3
  -4  -7  11 4890.47 137.519   2
  -4  -7  10 1254.37 53.1641   3
  -4   7  10 1437.60 105.633   3
  -4  -7  10 1228.89 72.0030   2
  -4  -7   9 0.73668 17.2818   3
  -4   7   9 11.6426 48.3358   3
  -4  -7   9-12.5742 23.6192   2
  -4  -7   8 2737.07 77.9514   3
  -4  -7   8 2799.90 102.730   2
  -4   7   8 2822.08 137.336   3
  -4  -7   7 476.972 37.1415   3
  -4   7   7 370.469 60.3021   3
  -4  -7   7 354.352 40.6767   2
  -4  -7   6 1390.10 73.0926   2
  -4  -7   6 1377.84 60.0096   3
  -4   7   6 1527.75 97.8667   3
  -4  -7   5 11616.1 205.064   2
   4   7  -5 11621.1 209.921   2
  -4   7   5 11903.2 251.097   3
   4  -7  -5 12127.7 240.897   1
   4   7  -4 3953.34 128.028   2
  -4  -7   4 4036.00 123.799   2
   4  -7  -4 4346.78 147.281   3
  -4   7   4 3935.21 146.762   3
   4  -7  -4 4235.59 142.591   1
   4  -7  -3 16020.4 271.487   3
  -4   7   3 15836.6 280.740   3
   4   7  -3 15062.8 246.026   2
   4  -7  -3 16048.4 263.342   1
  -4  -7   3 16354.6 247.429   2
   4  -7  -2 4410.56 142.332   3
   4  -7  -2 4323.53 137.890   1
   4   7  -2 4032.63 136.089   2
  -4   7   2 4373.26 147.483   3
  -4  -7   2 4143.50 131.486   2
   4  -7  -1 8162.55 184.236   1
  -4   7   1 7793.65 194.999   3
   4   7  -1 7676.35 183.848   2
   4  -7  -1 8360.81 192.145   3
  -4  -7   1 7870.81 180.882   2
   4   7   0 966.969 76.4648   2
  -4   7   0 1050.81 79.9386   3
   4  -7   0 1248.40 76.3918   3
  -4  -7   0 1176.51 74.4079   2
  -4   7   0 1325.78 85.8112   1
  -4   7  -1 352.349 54.0813   1
   4   7   1 346.817 54.3785   2
  -4   7  -1 411.862 46.1377   2
  -4   7  -1 282.134 49.8670   3
  -4  -7  -1 346.847 47.5819   2
   4   7   2 13300.3 259.727   2
   4   7   2 12866.2 160.007   1
  -4   7  -2 12769.9 247.163   3
  -4  -7  -2 13384.7 253.043   2
  -4   7  -2 13388.4 218.199   2
  -4   7  -2 12935.5 236.821   1
   4   7   3 11881.9 251.004   2
  -4   7  -3 11833.5 234.470   3
  -4   7  -3 12207.8 208.219   2
   4   7   3 11876.8 146.147   1
  -4   7  -3 11609.2 223.211   1
  -4   7  -4 1533.31 86.4778   1
  -4   7  -4 1621.33 77.7081   2
  -4   7  -4 1447.40 87.5925   3
   4   7   4 1613.79 103.695   2
  -4   7  -5 15393.7 260.467   1
  -4   7  -5 15584.0 233.165   2
  -4   7  -5 15451.4 272.529   3
   4   7   5 14568.6 295.686   2
   4   7   6-24.4394 43.4860   2
  -4   7  -6-6.59221 25.4489   2
  -4   7  -6 11.5096 37.0882   3
   4  -7   7 25429.2 312.583   2
   4   7   7 25059.1 399.564   2
  -4   7  -7 26005.7 306.892   2
  -4   7  -8 78.6463 26.8534   2
   4  -7   8 98.4937 34.5016   2
   4   7   8 70.6168 50.7886   2
   4  -7   9 573.089 55.7006   2
  -4  -7  -9 558.316 37.8014   1
  -4   7  -9 627.086 54.5812   2
   4   7   9 602.801 79.5747   2
  -4   7 -10 2652.23 104.209   2
  -4  -7 -10 2421.76 77.0163   1
   4   7  10 2645.71 149.653   2
   4  -7  10 2529.19 105.683   2
  -4  -7 -11 14227.9 190.826   1
  -4   7 -11 14825.5 242.730   2
   4  -7  11 14140.9 248.955   2
   4   7  11 14295.3 335.601   2
  -4  -7 -12 323.287 37.6961   1
   4  -7  12 227.111 42.8491   2
   4   7  12 293.788 66.3833   2
  -4   7 -12 303.840 40.9745   2
  -4   7 -13 8219.24 186.373   2
   4  -7  13 7888.29 195.132   2
   4   7  13 7474.89 255.053   2
   4  -7  14 558.902 61.3096   2
   4   7  14 516.934 81.2611   2
   4  -7  15-28.0606 31.2922   2
   4   7  15-39.3455 57.3898   2
   4   7  16 1207.97 122.660   2
   4  -7  16 1129.47 83.1971   2
   4  -7  17 1884.55 105.920   2
   4   7  17 1693.40 141.801   2
   4  -7  18 812.055 74.0294   2
   4   7  18 990.428 112.024   2
   4  -7  19 4517.73 168.958   2
   4   7  19 4333.02 226.979   2
   4  -7  20 328.913 56.9069   2
   4   7  20 390.025 90.3961   2
   4   7  21 262.515 81.9091   2
   4   7  22-0.87281 67.0038   2
   4   7  23 3368.87 211.966   2
   4   7  24 66.0336 70.2750   2
   4   7  25 3234.54 220.019   2
   4   7  26 632.025 109.694   2
  -4   8  28 14.7082 59.5702   2
  -4   8  27-6.95601 68.2272   2
  -4   8  26 1765.65 164.243   2
  -4   8  25-33.8069 71.2411   2
  -4   8  24-67.1951 66.7177   2
  -4   8  23 217.199 74.3615   2
  -4   8  22 1394.66 141.993   2
  -4  -8  21 81.0700 34.2088   2
  -4   8  21 145.603 69.6908   2
  -4  -8  20 5899.34 177.849   2
  -4   8  20 6494.21 263.835   2
  -4  -8  19 2648.11 116.484   2
  -4   8  19 1965.28 166.331   2
  -4   8  18 5197.33 229.683   2
  -4  -8  18 5173.94 158.018   2
  -4   8  17 448.763 83.1480   2
  -4  -8  17 444.571 51.3427   2
  -4   8  16 3033.54 168.501   3
  -4   8  16 2876.07 168.559   2
  -4   8  15 363.697 70.6770   2
  -4  -8  15 332.184 40.7951   2
  -4   8  15 363.576 78.4389   3
  -4  -8  14 617.851 51.4373   2
  -4   8  14 799.391 93.3606   3
  -4   8  14 702.798 90.4600   2
  -4   8  13 2100.55 136.483   3
  -4  -8  13 1871.05 87.1205   2
  -4   8  13 2114.30 136.876   2
  -4  -8  12 213.845 38.3553   2
  -4   8  12 254.730 68.6655   2
  -4   8  12 180.253 63.3514   3
  -4  -8  12 170.834 22.0465   3
  -4  -8  11 1372.24 73.5249   2
  -4  -8  11 1287.40 48.8829   3
  -4   8  11 1477.94 111.046   3
  -4  -8  10 116.412 18.7856   3
  -4  -8  10 134.610 29.5848   2
  -4   8  10 176.321 60.1547   3
  -4  -8   9 2416.17 66.9270   3
  -4  -8   9 2494.17 94.4196   2
  -4   8   9 2418.11 128.678   3
  -4  -8   8 10138.6 186.227   2
  -4  -8   8 10288.4 141.420   3
  -4   8   8 10244.7 256.911   3
  -4  -8   7 3126.89 106.121   2
  -4  -8   7 3170.36 82.3900   3
  -4   8   7 3113.83 142.576   3
  -4  -8   6 2288.04 92.7884   2
  -4  -8   6 2382.41 76.5727   3
  -4   8   6 2435.86 126.425   3
  -4  -8   5 260.345 39.7777   2
   4   8  -5 271.412 43.5861   2
  -4   8   5 347.463 58.0133   3
  -4   8   4 22455.7 346.398   3
   4   8  -4 22140.6 293.889   2
  -4  -8   4 22790.3 289.263   2
  -4  -8   3 1066.78 68.1930   2
   4   8  -3 1079.58 74.8422   2
  -4   8   3 1252.48 90.0349   3
   4  -8  -2 20.4021 34.5583   3
   4  -8  -2 75.5386 40.1286   1
  -4   8   2-5.61559 41.8031   3
   4   8  -2 22.6034 35.6426   2
  -4  -8   2 25.2875 31.3364   2
   4   8  -1 3701.34 132.768   2
   4  -8  -1 3890.84 138.100   3
  -4   8   1 3751.26 140.823   3
  -4  -8   1 3820.51 128.650   2
   4  -8  -1 3679.42 131.335   1
  -4   8   0 926.965 75.4635   3
   4   8   0 806.817 72.7695   2
   4  -8   0 966.863 71.0075   3
  -4   8   0 943.137 80.0489   1
  -4  -8   0 871.238 68.9506   2
  -4   8  -1 147.897 52.9811   1
   4   8   1 131.899 43.8694   2
  -4   8  -1 135.369 34.3322   2
  -4   8  -1 99.5713 37.9230   3
  -4  -8  -1 154.754 42.2839   2
   4   8   2 550.139 65.2466   2
  -4   8  -2 588.064 50.6546   2
  -4   8  -2 517.959 66.3191   1
   4   8   2 510.872 40.7997   1
  -4   8  -2 544.954 61.5395   3
  -4   8  -3 23893.4 339.218   3
  -4   8  -3 23892.2 336.437   1
  -4   8  -3 24263.3 294.132   2
   4   8   3 24380.3 233.186   1
   4   8   3 24407.8 365.844   2
  -4   8  -4 7730.12 193.724   3
  -4   8  -4 7769.33 165.722   2
  -4   8  -4 7537.97 193.945   1
   4   8   4 7262.83 210.617   2
  -4   8  -5 1222.78 67.8274   2
  -4   8  -5 1180.46 83.9218   3
  -4   8  -5 1215.08 84.4212   1
   4   8   5 1243.51 98.0373   2
  -4   8  -6 406.039 41.8867   2
  -4   8  -6 479.044 59.9154   3
   4   8   6 471.204 68.2327   2
  -4   8  -7 146.896 29.9125   2
  -4   8  -7 104.967 41.4622   3
   4   8   7 69.6367 53.2468   2
   4   8   8 14662.4 323.118   2
  -4   8  -8 14585.0 228.799   2
   4  -8   9 11341.7 209.931   2
  -4  -8  -9 10908.4 163.348   1
  -4   8  -9 10775.7 198.478   2
   4   8   9 11294.5 290.614   2
  -4   8 -10 3891.63 121.748   2
   4  -8  10 3967.06 128.362   2
  -4  -8 -10 3834.07 101.257   1
   4   8  10 4035.15 181.329   2
  -4  -8 -11 4267.19 109.634   1
  -4   8 -11 4290.81 128.882   2
   4   8  11 4135.29 189.929   2
   4  -8  11 4445.98 137.111   2
   4  -8  12-41.6133 33.3450   2
  -4  -8 -12-10.4536 23.3338   1
  -4   8 -12-7.18029 24.1326   2
   4   8  12 25.0251 57.8459   2
  -4  -8 -13 2566.05 92.2011   1
  -4   8 -13 2796.93 107.037   2
   4   8  13 2633.91 163.346   2
   4  -8  13 2731.34 113.753   2
   4   8  14 2792.81 169.986   2
  -4  -8 -14 2726.25 97.0396   1
   4  -8  14 2957.64 118.844   2
   4  -8  15 74.8507 32.2134   2
   4   8  15 87.2510 57.0904   2
   4  -8  16 2755.20 121.194   2
   4   8  16 2872.99 177.631   2
   4  -8  17 404.859 53.9015   2
   4   8  17 408.375 84.5584   2
   4  -8  18 135.214 44.1696   2
   4   8  18 157.381 76.0451   2
   4  -8  19-7.30690 32.5506   2
   4   8  19 200.514 76.9873   2
   4   8  20 2248.81 172.540   2
   4   8  21 3157.34 203.341   2
   4   8  22 2110.98 172.561   2
   4   8  23 1020.15 130.522   2
   4   8  24 1890.03 170.594   2
   4   8  25 115.828 73.4231   2
  -4   9  27 34.9639 72.3772   2
  -4   9  26-72.9609 71.6222   2
  -4   9  25-0.11782 64.1998   2
  -4   9  24 6978.25 300.217   2
  -4   9  23 827.854 115.718   2
  -4   9  22 1275.35 133.622   2
  -4   9  21-63.2133 66.2350   2
  -4  -9  20 134.762 39.2401   2
  -4   9  20 30.5275 64.4126   2
  -4  -9  19 750.456 65.6236   2
  -4   9  19 673.635 109.277   2
  -4   9  18 5452.95 240.667   2
  -4  -9  18 5564.05 157.098   2
  -4   9  17-20.0537 59.9692   2
  -4  -9  17 7.09611 26.7841   2
  -4   9  16 15221.4 381.356   2
  -4  -9  16 14591.9 229.447   2
  -4   9  15-15.5193 60.1221   2
  -4  -9  15 52.8462 23.0821   2
  -4   9  15 39.6511 56.7717   3
  -4   9  14 2338.37 145.154   3
  -4  -9  14 2271.67 92.2587   2
  -4   9  14 2340.86 145.921   2
  -4   9  13 35.5983 50.1323   2
  -4   9  13 90.3850 54.5076   3
  -4  -9  13 142.832 29.6916   2
  -4  -9  12 1539.27 74.8669   2
  -4   9  12 1413.14 116.193   3
  -4   9  12 1649.30 123.080   2
  -4  -9  11 1250.52 68.6991   2
  -4   9  11 1316.04 109.786   3
  -4  -9  11 1276.41 42.4466   3
  -4   9  11 1566.09 115.915   2
  -4  -9  10 721.192 52.3381   2
  -4   9  10 827.042 91.4332   3
  -4  -9  10 822.408 35.1521   3
  -4  -9   9 4322.13 122.034   2
  -4  -9   9 4125.84 80.2625   3
  -4   9   9 4322.72 177.336   3
  -4  -9   8 5318.78 136.431   2
  -4  -9   8 5149.69 95.2827   3
  -4   9   8 5306.67 190.323   3
  -4  -9   7 16.1156 24.2043   2
  -4  -9   7 5.29361 16.1423   3
  -4   9   7 44.6070 44.2873   3
   4   9  -6 11091.2 207.446   2
  -4   9   6 11361.4 263.334   3
  -4  -9   6 10811.8 198.176   2
  -4  -9   5 182.845 33.5372   2
   4   9  -5 234.985 40.7928   2
  -4   9   5 206.346 51.9491   3
  -4   9   4 683.403 73.7623   3
   4   9  -4 679.506 59.4080   2
  -4  -9   4 603.258 54.0963   2
  -4   9   3 604.445 68.7276   3
  -4  -9   3 600.080 55.2635   2
   4   9  -3 518.937 57.6036   2
   4   9  -2 28.7633 37.5347   2
  -4   9   2 36.3794 46.3397   3
  -4  -9   2 72.4344 32.2518   2
   4   9  -1 4514.29 147.489   2
  -4   9   1 4704.10 159.062   3
  -4  -9   1 4744.25 147.282   2
   4   9   0 2354.70 112.560   2
  -4  -9   0 2374.27 108.811   2
  -4   9   0 2268.07 113.196   3
   4  -9   0 2434.07 110.386   3
  -4   9   0 2247.21 114.626   1
   4   9   1 1059.39 87.0944   2
  -4   9  -1 1145.68 81.3930   3
  -4  -9  -1 1207.95 81.6769   2
  -4   9  -1 1118.83 86.5570   1
   4   9   2 4886.17 170.106   2
  -4   9  -2 5018.75 166.469   1
  -4   9  -2 5021.22 138.656   2
  -4   9  -2 4887.07 158.858   3
   4   9   2 5084.88 122.694   1
   4   9   3 288.924 64.7872   2
  -4   9  -3 258.109 37.9332   2
  -4   9  -3 254.258 48.2351   3
  -4   9  -3 226.373 51.6503   1
   4   9   3 302.532 39.4635   1
  -4   9  -4 2469.28 115.114   3
  -4   9  -4 2509.82 96.6686   2
  -4   9  -4 2347.73 117.761   1
   4   9   4 2377.14 127.289   2
  -4   9  -5 2464.54 94.3582   2
  -4   9  -5 2309.16 113.025   3
  -4   9  -5 2379.11 117.383   1
   4   9   5 2306.90 128.915   2
  -4   9  -6 22154.3 277.128   2
  -4   9  -6 21741.4 333.117   3
   4   9   6 22395.0 385.931   2
  -4   9  -7 72.9296 39.0778   3
  -4   9  -7 43.3312 23.4037   2
   4   9   7 67.3937 47.7338   2
  -4   9  -8 84.1462 26.0823   2
  -4   9  -8 70.4765 36.9687   3
   4   9   8 61.3188 46.8460   2
  -4   9  -9 691.897 67.2189   3
  -4   9  -9 737.559 54.2950   2
   4   9   9 694.493 86.3025   2
  -4   9 -10 1810.35 81.7338   2
  -4  -9 -10 1779.50 73.3878   1
   4   9  10 1974.74 137.515   2
  -4   9 -11 2607.42 98.0659   2
   4  -9  11 2640.03 103.247   2
   4   9  11 2787.97 160.081   2
  -4  -9 -11 2429.96 86.8950   1
   4  -9  12 1126.45 70.8604   2
  -4   9 -12 1094.40 64.9737   2
  -4  -9 -12 887.696 56.2533   1
   4   9  12 1079.71 112.084   2
   4  -9  13 300.959 43.4202   2
  -4   9 -13 213.679 35.7209   2
  -4  -9 -13 191.760 32.2309   1
   4   9  13 239.409 74.5244   2
   4  -9  14 557.796 53.7245   2
  -4  -9 -14 583.653 48.6499   1
   4   9  14 566.353 89.5905   2
   4   9  15 1856.87 146.517   2
   4  -9  15 1941.17 95.3758   2
   4   9  16 114.336 62.9875   2
   4  -9  16 132.949 39.1895   2
   4  -9  17 1903.05 100.281   2
   4   9  17 1875.74 152.777   2
   4   9  18 3723.18 211.092   2
   4   9  19 152.955 76.0153   2
   4   9  20 1037.51 125.533   2
   4   9  21 369.430 97.8287   2
   4   9  22 349.075 94.8622   2
   4   9  23 30.4925 74.1571   2
   4   9  24 1128.14 141.009   2
   4   9  25 62.6501 73.0890   2
  -4  10  27 187.357 90.4905   2
  -4  10  26 3036.89 216.056   2
  -4  10  25 1057.54 142.880   2
  -4  10  24 104.163 73.6609   2
  -4  10  23 945.486 130.281   2
  -4  10  22 8.57780 68.3704   2
  -4  10  21 5085.25 258.655   2
  -4  10  20 5640.32 258.249   2
  -4  10  19 1224.80 132.014   2
  -4 -10  18 386.601 46.6795   2
  -4  10  18 335.901 82.1999   2
  -4 -10  17 415.769 47.6055   2
  -4  10  17 484.232 96.6258   2
  -4  10  16 1030.41 112.355   2
  -4  10  15 1269.92 119.226   2
  -4 -10  15 1165.91 65.1164   2
  -4  10  15 1257.45 116.496   3
  -4  10  14 34.2305 54.9842   2
  -4 -10  14 17.1326 20.7943   2
  -4  10  14 50.4789 57.9654   3
  -4  10  13 194.611 64.0337   2
  -4 -10  13 154.129 29.9826   2
  -4  10  13 149.438 61.2279   3
  -4  10  12 100.731 51.5235   2
  -4 -10  12 25.6536 21.2878   2
  -4  10  12 54.4432 57.9479   3
  -4 -10  11 2083.09 84.8082   2
  -4  10  11 2283.73 140.837   3
  -4  10  11 2217.01 134.912   2
  -4 -10  10 11691.4 196.230   2
  -4  10  10 11239.1 292.766   3
  -4  10  10 12202.2 297.882   2
  -4 -10   9 1660.35 77.8477   2
  -4 -10   9 1660.99 46.3477   3
  -4  10   9 1650.85 118.003   3
  -4 -10   8 7470.80 108.799   3
  -4  10   8 7943.27 237.405   3
  -4 -10   8 7614.71 162.784   2
  -4 -10   7 592.310 37.2750   3
  -4  10   7 561.866 74.3400   3
  -4 -10   7 556.755 49.1497   2
  -4 -10   6 300.346 39.0721   2
   4  10  -6 263.018 41.2580   2
  -4  10   6 302.429 58.7280   3
   4  10  -5 226.549 37.2819   2
  -4  10   5 362.887 65.5026   3
  -4 -10   5 258.275 38.4317   2
  -4  10   4 1494.57 102.994   3
   4  10  -4 1386.45 80.6557   2
  -4 -10   4 1349.29 75.7974   2
  -4  10   3 67.0504 46.0575   3
   4  10  -3 56.6094 31.1968   2
  -4 -10   3 78.8920 30.3832   2
  -4 -10   2 1367.19 83.0091   2
   4  10  -2 1358.25 84.2379   2
  -4  10   2 1330.28 94.4818   3
   4  10  -1 138.221 43.6943   2
  -4  10   1 177.897 49.7265   3
  -4 -10   1 68.4305 34.6020   2
  -4  10   0 2266.85 121.166   1
   4  10   0 2194.30 110.379   2
  -4 -10   0 2373.18 109.112   2
  -4  10   0 2182.20 111.291   3
   4  10   1 161.054 48.4511   2
  -4  10  -1 89.3876 49.1506   1
  -4  10  -1 128.245 44.0631   3
  -4  10  -2 182.076 49.4288   3
   4  10   2 156.238 33.8432   1
   4  10   2 127.843 44.2068   2
  -4  10  -2 174.232 33.1140   2
  -4  10  -2 85.8917 44.3823   1
  -4  10  -3 3432.39 137.236   3
  -4  10  -3 3518.79 147.026   1
   4  10   3 3606.06 109.513   1
  -4  10  -3 3322.88 112.240   2
   4  10   3 3511.82 147.411   2
   4  10   4 104.982 51.2878   2
  -4  10  -4 8.47370 21.8638   2
  -4  10  -4-19.8172 52.1419   1
  -4  10  -4 28.8044 37.9134   3
   4  10   4 46.8259 31.1552   1
   4  10   5 56.2360 47.1368   2
  -4  10  -5 19.9023 49.2376   1
  -4  10  -5 33.8073 36.0210   3
  -4  10  -5 57.0118 22.8026   2
  -4  10  -6-8.06269 21.0334   2
  -4  10  -6 46.8558 36.0782   3
  -4  10  -6-15.1868 50.8862   1
   4  10   6 10.0147 43.2312   2
  -4  10  -7 3699.84 113.272   2
  -4  10  -7 3667.20 140.077   3
   4  10   7 3773.97 170.520   2
  -4  10  -8 4470.94 154.690   3
   4  10   8 4745.31 194.588   2
  -4  10  -8 4687.07 125.675   2
  -4  10  -9 5536.75 174.971   3
  -4  10  -9 5875.35 139.678   2
   4  10   9 5664.92 217.499   2
  -4  10 -10 132.068 43.5674   3
  -4  10 -10 89.3905 26.2728   2
   4  10  10 67.0173 53.1113   2
  -4  10 -11 2.14422 37.1372   3
  -4  10 -11 21.0551 25.3219   2
  -4 -10 -11-29.6854 28.6647   1
   4  10  11-44.5758 51.0509   2
  -4  10 -12 2446.36 120.549   3
  -4  10 -12 2487.26 92.4719   2
   4  10  12 2494.10 157.859   2
  -4 -10 -12 2184.65 88.3858   1
  -4 -10 -13-49.6516 29.2578   1
   4  10  13-66.8703 56.8060   2
  -4  10 -13-10.2463 22.5954   2
   4 -10  14 537.073 51.4030   2
   4  10  14 476.910 88.7168   2
   4 -10  15 29.7731 26.1487   2
   4  10  15 29.4924 62.7681   2
   4  10  16 950.587 117.731   2
   4 -10  16 957.475 67.8877   2
   4  10  17 2197.53 166.690   2
   4  10  18 1849.01 157.021   2
   4  10  19 1032.73 128.746   2
   4  10  20 540.412 100.522   2
   4  10  21 2498.98 188.180   2
   4  10  22 3081.78 212.621   2
   4  10  23 438.076 103.702   2
   4  10  24 92.7174 77.8257   2
  -4  11  26 70.0049 75.9979   2
  -4  11  25 1816.31 168.994   2
  -4  11  24 168.720 66.6198   2
  -4  11  23 4766.21 253.962   2
  -4  11  22 504.038 97.2839   2
  -4  11  21 1735.93 154.880   2
  -4  11  20 890.400 114.404   2
  -4  11  19 2892.25 195.372   2
  -4  11  18 246.922 73.4286   2
  -4  11  17 3077.74 201.471   2
  -4 -11  17 3731.47 114.348   2
  -4  11  16 90.4268 60.5969   2
  -4  11  15 1084.19 115.695   3
  -4  11  15 1028.48 112.884   2
  -4  11  14 1216.27 117.068   3
  -4  11  14 1026.68 109.751   2
  -4 -11  14 1069.22 59.2284   2
  -4  11  13-14.4045 55.7390   2
  -4 -11  13 18.7656 21.4221   2
  -4  11  13-53.0526 64.9236   3
  -4  11  12 381.385 73.1003   2
  -4 -11  12 455.539 40.2577   2
  -4  11  12 463.374 82.4250   3
  -4 -11  11 8650.09 163.992   2
  -4  11  11 8885.49 276.101   3
  -4  11  11 8632.79 265.322   2
  -4  11  10 337.588 67.7315   2
  -4 -11  10 280.107 35.2623   2
  -4  11  10 232.263 56.2741   3
  -4 -11   9 2487.05 91.7281   2
  -4 -11   9 2094.16 43.7541   3
  -4  11   9 2706.20 148.258   3
  -4  11   9 2207.15 143.103   2
  -4 -11   8 638.882 31.9141   3
  -4  11   8 651.315 84.3605   3
  -4 -11   8 633.085 49.6028   2
  -4 -11   7 6619.52 110.155   3
  -4  11   7 6964.58 226.722   3
  -4 -11   7 6717.69 154.976   2
   4  11  -6 2160.52 95.5616   2
  -4  11   6 2255.74 131.414   3
  -4 -11   6 2264.49 94.2566   2
  -4 -11   5 3612.59 120.707   2
  -4  11   5 3904.75 162.689   3
   4  11  -5 3717.71 124.749   2
  -4 -11   4 2570.28 105.627   2
   4  11  -4 2515.83 109.432   2
  -4  11   4 2637.01 132.288   3
   4  11  -3 1510.39 87.1984   2
  -4 -11   3 1478.40 83.0957   2
  -4  11   3 1438.36 100.699   3
   4  11  -2 8965.67 208.443   2
  -4 -11   2 9579.91 207.640   2
  -4  11   2 9691.03 241.927   3
   4  11  -1 891.498 75.8188   2
  -4 -11   1 918.472 71.5234   2
  -4  11   1 1124.20 95.3047   1
  -4  11   1 1061.37 83.6966   3
  -4  11   0 181.099 59.4844   1
   4  11   0 121.598 42.5179   2
  -4  11   0 110.747 43.1415   3
   4  11   1 1285.43 92.9826   2
   4  11   1 1349.93 78.4914   1
  -4  11  -1 1380.69 93.4877   3
  -4  11  -1 1417.85 102.622   1
  -4  11  -2 891.748 62.8163   2
  -4  11  -2 820.072 72.9401   3
   4  11   2 868.259 63.8384   1
  -4  11  -2 863.059 85.8851   1
   4  11   2 854.523 80.5493   2
   4  11   3 682.083 76.5640   2
  -4  11  -3 925.004 87.6714   1
  -4  11  -3 789.305 77.1674   3
   4  11   3 964.467 67.8168   1
  -4  11  -3 845.497 59.5707   2
  -4  11  -4 1868.28 114.352   1
  -4  11  -4 2191.38 113.007   3
   4  11   4 2083.17 91.1556   1
  -4  11  -4 2152.39 89.9689   2
   4  11   4 1859.34 119.555   2
  -4  11  -5 1164.27 93.8232   1
  -4  11  -5 1080.91 81.2618   3
  -4  11  -5 1105.22 64.2720   2
   4  11   5 900.994 91.9143   2
  -4  11  -6 1493.71 73.0036   2
  -4  11  -6 1388.78 89.6287   3
   4  11   6 1492.98 112.847   2
  -4  11  -6 1432.80 107.694   1
  -4  11  -7 13674.9 212.543   2
  -4  11  -7 12965.0 263.311   3
   4  11   7 13050.9 318.707   2
  -4  11  -8 637.931 66.2424   3
   4  11   8 669.657 88.6403   2
  -4  11  -8 628.027 48.7205   2
  -4  11  -9 2062.49 110.340   3
   4  11   9 2144.28 141.897   2
  -4  11  -9 2136.79 83.8545   2
  -4  11 -10 298.240 51.0839   3
   4  11  10 264.183 68.8386   2
  -4  11 -10 285.957 35.8520   2
  -4  11 -11 2642.83 124.377   3
  -4  11 -11 2709.51 92.5169   2
   4  11  11 2233.60 154.020   2
  -4  11 -12 575.158 64.2231   3
  -4 -11 -12 568.037 49.3323   1
   4  11  12 648.051 98.6660   2
   4  11  13 3340.63 191.420   2
  -4  11 -13 3361.91 143.731   3
  -4  11 -14 345.733 56.9611   3
   4  11  14 220.700 73.3532   2
   4  11  15 753.476 106.840   2
   4  11  16 153.059 74.5585   2
   4  11  17 5781.80 262.363   2
   4  11  18 157.006 74.1553   2
   4  11  19 1372.04 146.526   2
   4  11  20 178.105 76.0947   2
   4  11  21 50.0543 75.3527   2
   4  11  22-105.275 75.8098   2
   4  11  23 2287.16 190.773   2
  -4  12  25 1319.00 155.577   2
  -4  12  24 61.8601 72.0865   2
  -4  12  23 190.628 85.2631   2
  -4  12  22 497.851 98.2520   2
  -4  12  21 2397.37 182.352   2
  -4  12  20 358.534 94.6037   2
  -4  12  19 574.485 95.1179   2
  -4  12  18 75.0295 71.9920   2
  -4  12  17 350.930 84.8511   2
  -4  12  16 1362.87 140.889   2
  -4  12  15 1596.51 136.844   2
  -4  12  14 138.238 66.9034   2
  -4  12  14-9.44415 56.5044   3
  -4  12  13 3364.44 183.484   2
  -4  12  13 3354.52 180.243   3
  -4 -12  12 395.815 37.7071   2
  -4  12  12 367.758 74.3921   2
  -4  12  12 481.748 79.4978   3
  -4  12  11 670.550 84.3595   2
  -4 -12  11 680.837 48.1714   2
  -4  12  11 808.628 96.6431   3
  -4  12  10 58.0483 53.5551   2
  -4  12  10 4.15431 54.0868   3
  -4 -12  10-12.1902 22.5170   2
  -4  12   9 374.132 66.2566   2
  -4 -12   9 464.739 43.5286   2
  -4  12   9 524.234 82.5250   3
  -4 -12   8 2010.51 50.1072   3
  -4 -12   8 2137.82 86.7989   2
  -4  12   8 2306.03 139.715   3
  -4  12   8 2350.56 135.699   2
  -4 -12   7 301.980 38.8531   2
  -4 -12   7 268.847 25.8838   3
  -4  12   7 300.035 65.6624   3
   4  12  -6 3286.11 114.622   2
  -4 -12   6 3005.55 108.949   2
  -4  12   6 2968.05 152.870   3
   4  12  -5 406.512 48.0674   2
  -4 -12   5 426.873 45.5379   2
  -4  12   5 338.454 60.9863   3
  -4  12   4 931.965 86.8553   3
  -4 -12   4 1038.30 69.0673   2
   4  12  -4 805.425 65.4773   2
   4  12  -3 1383.53 84.1560   2
  -4 -12   3 1423.95 82.9567   2
  -4  12   3 1180.22 94.2221   3
   4  12  -2 2819.77 123.575   2
  -4 -12   2 2923.25 118.350   2
  -4  12   2 2854.01 139.219   3
   4  12  -1 1210.75 86.2285   2
  -4  12   1 1324.41 96.7063   3
  -4  12   1 1346.09 105.009   1
  -4  12   0 332.014 64.2659   1
   4  12   0 368.183 56.6726   2
  -4  12   0 396.862 58.6077   3
   4  12   1 5629.98 183.105   2
  -4  12  -1 5675.39 184.319   3
   4  12   1 5353.53 158.653   1
  -4  12  -1 5599.17 199.834   1
  -4  12  -2 1846.26 121.492   1
   4  12   2 1639.02 89.2759   1
  -4  12  -2 1728.40 106.502   3
   4  12   2 1659.71 108.955   2
  -4  12  -3 12019.2 213.646   2
  -4  12  -3 11558.5 282.839   1
  -4  12  -3 11933.8 258.968   3
   4  12   3 12025.4 224.127   1
   4  12   3 11913.2 277.306   2
  -4  12  -4 3610.24 164.226   1
   4  12   4 3656.64 162.701   2
   4  12   4 3681.27 124.141   1
  -4  12  -4 3396.73 112.666   2
  -4  12  -4 3474.03 142.019   3
  -4  12  -5 171.409 43.3306   3
  -4  12  -5 212.347 58.1958   1
  -4  12  -5 174.982 32.3351   2
   4  12   5 275.399 63.6224   2
  -4  12  -6 699.865 51.1307   2
  -4  12  -6 757.618 70.4179   3
  -4  12  -6 805.836 84.2284   1
   4  12   6 779.759 92.5643   2
  -4  12  -7 295.384 61.2865   1
  -4  12  -7 377.815 40.6535   2
  -4  12  -7 390.977 58.1874   3
   4  12   7 412.381 73.2706   2
  -4  12  -8 2898.23 129.958   3
   4  12   8 2994.69 165.311   2
  -4  12  -8 3038.80 96.6212   2
  -4  12  -9 7083.85 198.335   3
   4  12   9 6694.85 246.516   2
  -4  12  -9 7058.68 144.019   2
  -4  12 -10 2495.86 120.752   3
  -4  12 -10 2591.60 87.6635   2
   4  12  10 2519.82 158.367   2
  -4  12 -11 651.754 66.4109   3
   4  12  11 705.969 100.997   2
  -4  12 -12 4445.35 161.153   3
   4  12  12 4486.24 215.772   2
  -4  12 -13 2721.61 129.135   3
   4  12  13 2606.93 170.609   2
  -4  12 -14 756.087 73.3135   3
   4  12  14 871.566 113.233   2
  -4  12 -15 3268.97 145.232   3
   4  12  15 3185.36 193.619   2
  -4  12 -16 1851.62 112.123   3
   4  12  16 1908.14 158.177   2
  -4  12 -17 748.988 79.2430   3
   4  12  17 967.290 124.658   2
  -4  12 -18 440.680 65.1104   3
   4  12  18 398.206 97.4648   2
   4  12  19 513.567 102.821   2
   4  12  20 1036.65 131.663   2
   4  12  21 1217.02 145.839   2
   4  12  22 2596.56 205.824   2
   4  12  23 2138.97 187.411   2
  -4  13  25-53.0147 73.5777   2
  -4  13  24 142.047 81.3093   2
  -4  13  23 1360.81 152.333   2
  -4  13  22 1078.73 135.253   2
  -4  13  21 10.2498 66.1387   2
  -4  13  20-39.0940 64.4825   2
  -4  13  19-87.0733 60.5245   2
  -4  13  18 3999.99 221.383   2
  -4  13  17 510.215 93.9539   2
  -4  13  16 3419.42 204.426   2
  -4  13  15 96.0012 66.4467   2
  -4  13  14 1045.13 119.814   2
  -4  13  14 1075.34 116.319   3
  -4  13  13 4014.04 199.221   2
  -4  13  13 3800.52 197.790   3
  -4  13  12 124.494 63.3867   2
  -4  13  12 29.3000 58.5231   3
  -4  13  11 84.0995 59.5150   2
  -4 -13  11 48.4888 19.6157   2
  -4  13  11-60.3287 56.9758   3
  -4  13  10 542.044 86.2734   2
  -4 -13  10 461.416 40.9611   2
  -4  13  10 371.271 74.7090   3
  -4  13   9 264.315 63.7872   2
  -4 -13   9 205.343 32.2684   2
  -4  13   9 168.801 60.3021   3
  -4  13   8 324.618 71.1887   2
  -4 -13   8 306.256 19.3829   3
  -4 -13   8 430.641 43.1157   2
  -4 -13   8 332.412 21.7669   3
  -4  13   8 387.734 69.3062   3
   4  13  -7 35.2569 28.0697   2
  -4 -13   7 18.5622 21.6052   2
  -4  13   7-83.4362 59.6270   3
  -4  13   7 15.3021 44.8380   2
  -4 -13   6 8253.70 176.744   2
  -4  13   6 8223.30 251.626   3
  -4  13   6 7926.15 241.362   2
   4  13  -6 8456.09 183.979   2
  -4 -13   5 464.498 50.3536   2
  -4  13   5 586.788 78.4083   3
   4  13  -5 513.677 56.0182   2
  -4 -13   4 3469.35 121.919   2
   4  13  -4 3664.24 130.680   2
  -4  13   4 3769.46 166.688   3
   4  13  -3 1411.37 85.9263   2
  -4  13   3 1469.68 104.842   3
  -4 -13   3 1384.78 83.1216   2
   4  13  -2 265.591 48.6320   2
  -4  13   2 203.733 51.7485   3
   4  13  -1 426.001 59.4262   2
  -4  13   1 472.998 77.7797   1
  -4  13   1 305.799 57.6814   3
   4  13   0 994.979 84.8188   2
  -4  13   0 1012.58 87.8463   3
  -4  13   0 1031.83 100.286   1
   4  13   1 4513.85 173.139   2
  -4  13  -1 4662.76 170.994   3
   4  13   1 4818.78 156.060   1
  -4  13  -1 5008.79 194.526   1
   4  13   2 2442.53 113.357   1
  -4  13  -2 2417.50 121.453   3
  -4  13  -2 2628.54 147.337   1
   4  13   2 2365.38 127.159   2
   4  13   3 746.608 81.7381   2
  -4  13  -3 704.776 56.4692   2
  -4  13  -3 720.980 84.7849   1
  -4  13  -3 773.695 74.7961   3
   4  13   3 678.286 66.8446   1
  -4  13  -4 2117.90 114.139   3
  -4  13  -4 2065.60 133.155   1
   4  13   4 2283.23 105.483   1
  -4  13  -4 2283.19 92.7933   2
   4  13   4 2135.74 130.125   2
   4  13   5 58.5006 52.1095   2
  -4  13  -5-98.1504 58.9228   1
  -4  13  -5 15.6791 37.4511   3
  -4  13  -5 15.0601 21.8603   2
  -4  13  -6 9200.52 170.263   2
  -4  13  -6 9455.87 269.564   1
  -4  13  -6 9058.63 225.988   3
   4  13   6 9291.92 272.066   2
  -4  13  -7 61.9036 23.6548   2
  -4  13  -7 102.113 55.5370   1
  -4  13  -7 60.7426 37.3412   3
   4  13   7 40.5380 47.5394   2
  -4  13  -8 3024.04 132.919   3
   4  13   8 3039.58 167.072   2
  -4  13  -8 3246.59 97.3598   2
  -4  13  -9 9.06216 34.3955   3
   4  13   9-9.38644 50.2079   2
  -4  13  -9 16.6192 18.8412   2
  -4  13 -10 6214.54 187.522   3
   4  13  10 6233.58 244.200   2
  -4  13 -11 6160.34 187.288   3
   4  13  11 5927.88 246.313   2
  -4  13 -12 8281.69 218.115   3
   4  13  12 8194.47 290.061   2
  -4  13 -13 33.6844 33.5469   3
   4  13  13 30.7654 54.6929   2
   4  13  14 1162.42 127.020   2
  -4  13 -14 1185.43 90.2253   3
  -4  13 -15 8.00083 32.9213   3
   4  13  15 112.679 67.0688   2
  -4  13 -16 1521.12 102.739   3
   4  13  16 1429.85 141.116   2
   4  13  17 134.291 76.5277   2
   4  13  18 6771.15 298.240   2
   4  13  19 105.900 74.2433   2
   4  13  20 981.405 130.324   2
   4  13  21 37.0431 70.8907   2
   4  13  22 373.544 98.6515   2
  -4  14  24 484.865 110.491   2
  -4  14  23 110.369 82.9947   2
  -4  14  22 1751.45 163.520   2
  -4  14  21 1484.70 157.081   2
  -4  14  20 176.339 84.0557   2
  -4  14  19 60.7670 68.6621   2
  -4  14  18 3511.39 216.258   2
  -4  14  17 1384.55 141.611   2
  -4  14  16 166.495 69.0026   2
  -4  14  15 335.926 85.7701   2
  -4  14  14 5903.61 257.224   2
  -4  14  13 446.705 89.2256   2
  -4  14  13 617.383 95.2629   3
  -4  14  12-20.2372 55.2427   2
  -4  14  12 44.2761 52.9779   3
  -4  14  11 26.6643 50.3091   2
  -4  14  11-28.2571 56.4428   3
  -4  14  10 520.368 86.5126   2
  -4  14  10 692.450 94.4925   3
  -4  14   9 488.384 81.4578   2
  -4 -14   9 630.239 47.1619   2
  -4  14   9 628.834 86.7392   3
  -4 -14   8 6245.88 142.511   2
  -4  14   8 6435.92 235.431   3
  -4  14   8 6391.31 226.624   2
  -4  14   7 289.215 70.1901   2
   4  14  -7 246.364 40.6064   2
  -4 -14   7 243.925 35.1048   2
  -4 -14   7 250.813 24.1605   3
  -4  14   7 266.073 64.7582   3
  -4  14   6 12.4013 42.6074   2
   4  14  -6 28.4091 34.2706   2
  -4 -14   6 33.6813 24.4392   2
  -4  14   6-7.16832 53.0816   3
  -4 -14   6 13.3139 15.9241   3
  -4 -14   5 14.7208 26.5062   2
  -4  14   5 38.3430 43.8078   2
   4  14  -5-34.2349 30.4398   2
   4  14  -4 3863.48 136.537   2
  -4 -14   4 3903.69 130.256   2
  -4  14   4 3842.16 172.174   3
  -4  14   4 3778.67 160.039   2
  -4 -14   3 3528.19 127.584   2
   4  14  -3 3415.79 136.864   2
  -4  14   3 3945.44 168.838   3
   4  14  -2 3558.45 141.314   2
  -4  14   2 3574.87 160.456   3
   4  14  -1 2264.26 116.958   2
  -4  14   1 2681.08 152.242   1
  -4  14   1 2377.20 128.377   3
   4  14   0 5917.25 189.899   2
   4  14   0 6070.61 186.201   1
  -4  14   0 6156.28 202.559   3
  -4  14   0 6204.07 222.788   1
   4  14   1 1362.02 103.669   2
  -4  14  -1 1439.96 101.060   3
  -4  14  -1 1511.14 121.090   1
   4  14   1 1255.52 90.0543   1
   4  14   2 7297.95 199.485   1
  -4  14  -2 7253.44 213.418   3
  -4  14  -2 7681.68 247.478   1
   4  14   2 7305.41 224.594   2
   4  14   3 155.011 57.2664   2
  -4  14  -3 140.867 60.8892   1
   4  14   3 144.269 45.8173   1
  -4  14  -3 113.003 30.8340   2
  -4  14  -3 193.123 49.2108   3
  -4  14  -4 6851.38 234.069   1
   4  14   4 7006.75 188.456   1
   4  14   4 6597.84 223.659   2
  -4  14  -4 6877.08 157.141   2
  -4  14  -4 6780.27 202.172   3
  -4  14  -5 105.487 55.8670   1
  -4  14  -5 26.8384 37.5174   3
  -4  14  -5 91.9882 26.2713   2
   4  14   5 163.448 58.1326   2
  -4  14  -6-26.1253 23.1120   2
  -4  14  -6 30.3195 34.6059   3
  -4  14  -6-43.2035 60.0582   1
   4  14   6 4.92165 50.9879   2
  -4  14  -7 817.261 51.0546   2
  -4  14  -7 763.060 73.9391   3
  -4  14  -7 770.676 90.9304   1
   4  14   7 726.456 94.1193   2
  -4  14  -8 5315.81 217.953   1
  -4  14  -8 5455.71 178.027   3
   4  14   8 5279.83 221.949   2
  -4  14  -9 4052.32 152.774   3
   4  14   9 3855.48 195.158   2
  -4  14 -10 21305.9 343.520   3
   4  14  10 20743.0 445.123   2
  -4  14 -11 155.112 45.9199   3
   4  14  11 256.225 71.5853   2
  -4  14 -12 3.86606 33.2157   3
   4  14  12 211.474 73.4778   2
  -4  14 -13-5.63106 35.7764   3
   4  14  13-62.5521 60.7465   2
  -4  14 -14 3922.49 154.840   3
   4  14  14 3548.55 206.739   2
   4  14  15-20.5562 61.7827   2
  -4  14 -15 34.6396 35.9834   3
   4  14  16 1897.75 162.292   2
   4  14  17-80.9118 71.5009   2
   4  14  18 31.2611 71.6378   2
   4  14  19 358.416 96.6725   2
   4  14  20 5536.63 285.581   2
   4  14  21-79.4424 76.5842   2
  -4  15  23 400.906 100.046   2
  -4  15  22 228.570 80.8162   2
  -4  15  21 1275.78 146.062   2
  -4  15  20 37.4955 71.2717   2
  -4  15  19 25.1443 64.9972   2
  -4  15  18 184.431 74.3461   2
  -4  15  17 6444.15 279.844   2
  -4  15  16 2096.90 164.848   2
  -4  15  15 2717.76 192.464   2
  -4  15  14 1396.97 133.148   2
  -4  15  13 164.993 69.4817   2
  -4  15  13 40.5963 59.5528   3
  -4  15  12 137.478 69.0356   2
  -4  15  12 37.9317 55.6292   3
  -4  15  11 548.898 86.6448   2
  -4  15  11 589.775 86.8365   3
  -4  15  10 16.2893 53.4442   2
  -4  15  10 67.1617 55.2576   3
  -4  15   9 41.6481 50.6065   2
  -4  15   9 131.902 60.5555   3
  -4  15   8 521.160 85.3007   2
  -4  15   8 448.900 76.3736   3
   4  15  -7 7408.25 168.006   2
  -4 -15   7 6875.54 154.487   2
  -4  15   7 7056.78 250.030   3
  -4  15   7 6827.57 231.222   2
  -4  15   6 719.021 82.6397   2
  -4 -15   6 698.284 55.6011   2
  -4  15   6 591.738 81.4821   3
  -4 -15   6 630.302 42.3459   3
   4  15  -6 724.688 61.3457   2
  -4 -15   5 1687.43 84.4956   2
   4  15  -5 1830.78 93.5432   2
  -4  15   5 1776.41 123.116   3
  -4 -15   5 1637.76 70.2471   3
  -4  15   5 1778.83 116.791   2
  -4 -15   4 1575.15 73.3945   3
   4  15  -4 1539.38 90.8108   2
  -4 -15   4 1510.50 82.8517   2
  -4  15   4 1548.45 116.252   3
  -4  15   4 1376.46 108.977   2
   4  15  -3 445.503 55.9900   2
  -4  15   3 425.103 67.5384   3
  -4  15   3 473.040 64.2036   2
   4  15  -2 902.411 75.6761   2
  -4  15   2 1051.87 95.6337   3
  -4  15   2 911.139 80.0195   2
   4  15  -1 107.151 45.3109   2
  -4  15   1 113.168 60.4028   1
  -4  15   1 161.154 52.8157   3
   4  15   0 2018.40 116.225   2
   4  15   0 1667.12 107.642   1
  -4  15   0 1886.57 119.787   3
  -4  15   0 2045.00 140.749   1
   4  15   1 10385.4 261.487   2
  -4  15  -1 10927.4 268.262   3
   4  15   1 10627.7 251.813   1
  -4  15  -1 10483.1 299.218   1
   4  15   2 708.296 81.2619   2
  -4  15  -2 622.530 87.5241   1
  -4  15  -2 761.095 77.3356   3
   4  15   2 659.950 72.1865   1
   4  15   3 168.962 54.9392   2
  -4  15  -3 147.430 31.0243   2
  -4  15  -3 182.289 51.1622   3
   4  15   3 204.756 54.0428   1
  -4  15  -3 137.727 66.4749   1
   4  15   4 119.115 54.7123   2
  -4  15  -4 145.053 33.2672   2
  -4  15  -4 202.834 51.8124   3
  -4  15  -4 139.429 65.6522   1
   4  15   4 161.766 49.7979   1
  -4  15  -5 5935.48 189.979   3
  -4  15  -5 5678.27 226.532   1
  -4  15  -5 6044.35 141.321   2
   4  15   5 5547.23 215.367   2
  -4  15  -6 732.923 71.0304   3
  -4  15  -6 719.571 89.0252   1
   4  15   6 774.761 91.9680   2
  -4  15  -7 1504.30 122.943   1
  -4  15  -7 1736.19 102.698   3
   4  15   7 1595.59 127.951   2
  -4  15  -8 1675.81 100.623   3
   4  15   8 1608.80 129.605   2
  -4  15  -8 1567.06 124.777   1
  -4  15  -9 247.883 69.0055   1
  -4  15  -9 264.926 49.2518   3
   4  15   9 421.079 84.1881   2
  -4  15 -10 833.357 75.0179   3
   4  15  10 800.215 105.172   2
  -4  15 -11 4482.90 160.757   3
   4  15  11 4187.37 214.302   2
  -4  15 -12 3931.56 153.363   3
   4  15  12 3881.05 212.809   2
  -4  15 -13 3580.96 147.803   3
   4  15  13 3490.18 202.528   2
   4  15  14 101.870 70.8400   2
   4  15  15-60.8376 62.7577   2
   4  15  16 41.8575 60.3706   2
   4  15  17 673.261 112.872   2
   4  15  18 1933.71 174.249   2
   4  15  19 3596.58 234.903   2
   4  15  20 1003.20 137.415   2
  -4  16  22 550.829 110.774   2
  -4  16  21 193.735 84.9641   2
  -4  16  20 201.068 84.0021   2
  -4  16  19 1052.19 139.848   2
  -4  16  18 1319.91 142.365   2
  -4  16  17 761.944 113.317   2
  -4  16  16 537.780 102.226   2
  -4  16  15 1821.58 152.556   2
  -4  16  14 4246.33 222.173   2
  -4  16  13 3342.69 197.352   2
  -4  16  12 44.6401 63.3377   2
  -4  16  12 78.8116 62.9814   3
  -4  16  11 104.651 57.9442   3
  -4  16  11 198.111 65.7682   2
  -4  16  10 1921.88 141.001   2
  -4  16  10 1578.67 135.857   3
  -4  16   9 2820.79 163.348   2
  -4  16   9 2891.88 170.649   3
  -4  16   8 102.976 64.4101   2
  -4  16   8-14.4719 52.5584   3
   4  16  -7 1191.44 71.5461   2
  -4  16   7 1004.16 106.017   2
  -4  16   7 1162.25 109.906   3
  -4  16   6 49.1816 46.0616   2
   4  16  -6 111.387 35.8550   2
  -4  16   6 41.7047 49.1452   3
  -4  16   5 8.42279 42.0684   2
  -4  16   5 24.3526 50.1101   3
   4  16  -5 61.5718 30.8612   2
  -4  16   4 195.173 59.8236   2
   4  16  -4 118.311 40.4421   2
  -4  16   4 96.5652 52.2057   3
   4  16  -3 11026.2 240.854   2
  -4  16   3 10825.9 289.271   3
  -4 -16   3 10620.5 194.398   3
  -4  16   3 10547.3 263.040   2
  -4  16   2 140.203 50.4295   2
  -4  16   2 138.659 57.0241   3
   4  16  -2 143.840 45.3473   2
  -4  16   1 210.330 54.0224   2
  -4  16   1 389.616 82.9483   1
   4  16  -1 390.182 62.1055   2
  -4  16   1 360.146 62.7232   3
   4  16  -1 220.490 57.9033   1
  -4  16   0 43.7755 40.2180   2
   4  16   0-7.23754 37.8829   2
  -4  16   0 11.4444 45.7208   3
   4  16   0-15.3051 48.7405   1
  -4  16   0 31.8452 56.1475   1
   4  16   1 3457.25 159.937   2
   4  16   1 3689.82 158.801   1
  -4  16  -1 3604.51 162.080   3
  -4  16  -1 3625.23 187.314   1
  -4  16  -1 3605.69 139.470   2
   4  16   2 0.48834 42.7639   2
  -4  16  -2-77.8268 64.3047   1
  -4  16  -2 5.03918 45.5317   3
   4  16   2-36.6008 44.0892   1
  -4  16  -2 3.82773 31.1454   2
  -4  16  -3 4530.31 206.611   1
  -4  16  -3 4446.96 172.159   3
   4  16   3 4525.05 167.539   1
   4  16   3 4445.64 186.483   2
  -4  16  -3 4060.62 142.333   2
   4  16   4-90.2386 50.0299   2
  -4  16  -4 43.0515 55.7650   1
   4  16   4 60.6179 46.0739   1
  -4  16  -4-14.4805 40.9987   3
  -4  16  -5 1252.97 93.8159   3
  -4  16  -5 1159.22 112.973   1
   4  16   5 1348.46 115.068   2
   4  16   6 295.335 67.6886   2
  -4  16  -6 380.112 80.7625   1
  -4  16  -6 200.359 45.0177   3
  -4  16  -7 267.027 49.7294   3
  -4  16  -7 259.748 75.5248   1
   4  16   7 281.352 69.4570   2
  -4  16  -8 614.620 90.0078   1
  -4  16  -8 617.137 68.2220   3
   4  16   8 785.748 99.3179   2
  -4  16  -9 5847.41 241.490   1
  -4  16  -9 5757.89 184.999   3
   4  16   9 5609.18 239.720   2
  -4  16 -10 45.8961 33.9640   3
   4  16  10 59.8143 60.7663   2
  -4  16 -11 2727.04 125.525   3
   4  16  11 2619.89 175.113   2
  -4  16 -12 160.550 41.5906   3
   4  16  12 138.995 70.4729   2
   4  16  13 117.640 68.4839   2
   4  16  14 1004.55 124.420   2
   4  16  15 4194.89 235.577   2
   4  16  16 24.0163 65.4483   2
   4  16  17 705.388 117.493   2
   4  16  18 280.362 92.4861   2
   4  16  19 2754.43 207.890   2
  -4  17  21-38.7563 63.7666   2
  -4  17  20 202.295 81.2327   2
  -4  17  19-48.9725 68.5546   2
  -4  17  18 2193.58 181.452   2
  -4  17  17-8.57970 68.3163   2
  -4  17  16 1044.40 124.601   2
  -4  17  15 449.638 91.5898   2
  -4  17  14 82.3210 67.7931   2
  -4  17  13 300.923 77.0423   2
  -4  17  12 5.55125 57.2496   2
  -4  17  11 108.493 65.8117   2
  -4  17  11 88.9053 57.6979   3
  -4  17  10 94.9600 63.1137   2
  -4  17  10 95.5835 65.0534   3
  -4  17   9 741.979 104.100   2
  -4  17   9 1121.33 113.092   3
  -4  17   8 655.759 87.6587   2
  -4  17   8 679.804 89.8964   3
  -4  17   7 7.74082 48.6848   2
   4  17  -7 9.12578 26.7484   2
  -4  17   7 3.18412 50.8855   3
  -4  17   6 11310.8 307.019   2
  -4  17   6 11554.1 323.472   3
   4  17  -6 12296.0 231.174   2
  -4  17   5 5153.41 203.851   2
   4  17  -5 5481.02 163.239   2
  -4  17   5 5381.05 218.189   3
  -4  17   4 1895.27 124.391   2
   4  17  -4 1879.99 101.683   2
  -4  17   4 2041.65 135.646   3
  -4  17   3 47.8179 47.6059   2
   4  17  -3 44.3118 32.7919   2
  -4  17   3 27.9777 51.9078   3
   4  17  -2 2573.52 126.727   2
  -4  17   2 2950.13 156.324   3
  -4  17   2 2915.79 141.395   2
   4  17  -1 1816.20 114.294   2
  -4  17   1 1825.68 140.846   1
   4  17  -1 1651.80 117.224   1
  -4  17   1 1709.45 118.788   3
  -4  17   1 1613.41 103.787   2
  -4  17   0 219.692 51.5255   2
   4  17   0 208.880 57.5124   2
   4  17   0 154.586 49.5433   1
  -4  17   0 184.045 56.6614   3
  -4  17   0 62.2726 63.4783   1
   4  17   1 1918.93 121.642   2
   4  17   1 1998.48 123.381   1
  -4  17  -1 2071.94 126.856   3
  -4  17  -1 2188.90 155.129   1
  -4  17  -1 1981.97 106.865   2
   4  17   2 855.538 88.9299   2
  -4  17  -2 960.476 105.252   1
   4  17   2 851.790 86.2085   1
  -4  17  -2 935.802 85.7156   3
  -4  17  -2 932.086 74.4059   2
  -4  17  -3 377.397 48.5149   2
   4  17   3 461.358 78.1649   2
   4  17   3 470.939 69.3629   1
  -4  17  -3 387.105 83.8823   1
  -4  17  -3 420.450 62.4484   3
  -4  17  -4 3067.97 180.300   1
   4  17   4 3069.15 144.426   1
  -4  17  -4 2887.28 141.019   3
   4  17   4 2841.60 157.428   2
  -4  17  -4 2907.08 113.769   2
  -4  17  -5 1365.79 130.115   1
  -4  17  -5 1380.78 98.7748   3
   4  17   5 1666.34 127.179   2
  -4  17  -5 1364.93 76.4356   2
  -4  17  -6 2328.55 91.9810   2
  -4  17  -6 2244.92 120.962   3
  -4  17  -6 2317.43 160.719   1
   4  17   6 2104.30 143.337   2
  -4  17  -7 1162.78 121.629   1
  -4  17  -7 1273.36 95.6594   3
   4  17   7 1075.22 111.154   2
  -4  17  -8 225.436 48.4808   3
   4  17   8 123.263 56.0284   2
  -4  17  -8 164.518 67.7281   1
  -4  17  -9 313.676 72.6894   1
  -4  17  -9 309.179 50.6319   3
   4  17   9 266.460 76.2970   2
  -4  17 -10 455.182 59.8248   3
  -4  17 -10 460.455 85.8748   1
   4  17  10 472.247 90.6654   2
  -4  17 -11 1051.76 82.0008   3
   4  17  11 950.377 111.384   2
   4  17  12 633.456 103.209   2
   4  17  13 1853.39 158.677   2
   4  17  14 1271.30 136.668   2
   4  17  15-14.4509 66.5557   2
   4  17  16 176.665 91.5156   2
   4  17  17 1806.50 170.827   2
   4  17  18 1170.28 147.799   2
   4  17  19 710.212 125.899   2
  -4  18  20 6511.90 310.370   2
  -4  18  19 78.5402 82.2870   2
  -4  18  18 908.365 127.254   2
  -4  18  17 179.485 81.3565   2
  -4  18  16 475.746 96.9952   2
  -4  18  15 1305.17 140.389   2
  -4  18  14 2113.46 167.475   2
  -4  18  13 236.715 80.9037   2
  -4  18  12 395.693 87.1432   2
  -4  18  11 1302.00 123.864   2
  -4  18  10 1581.22 137.011   2
  -4  18  10 1994.27 152.525   3
  -4  18   9-65.7616 67.0811   2
  -4  18   9-27.9791 59.7417   3
  -4  18   8 1375.93 117.996   2
  -4  18   8 1228.15 119.564   3
  -4  18   7 80.8632 53.9442   2
   4  18  -7 16.6495 25.2018   2
  -4  18   7-59.4409 56.5049   3
  -4  18   6 1071.89 115.820   2
   4  18  -6 1637.15 90.2411   2
  -4  18   6 1683.17 135.348   3
  -4  18   5 129.845 54.1889   2
   4  18  -5 116.111 37.1898   2
  -4  18   5 70.7262 54.1987   3
  -4  18   4 6139.93 217.447   2
   4  18  -4 6274.15 184.562   2
  -4  18   4 6001.49 232.993   3
  -4  18   3 20.4491 43.7923   2
   4  18  -3 131.103 43.3714   2
  -4  18   3 31.8840 47.9089   3
   4  18  -2 2038.45 133.291   1
   4  18  -2 2160.76 119.640   2
  -4  18   2 2041.39 122.701   2
  -4  18   2 2059.80 136.509   3
  -4  18   1 498.399 66.9320   2
   4  18  -1 345.939 58.7217   2
  -4  18   1 506.116 74.5957   3
   4  18  -1 471.744 76.0946   1
  -4  18   0 1908.33 112.317   2
   4  18   0 1776.26 118.764   2
   4  18   0 1742.19 121.937   1
  -4  18   0 1903.25 145.041   1
  -4  18   0 1772.16 121.212   3
  -4  18  -1 4378.44 158.381   2
   4  18   1 4385.24 180.191   2
   4  18   1 4374.20 183.818   1
  -4  18  -1 4328.26 182.068   3
  -4  18  -1 4682.26 224.439   1
  -4  18  -2 1984.49 106.730   2
  -4  18  -2 2077.32 127.085   3
  -4  18  -2 2005.19 149.667   1
   4  18   2 2043.96 128.386   1
   4  18   2 1927.95 126.356   2
  -4  18  -3 609.182 62.9223   2
   4  18   3 574.566 79.4246   2
   4  18   3 573.038 78.1856   1
  -4  18  -3 669.911 98.4415   1
  -4  18  -3 602.336 75.8327   3
  -4  18  -4 969.290 70.4133   2
   4  18   4 934.979 98.2378   2
   4  18   4 1084.68 99.5553   1
  -4  18  -4 906.712 84.4441   3
  -4  18  -4 1037.83 116.323   1
  -4  18  -5 2160.31 158.331   1
  -4  18  -5 2206.86 126.704   3
   4  18   5 1856.54 137.823   2
  -4  18  -6 56.6579 42.1061   3
  -4  18  -6 0.97322 58.2274   1
   4  18   6 51.8291 49.8652   2
  -4  18  -7 44.4069 60.7170   1
  -4  18  -7 19.8018 41.4151   3
   4  18   7 118.945 59.8062   2
  -4  18  -8 6652.92 270.661   1
  -4  18  -8 6774.94 204.724   3
   4  18   8 6905.95 265.046   2
  -4  18  -9 7.72848 62.7607   1
  -4  18  -9 139.010 40.3991   3
   4  18   9 184.270 70.8491   2
  -4  18 -10 5260.85 246.201   1
   4  18  10 4827.89 233.809   2
  -4  18 -11 1879.32 148.976   1
   4  18  11 1660.64 147.022   2
  -4  18 -12-60.3301 68.0470   1
   4  18  12-13.2847 59.6955   2
   4  18  13-0.10895 62.1781   2
   4  18  14 360.174 91.4635   2
   4  18  15 118.787 70.4680   2
   4  18  16 762.885 122.402   2
   4  18  17 929.402 130.235   2
   4  18  18 250.131 83.5333   2
  -4  19  19 340.884 97.0281   2
  -4  19  18 2072.98 181.433   2
  -4  19  17 1232.13 145.004   2
  -4  19  16 3699.03 223.663   2
  -4  19  15 44.3939 62.9781   2
  -4  19  14 1171.83 134.948   2
  -4  19  13 30.0623 62.0936   2
  -4  19  12 1785.57 148.724   2
  -4  19  11 29.1461 56.4325   2
  -4  19  10 1421.24 133.344   2
  -4  19   9 345.990 71.1645   2
  -4  19   9 506.454 91.0953   3
  -4  19   8 1928.97 144.522   2
  -4  19   8 2020.37 151.393   3
  -4  19   7 698.275 93.7018   3
  -4  19   7 682.476 93.7723   2
  -4  19   6 2052.00 135.344   2
  -4  19   6 2295.91 154.716   3
  -4  19   5-12.8826 48.4686   2
   4  19  -5 41.9781 35.4938   2
  -4  19   5 45.8774 48.8660   3
  -4  19   4 102.278 42.7111   2
   4  19  -4 143.461 41.7980   2
  -4  19   4 176.207 55.1413   3
  -4  19   3 420.564 73.7292   2
   4  19  -3 364.868 58.0214   2
  -4  19   3 430.449 75.1940   3
   4  19  -3 350.772 70.1925   1
  -4  19   2 102.955 47.2334   2
   4  19  -2 99.8818 44.3083   2
   4  19  -2 172.067 56.9077   1
  -4  19   2 114.340 48.6885   3
  -4  19   1 936.620 84.7030   2
   4  19  -1 577.484 80.7458   1
   4  19  -1 703.755 77.8711   2
  -4  19   1 747.704 90.3705   3
  -4  19   0 5030.78 179.165   2
   4  19   0 5310.68 196.684   2
   4  19   0 5199.79 207.724   1
  -4  19   0 5288.37 237.008   1
  -4  19   0 5008.89 200.747   3
  -4  19  -1 458.296 92.7442   1
  -4  19  -1 535.658 65.2367   2
   4  19   1 512.555 79.4460   1
   4  19   1 341.870 65.1766   2
  -4  19  -1 530.575 76.0982   3
  -4  19  -2 1274.70 88.2607   2
  -4  19  -2 1223.22 125.873   1
  -4  19  -2 1162.73 99.5304   3
   4  19   2 1201.47 103.310   1
   4  19   2 1276.80 113.133   2
  -4  19  -3 792.390 70.5402   2
   4  19   3 824.183 97.1214   2
   4  19   3 872.586 97.3961   1
  -4  19  -3 786.485 109.687   1
  -4  19  -3 758.471 84.2446   3
   4  19   4 574.304 86.6033   2
  -4  19  -4 672.747 102.595   1
  -4  19  -4 756.163 82.8367   3
  -4  19  -5 4490.51 226.484   1
  -4  19  -5 4366.61 176.942   3
   4  19   5 4509.91 205.283   2
  -4  19  -6 45.2170 61.5467   1
  -4  19  -6 8.97173 40.3259   3
   4  19   6 38.9527 48.7740   2
  -4  19  -7 785.886 81.3597   3
  -4  19  -7 799.661 113.315   1
   4  19   7 760.687 100.959   2
  -4  19  -8 1012.12 118.900   1
  -4  19  -8 986.351 83.1787   3
   4  19   8 749.274 98.1993   2
  -4  19  -9 293.071 83.9814   1
   4  19   9 322.783 77.2200   2
  -4  19 -10 1772.25 152.113   1
   4  19  10 1929.44 155.219   2
  -4  19 -11 92.9771 72.8710   1
   4  19  11 157.496 69.8063   2
  -4  19 -12 2062.13 164.461   1
   4  19  12 1969.77 161.666   2
  -4  19 -13 259.954 73.0553   1
   4  19  13 345.035 88.3505   2
   4  19  14 33.3710 60.0304   2
   4  19  15 72.9447 63.5131   2
   4  19  16 43.0494 77.9645   2
   4  19  17 701.791 115.971   2
  -4  20  18 54.7999 73.1568   2
  -4  20  17 77.3103 65.7175   2
  -4  20  16 870.110 125.782   2
  -4  20  15 5266.74 273.023   2
  -4  20  14 977.536 122.887   2
  -4  20  13 289.939 84.4119   2
  -4  20  12 293.486 81.0545   2
  -4  20  11 1651.75 141.036   2
  -4  20  10-1.96173 56.8258   2
  -4  20   9 2601.36 169.888   2
  -4  20   8 1367.78 122.625   2
  -4  20   8 1512.13 134.021   3
  -4  20   7 3217.88 176.028   2
  -4  20   7 2873.06 181.520   3
  -4  20   6 2139.64 149.844   2
  -4  20   6 2540.83 166.320   3
  -4  20   5 497.494 80.3170   2
  -4  20   5 548.627 86.1828   3
  -4  20   4 2188.96 136.885   2
   4  20  -4 2659.52 125.148   2
  -4  20   4 2555.35 156.864   3
  -4  20   3-10.6788 39.5091   2
   4  20  -3 59.4286 37.5608   2
  -4  20   3 76.4759 54.7237   3
   4  20  -3-32.6359 57.7527   1
  -4  20   2 242.339 56.0489   2
   4  20  -2 173.356 45.5998   2
   4  20  -2 168.979 59.6565   1
  -4  20   2 287.971 65.6170   3
  -4  20   1 312.819 54.8667   2
   4  20  -1 273.118 59.4625   2
  -4  20   1 282.447 62.2078   3
   4  20  -1 209.680 63.0712   1
   4  20   0 325.406 71.7191   1
  -4  20   0 300.261 52.8305   2
   4  20   0 214.248 56.2501   2
  -4  20   0 346.782 90.1956   1
  -4  20   0 344.150 67.4395   3
  -4  20  -1 162.529 43.7759   2
   4  20   1 80.3973 48.5481   2
   4  20   1 177.640 60.9412   1
  -4  20  -1 172.848 54.7976   3
  -4  20  -1 92.1968 73.2066   1
  -4  20  -2 975.419 119.946   1
   4  20   2 701.947 88.2384   1
  -4  20  -2 874.269 92.4887   3
   4  20   2 929.494 96.7615   2
   4  20   3 2515.68 150.152   1
  -4  20  -3 2133.69 131.442   3
  -4  20  -3 2093.46 161.684   1
   4  20   3 2125.59 141.281   2
   4  20   4 249.010 66.8619   2
  -4  20  -4 215.730 82.5550   1
  -4  20  -4 204.506 52.5620   3
  -4  20  -5 1070.12 93.2811   3
  -4  20  -5 1095.71 125.901   1
   4  20   5 1060.59 109.887   2
   4  20   6 5.91323 50.0783   2
  -4  20  -6 5.57742 37.8967   3
   4  20   7 1900.58 148.259   2
  -4  20  -7 1923.56 160.889   1
   4  20   8 421.248 85.0253   2
  -4  20  -8 410.149 88.6322   1
   4  20   9 4560.85 233.348   2
  -4  20  -9 5228.63 251.465   1
  -4  20 -10 97.0774 65.7302   1
   4  20  10 146.305 67.2121   2
  -4  20 -11 1120.64 131.099   1
   4  20  11 966.170 122.086   2
  -4  20 -12 439.572 94.3590   1
   4  20  12 658.566 112.225   2
  -4  20 -13 308.538 90.4347   1
   4  20  13 389.152 96.4428   2
  -4  20 -14 326.296 94.8604   1
   4  20  14 403.783 99.4078   2
   4  20  15 955.303 132.589   2
   4  20  16-86.6814 73.9471   2
  -4  21  17 3033.36 214.395   2
  -4  21  16 722.812 112.196   2
  -4  21  15 104.619 74.4809   2
  -4  21  14-45.7462 68.4931   2
  -4  21  13 1913.51 165.758   2
  -4  21  12-51.2030 57.5493   2
  -4  21  11 3637.04 208.051   2
  -4  21  10 195.180 67.8766   2
  -4  21   9 134.041 67.0498   2
  -4  21   8 1014.60 112.309   2
  -4  21   7 2526.46 160.949   2
  -4  21   6 3300.03 180.279   2
  -4  21   6 3490.83 194.745   3
  -4  21   5 1365.97 118.804   2
  -4  21   5 1620.76 135.701   3
  -4  21   4 1434.08 115.022   2
   4  21  -4 1253.89 120.234   1
  -4  21   4 1418.58 125.306   3
   4  21  -3-69.3240 59.0631   1
  -4  21   3 8.62512 41.2870   2
  -4  21   3 73.9954 52.9133   3
  -4  21   2 2134.40 129.992   2
   4  21  -2 2091.90 123.693   2
   4  21  -2 1930.97 143.578   1
  -4  21   2 1987.79 143.773   3
  -4  21   1 2999.30 148.992   2
   4  21  -1 2859.48 149.088   2
   4  21  -1 3103.31 174.205   1
  -4  21   1 3172.95 174.810   3
   4  21   0 140.612 53.5320   2
  -4  21   0 308.131 87.1879   1
  -4  21   0 366.253 74.8336   3
   4  21   0 217.469 63.7056   1
   4  21   1 728.020 86.0467   2
   4  21   1 743.988 93.2284   1
  -4  21  -1 681.954 86.7214   3
  -4  21  -1 764.671 114.070   1
  -4  21  -2 258.505 82.4038   1
   4  21   2 291.649 64.6189   2
   4  21   2 351.775 72.7725   1
  -4  21  -2 306.476 65.9429   3
   4  21   3 85.6947 49.9330   2
  -4  21  -3 86.1830 84.3247   1
   4  21   3 45.4431 66.8365   1
  -4  21  -3 70.8223 46.8621   3
  -4  21  -4 2632.00 146.529   3
  -4  21  -4 2782.14 191.697   1
   4  21   4 2608.85 161.874   2
   4  21   5 3689.38 198.084   2
  -4  21  -5 3990.60 224.874   1
  -4  21  -6 1574.76 147.300   1
   4  21   6 1407.22 129.779   2
   4  21   7 807.919 104.034   2
  -4  21  -7 915.015 123.211   1
  -4  21  -8 1087.16 128.715   1
   4  21   8 1145.25 123.618   2
   4  21   9-126.109 71.3442   2
  -4  21  -9-58.0306 63.9066   1
  -4  21 -10-30.7150 76.6818   1
   4  21  10-47.7453 56.7183   2
  -4  21 -11 246.560 88.5564   1
   4  21  11 301.656 83.1382   2
   4  21  12 1948.78 168.713   2
  -4  21 -12 2127.47 177.139   1
  -4  21 -13 2144.54 178.358   1
   4  21  13 2153.24 178.072   2
  -4  21 -14 139.601 71.2875   1
   4  21  14 266.472 84.8083   2
   4  21  15 38.3985 60.1794   2
  -4  22  16 339.144 91.1256   2
  -4  22  15 47.2106 63.2974   2
  -4  22  14 374.538 89.3563   2
  -4  22  13 1190.14 138.495   2
  -4  22  12 1298.20 138.469   2
  -4  22  11 164.704 75.0111   2
  -4  22  10 2230.03 164.309   2
  -4  22   9 1835.94 155.302   2
  -4  22   8 456.115 81.1167   2
  -4  22   7 189.165 62.8241   2
  -4  22   6 446.267 79.9191   2
  -4  22   5 123.785 56.0519   2
   4  22  -5 48.2324 56.0892   1
  -4  22   5 50.4124 55.4018   3
   4  22  -4 710.988 102.004   1
  -4  22   4 663.953 83.5025   2
  -4  22   4 726.453 98.8779   3
  -4  22   3 341.117 65.5492   2
   4  22  -3 387.912 85.6901   1
  -4  22   3 340.896 73.5440   3
  -4  22   2 2603.42 144.978   2
   4  22  -2 2776.58 173.741   1
  -4  22   2 2321.52 154.616   3
   4  22  -1 1.91225 51.6364   1
  -4  22   1 93.0310 57.0902   3
   4  22   0 12.1954 42.2461   2
   4  22   0-3.67324 54.6629   1
  -4  22   0 78.7693 49.7620   3
   4  22   1 701.469 85.2053   2
   4  22   1 615.457 91.3669   1
  -4  22  -1 838.448 120.038   1
  -4  22  -1 576.489 80.8292   3
  -4  22  -2 829.320 121.513   1
   4  22   2 819.918 106.709   1
   4  22   2 615.735 86.1130   2
  -4  22  -2 628.611 80.7401   3
   4  22   3-32.3241 49.5997   2
  -4  22  -3 88.6723 72.0934   1
   4  22   3 15.6754 56.2856   1
  -4  22  -3-18.7538 43.8356   3
   4  22   4 581.251 87.8570   2
  -4  22  -4 425.705 96.8229   1
   4  22   5 498.353 86.7538   2
  -4  22  -5 546.576 104.009   1
   4  22   6 512.396 88.3685   2
  -4  22  -6 466.984 101.787   1
   4  22   7 683.948 101.745   2
  -4  22  -7 611.810 102.229   1
  -4  22  -8 2698.04 197.164   1
   4  22   8 2740.79 183.361   2
  -4  22  -9 249.226 87.3678   1
   4  22   9 160.431 67.7156   2
  -4  22 -10 2239.23 183.685   1
   4  22  10 2118.61 173.918   2
  -4  22 -11 36.3709 64.2462   1
   4  22  11 50.4504 61.6818   2
  -4  22 -12-26.4848 64.2717   1
   4  22  12 45.0074 64.0864   2
   4  22  13 58.4994 61.9643   2
   4  22  14 492.826 99.2428   2
  -4  23  15 972.690 127.075   2
  -4  23  14 195.674 69.8674   2
  -4  23  13-84.4422 69.6170   2
  -4  23  12 706.242 109.550   2
  -4  23  11 367.233 84.8911   2
  -4  23  10 338.204 79.9167   2
  -4  23   9 52.7268 53.7419   2
  -4  23   8 1427.93 132.371   2
  -4  23   7-9.16082 54.5595   2
  -4  23   6 516.154 85.4823   2
   4  23  -6 401.366 86.2032   1
  -4  23   5 1619.13 130.474   2
   4  23  -5 1953.57 155.420   1
   4  23  -4 2210.56 165.439   1
  -4  23   4 2021.23 138.454   2
   4  23  -3 1141.69 125.555   1
   4  23  -2 93.7801 62.3962   1
  -4  23   2 30.7479 48.5247   3
  -4  23   1 28.3512 51.1308   3
   4  23  -1-31.4425 60.3365   1
   4  23   0 2197.77 158.979   1
  -4  23   0 2154.90 143.807   3
   4  23   1 119.407 70.6004   1
  -4  23  -1 121.602 82.4577   1
  -4  23  -1-13.1921 42.2558   3
   4  23   2 729.040 91.4334   2
  -4  23  -2 915.992 126.460   1
   4  23   2 866.272 104.306   1
  -4  23  -3 230.305 85.2051   1
   4  23   3 240.651 66.1942   2
   4  23   4 66.8856 52.4458   2
  -4  23  -4-1.84954 66.1725   1
   4  23   5 919.609 106.918   2
  -4  23  -5 858.445 124.068   1
   4  23   6 5378.61 243.858   2
  -4  23  -6 5424.74 276.553   1
  -4  23  -7 2578.30 196.949   1
   4  23   7 2129.57 161.657   2
  -4  23  -8 1840.23 175.307   1
   4  23   8 1805.37 154.008   2
  -4  23  -9 608.407 115.249   1
   4  23   9 601.363 99.6094   2
  -4  23 -10 348.298 102.167   1
   4  23  10 332.005 81.5929   2
   4  23  11 293.559 87.6081   2
   4  23  12 2766.22 199.810   2
   4  23  13 459.558 95.6711   2
  -4  24  14 819.513 116.837   2
  -4  24  13 56.0873 64.4112   2
  -4  24  12 131.802 60.5250   2
  -4  24  11 26.4569 57.9449   2
  -4  24  10 307.288 78.4456   2
  -4  24   9 300.331 77.2826   2
  -4  24   8 116.658 63.8749   2
   4  24  -7 2230.29 176.907   1
  -4  24   7 1874.24 142.451   2
   4  24  -6 59.5875 64.3687   1
   4  24  -5 3.28868 61.6322   1
   4  24  -4 125.703 71.8369   1
   4  24  -3 2148.89 163.838   1
   4  24  -2 569.146 108.846   1
   4  24  -1 1585.32 143.789   1
   4  24   0 8.58091 58.1023   1
   4  24   1-20.7056 53.1419   1
   4  24   2 961.169 115.795   1
  -4  24  -2 1133.71 134.525   1
  -4  24  -3 2490.04 192.216   1
   4  24   4 607.205 89.0312   2
  -4  24  -4 635.180 122.090   1
  -4  24  -5 1288.51 145.059   1
   4  24   5 1141.19 119.168   2
   4  24   6 818.679 104.164   2
  -4  24  -6 692.066 119.759   1
   4  24   7 722.325 102.328   2
   4  24   8 218.144 67.7936   2
   4  24   9 1098.18 123.774   2
   4  24  10 501.447 92.2618   2
   4  24  11 880.597 122.709   2
  -4  25  13 373.655 87.8526   2
  -4  25  12 222.125 69.2902   2
  -4  25  11-20.2181 52.8013   2
  -4  25  10-9.28899 51.3939   2
  -4  25   9 532.857 88.7738   2
   4  25  -8 56.0392 62.8201   1
   4  25  -7 729.600 116.478   1
   4  25  -6 37.0433 67.0136   1
   4  25  -5 1468.62 146.541   1
   4  25  -4 160.217 77.9769   1
   4  25  -3 131.875 70.0623   1
   4  25  -2 238.710 76.9218   1
   4  25  -1 62.0675 70.5370   1
   4  25   0 110.777 64.7616   1
   4  25   1 4353.19 222.760   1
   4  25   2 564.281 94.5815   1
   4  25   6 167.183 67.0019   2
   4  25   7 1966.12 152.800   2
   4  25   8 171.051 69.4506   2
   4  25   9-16.5220 57.8541   2
   4  25  10 167.948 70.6769   2
   4  26  -6 311.527 82.2404   1
   4  26  -5 1.76860 68.9189   1
   4  26  -4 19.5409 62.5812   1
   4  26  -3 796.771 114.525   1
   4  26  -2 728.503 117.038   1
   4  26  -1 577.117 96.3159   1
   4  26   0 227.410 74.2907   1
   4  26   1-68.2137 68.5383   1
   4  27  -3 52.9730 59.1995   1
   4  27  -2 297.046 84.5001   1
   4  27  -1 229.913 84.0297   1
   4  27   0 326.673 80.7472   1
  -5   0  30 455.840 85.7667   2
  -5   0  29 84.1643 66.6593   2
  -5   0  28 2237.37 169.147   2
  -5   0  27 80.2302 61.5405   2
  -5   0  26 2471.69 166.945   2
  -5   0  25-14.8721 58.5300   2
  -5   0  24 117.466 61.7923   2
  -5   0  23-50.4286 54.6740   2
  -5   0  22 480.074 79.7647   2
  -5   0  21-27.0561 48.6651   2
  -5   0  20 5826.74 222.026   2
  -5   0  19 10.4756 49.9406   2
  -5   0  18 58.0338 44.4639   3
  -5   0  17-2.16954 41.1763   3
  -5   0  16 7198.83 213.918   3
  -5   0  15-60.4819 42.2502   3
  -5   0  14 8609.46 223.280   3
  -5   0  13 70.2291 40.9253   3
  -5   0  12 1254.59 88.1124   3
   5   0 -11-14.8646 30.0335   3
  -5   0  11-34.6327 39.2874   3
   5   0 -10 29518.8 365.167   3
  -5   0  10 28009.8 368.272   3
   5   0  -9-3.51052 29.3801   3
  -5   0   9 27.0128 39.6306   3
   5   0  -8 17991.9 282.562   3
  -5   0   8 17646.8 284.798   3
   5   0  -7 9.48930 29.0429   3
  -5   0   7-49.1784 40.9795   3
  -5   0   6 5950.11 165.528   3
   5   0  -6 5864.36 158.907   3
  -5   0   5 5.51807 33.8439   2
  -5   0   5-16.0422 38.8827   3
  -5   0   4 8578.87 195.717   2
  -5   0   4 8112.74 189.030   3
  -5   0   3-27.6259 40.8355   2
  -5   0   3-32.3265 42.3851   3
  -5   0   2 23188.0 321.439   3
  -5   0   2 23431.9 319.777   2
   5   0  -1 4.02139 47.4333   2
  -5   0   1-40.1058 39.0219   2
   5   0   0 2194.70 112.668   2
  -5   0   0 2259.34 103.164   2
   5   0   1 26.1676 41.2407   2
   5   0   1 13.8944 18.6572   1
  -5   0  -1-16.7117 32.8766   2
   5   0   2 848.795 77.7714   2
  -5   0  -2 957.150 76.4030   2
  -5   0  -3 12.9817 33.1388   2
   5   0   3-12.5840 43.5957   2
   5   0   4 13730.3 273.094   2
  -5   0  -4 14485.5 265.452   2
   5   0   5 38.4334 46.7422   2
   5   0   6 8592.48 220.586   2
  -5   0  -6 7870.95 96.6997   1
   5   0   7 25.2147 42.8660   2
  -5   0  -7-17.8542 15.2381   1
   5   0   8 6091.63 193.320   2
   5   0   9 8.44453 43.0274   2
   5   0  10 1678.92 111.500   2
   5   0  11 18.2852 46.5719   2
   5   0  12 3428.72 160.422   2
   5   0  13 33.1413 47.8217   2
   5   0  14 1296.80 108.792   2
   5   0  15 34.2215 47.3052   2
   5   0  16 2402.30 149.915   2
   5   0  17-0.59872 51.6449   2
   5   0  18 1189.77 112.627   2
   5   0  19-35.6526 53.9705   2
   5   0  20 462.376 81.1329   2
   5   0  21 37.4068 53.3099   2
   5   0  22 985.235 111.413   2
   5   0  23-21.6958 53.9085   2
   5   0  24 364.692 83.4601   2
   5   0  25 38.0526 55.4419   2
   5   0  26 5933.83 265.564   2
   5   0  27-8.56546 51.0565   2
  -5   1  30 1111.11 129.638   2
  -5   1  29 593.689 101.502   2
  -5  -1  29 755.168 103.859   2
  -5   1  28 367.069 85.7834   2
  -5  -1  28 261.485 76.5864   2
  -5   1  27 397.339 85.4390   2
  -5  -1  27 159.411 64.6673   2
  -5   1  26 785.381 104.495   2
  -5  -1  26 665.108 96.7522   2
  -5  -1  25 1782.76 138.663   2
  -5   1  25 1794.26 145.018   2
  -5  -1  24 2563.72 166.274   2
  -5   1  24 2729.01 172.741   2
  -5  -1  23 249.306 67.0315   2
  -5   1  23 414.092 78.2093   2
  -5  -1  22 438.366 75.2370   2
  -5   1  22 353.282 76.3902   2
  -5  -1  21 759.402 91.9794   2
  -5   1  21 724.218 95.4784   2
  -5  -1  20 1712.29 125.185   2
  -5   1  20 1887.50 136.329   2
  -5   1  19 2004.87 135.629   2
  -5  -1  19 1952.50 128.700   2
  -5   1  18 2592.48 141.727   3
  -5  -1  18 2509.54 130.322   3
  -5   1  17 1979.57 124.901   3
  -5  -1  17 2153.91 117.747   3
  -5   1  16 3268.88 150.695   3
  -5  -1  16 3314.42 142.746   3
  -5  -1  15 126.749 41.3898   3
  -5   1  15 35.7077 39.3668   3
  -5  -1  14 699.391 67.9237   3
  -5   1  14 640.935 74.7447   3
  -5  -1  13 10253.6 231.700   3
  -5   1  13 9961.59 243.682   3
   5   1 -12 11274.9 227.658   3
  -5  -1  12 10967.2 235.448   3
  -5   1  12 11042.9 249.074   3
   5   1 -11 10666.6 219.025   3
  -5  -1  11 10676.7 226.945   3
  -5   1  11 10668.1 239.871   3
  -5   1  10 1492.21 93.9514   3
   5   1 -10 1432.73 82.4026   3
  -5  -1  10 1434.29 87.8259   3
   5   1  -9 5018.19 150.013   3
   5  -1  -9 5181.49 157.810   3
  -5  -1   9 5157.63 156.325   3
  -5   1   9 5316.99 166.335   3
   5   1  -8 14321.5 246.339   3
   5  -1  -8 14864.6 258.792   3
  -5   1   8 14450.1 264.045   3
  -5  -1   8 14143.5 248.296   3
   5  -1  -7 1857.43 92.8763   3
  -5  -1   7 1863.68 93.1806   3
  -5   1   7 1799.91 99.6336   3
   5   1  -7 1798.10 88.7166   3
  -5  -1   6 12657.3 242.634   2
  -5   1   6 12244.0 239.598   3
  -5  -1   6 12458.2 231.633   3
   5  -1  -6 12862.3 235.621   3
  -5  -1   5 2220.97 104.020   2
  -5  -1   5 2107.78 99.8027   3
  -5   1   5 2189.04 105.975   3
   5  -1  -5 2217.20 101.634   3
  -5   1   4 2881.63 116.134   2
  -5   1   4 2818.34 118.030   3
  -5  -1   4 2848.38 115.198   3
  -5  -1   4 2838.64 115.548   2
  -5   1   3 5485.38 158.135   2
  -5   1   3 5406.58 161.000   3
  -5  -1   3 5222.84 154.524   3
  -5  -1   3 5395.08 156.812   2
  -5   1   2 51885.7 495.574   3
  -5  -1   2 54848.8 487.363   2
  -5   1   2 55841.7 491.726   2
   5   1  -1 16419.2 285.132   2
  -5   1   1 16482.6 279.357   3
  -5  -1   1 17237.9 273.328   2
  -5   1   1 17036.1 273.290   2
   5  -1   0 4220.81 147.911   2
  -5  -1   0 4457.14 143.446   2
  -5   1   0 4487.56 142.216   2
   5  -1   0 4147.83 94.6521   1
   5   1   0 4294.80 149.533   2
   5  -1   1 9874.85 221.857   2
  -5   1  -1 10248.5 214.129   2
  -5  -1  -1 10309.2 217.887   2
   5  -1   1 9657.12 135.085   1
   5   1   1 9464.79 106.967   1
   5   1   1 10020.7 227.410   2
  -5  -1  -2 1131.50 79.2507   2
  -5   1  -2 1120.42 76.3507   2
   5  -1   2 1091.64 85.7708   2
   5   1   2 968.362 81.9799   2
   5  -1   3 494.213 62.5087   2
  -5  -1  -3 575.477 60.6441   2
  -5   1  -3 600.932 60.5763   2
   5   1   3 504.534 65.8244   2
  -5   1  -4 380.649 49.4976   2
   5   1   4 400.750 65.5913   2
   5  -1   4 346.976 56.2548   2
   5   1   5 3365.86 140.266   2
   5  -1   5 3554.71 141.912   2
  -5   1  -5 3593.48 77.4783   1
  -5   1  -6 8544.18 122.853   1
   5   1   6 9046.33 230.539   2
   5  -1   6 8988.14 224.432   2
   5   1   7 14252.1 294.421   2
  -5   1  -7 14182.9 163.670   1
   5  -1   7 14601.8 287.463   2
   5   1   8 866.744 82.2252   2
   5  -1   8 992.092 85.6693   2
   5   1   9 1610.97 109.793   2
   5  -1   9 1591.45 105.842   2
   5   1  10 2040.53 123.999   2
   5  -1  10 2013.66 119.758   2
   5   1  11 2181.99 130.536   2
   5  -1  11 2052.21 125.320   2
   5   1  12 199.398 52.2948   2
   5  -1  12 155.533 53.7784   2
   5   1  13 2163.06 135.646   2
   5  -1  13 2207.41 132.069   2
   5   1  14 1088.14 103.294   2
   5  -1  14 1154.79 103.048   2
   5   1  15 59.4432 58.0024   2
   5  -1  15-40.6317 52.8084   2
   5   1  16 449.816 77.3772   2
   5  -1  16 590.544 80.8496   2
   5   1  17 207.252 60.0941   2
   5  -1  17 140.786 59.1877   2
   5  -1  18 1111.26 106.916   2
   5   1  18 1047.95 108.000   2
   5   1  19 518.896 86.4371   2
   5  -1  19 461.893 80.8054   2
   5   1  20 322.934 68.4303   2
   5  -1  20 199.715 62.4929   2
   5   1  21 125.902 62.6855   2
   5  -1  21-24.0464 48.7358   2
   5   1  22 86.9973 61.6048   2
   5  -1  22 62.6671 50.3047   2
   5   1  23 748.771 108.522   2
   5  -1  23 864.608 105.672   2
   5   1  24 484.078 91.3371   2
   5  -1  24 464.055 89.1281   2
   5   1  25 254.209 80.3963   2
   5  -1  25 249.251 70.5508   2
   5   1  26 402.009 86.3239   2
   5  -1  26 171.886 64.2497   2
   5   1  27 441.583 87.4438   2
  -5   2  31 463.980 89.4938   2
  -5   2  30-50.6615 66.9664   2
  -5   2  29-46.0124 61.6056   2
  -5   2  28 126.957 68.1355   2
  -5  -2  28 209.317 64.0167   2
  -5   2  27 1856.05 157.126   2
  -5  -2  27 1822.91 145.969   2
  -5   2  26 60.9731 60.1268   2
  -5  -2  26 88.4300 64.2276   2
  -5  -2  25 560.277 84.9059   2
  -5   2  25 688.555 100.997   2
  -5  -2  24 287.356 76.2440   2
  -5   2  24 191.268 69.2985   2
  -5  -2  23 211.637 60.9364   2
  -5   2  23 255.028 75.2117   2
  -5  -2  22 832.206 94.5656   2
  -5   2  22 917.118 109.063   2
  -5  -2  21 4818.84 199.814   2
  -5   2  21 4769.48 216.606   2
  -5  -2  20 91.1590 51.4094   2
  -5   2  20 56.6647 52.1706   2
  -5   2  19 45.8720 52.6739   2
  -5  -2  19-13.0016 43.5656   2
  -5   2  18-106.893 54.2099   3
  -5   2  18 66.2649 50.4779   2
  -5   2  17 9720.13 265.389   3
  -5  -2  17 9183.45 231.445   3
  -5  -2  16 786.422 73.0697   3
  -5   2  16 695.946 79.4172   3
  -5  -2  15 1373.25 92.2227   3
  -5   2  15 1098.92 94.5534   3
  -5  -2  14 937.703 75.1004   3
  -5   2  14 917.039 83.3498   3
   5   2 -13 5727.41 160.961   3
  -5  -2  13 5935.10 170.497   3
  -5   2  13 5923.98 191.722   3
   5   2 -12 809.753 65.6500   3
  -5  -2  12 827.107 68.9174   3
  -5   2  12 764.135 76.2587   3
   5   2 -11 11259.1 219.394   3
  -5  -2  11 11564.9 226.240   3
  -5   2  11 11125.6 250.665   3
   5   2 -10 3507.17 121.869   3
  -5  -2  10 3554.30 126.574   3
  -5   2  10 3754.10 145.753   3
   5   2  -9 49448.3 443.945   3
  -5  -2   9 49540.8 454.599   3
  -5   2   9 50173.4 511.950   3
  -5   2   8 98.7811 47.5114   3
  -5  -2   8 175.925 43.4107   3
   5   2  -8 118.797 34.6984   3
   5  -2  -8 185.532 44.1348   3
  -5  -2   7 3531.50 130.015   2
   5  -2  -7 3354.06 128.805   3
  -5   2   7 3385.07 134.769   3
  -5  -2   7 3348.36 121.463   3
  -5  -2   6 562.446 59.9636   2
   5  -2  -6 646.675 61.2866   3
  -5  -2   6 634.695 60.3089   3
  -5   2   6 628.116 67.5724   3
   5  -2  -5 8950.39 201.978   3
  -5  -2   5 8773.06 188.889   3
  -5   2   5 9044.83 212.214   3
  -5  -2   5 9146.17 203.690   2
  -5   2   4 3708.61 137.272   3
  -5  -2   4 3569.22 125.641   3
  -5  -2   4 3797.49 132.150   2
  -5   2   3 1272.09 79.8728   2
  -5  -2   3 1247.58 80.7995   3
  -5   2   3 1246.77 85.7681   3
  -5  -2   3 1383.83 82.6691   2
  -5   2   2 336.135 48.2996   2
  -5   2   2 323.828 56.9366   3
   5   2  -2 425.607 61.6786   2
  -5  -2   2 418.763 54.9436   2
   5   2  -1 7920.12 200.083   2
  -5  -2   1 8327.89 192.381   2
  -5   2   1 7756.30 197.278   3
  -5   2   1 8273.09 192.082   2
  -5  -2   0 5013.99 154.239   2
  -5   2   0 5048.58 161.686   3
  -5   2   0 4967.40 151.255   2
   5   2   0 5034.37 163.117   2
   5  -2   0 4763.74 108.440   1
  -5  -2  -1 6884.22 180.943   2
   5  -2   1 6967.11 187.275   2
  -5   2  -1 6653.48 173.366   2
   5   2   1 6645.03 186.125   2
   5  -2   1 6633.02 122.399   1
  -5  -2  -2 41.5229 36.8001   2
  -5   2  -2 40.2749 35.8575   2
   5   2   2 26.0795 43.4855   2
   5  -2   2 7.41770 40.4244   2
   5  -2   3 12794.4 255.100   2
  -5   2  -3 13656.9 248.870   2
   5   2   3 12879.1 266.693   2
   5  -2   4 144.003 47.9168   2
  -5   2  -4 85.4786 29.6961   2
   5   2   4 131.193 47.8538   2
   5   2   5 2692.51 130.761   2
   5  -2   5 2483.51 120.660   2
  -5   2  -5 2687.40 77.7375   1
  -5   2  -5 2626.55 115.035   2
   5   2   6 665.750 76.6455   2
  -5   2  -6 744.584 44.7663   1
   5  -2   6 781.241 77.0978   2
   5   2   7 92.5333 48.2559   2
   5  -2   7 114.194 43.4888   2
  -5   2  -7 95.1208 26.4499   1
   5   2   8 1519.06 107.613   2
   5  -2   8 1646.77 102.340   2
   5   2   9 16993.8 341.999   2
   5  -2   9 17289.6 317.174   2
   5   2  10 87.3685 52.2966   2
   5  -2  10 66.3724 45.8571   2
   5   2  11 9134.80 258.992   2
   5  -2  11 8739.48 238.452   2
   5   2  12 531.327 80.9636   2
   5  -2  12 547.056 68.7546   2
   5   2  13 614.039 85.3058   2
   5  -2  13 702.099 81.8204   2
   5   2  14 470.711 78.2795   2
   5  -2  14 480.171 72.5085   2
   5   2  15-40.3258 53.1464   2
   5  -2  15 7.23077 46.3919   2
   5   2  16 280.350 67.8542   2
   5  -2  16 149.758 56.3481   2
   5   2  17 234.025 68.1651   2
   5  -2  17 424.379 74.1332   2
   5   2  18 626.166 91.7271   2
   5  -2  18 520.488 79.8114   2
   5   2  19 656.164 94.9188   2
   5  -2  19 713.796 87.8640   2
   5   2  20-82.9665 64.7655   2
   5  -2  20 45.2875 52.0697   2
   5  -2  21 2232.34 154.956   2
   5   2  21 2230.56 160.464   2
   5   2  22 162.059 72.8716   2
   5  -2  22 13.6600 49.9066   2
   5   2  23 258.969 77.0325   2
   5  -2  23 116.178 57.9241   2
   5   2  24 35.3858 63.3321   2
   5  -2  24 30.4711 53.2498   2
   5   2  25 598.107 104.221   2
   5  -2  25 617.529 92.3865   2
   5   2  26-9.57221 60.5000   2
   5   2  27 557.003 98.8450   2
  -5   3  30 80.8199 62.5272   2
  -5   3  29 379.717 94.2513   2
  -5   3  28 1196.67 136.338   2
  -5   3  27 745.187 111.935   2
  -5  -3  27 718.938 95.3353   2
  -5   3  26 147.226 65.4330   2
  -5  -3  26-7.10763 47.7745   2
  -5  -3  25 211.997 61.4027   2
  -5   3  25-34.7943 55.3303   2
  -5  -3  24 115.218 51.2202   2
  -5   3  24-25.8214 53.1008   2
  -5  -3  23 911.643 98.1355   2
  -5   3  23 850.024 109.325   2
  -5  -3  22 351.708 65.4734   2
  -5   3  22 184.775 70.5232   2
  -5  -3  21 2839.77 155.696   2
  -5   3  21 2859.21 174.305   2
  -5  -3  20 2346.93 136.398   2
  -5   3  20 2699.82 167.653   2
  -5   3  19 741.813 96.6430   2
  -5  -3  19 629.196 78.7366   2
  -5   3  18 1602.94 131.314   2
  -5   3  18 1554.35 115.899   3
  -5   3  17 1754.28 122.517   3
  -5  -3  17 1560.10 95.5280   3
  -5   3  16 3256.15 163.204   3
  -5  -3  16 3243.51 131.433   3
   5   3 -15 2113.78 98.6578   3
  -5  -3  15 2249.73 108.445   3
  -5   3  15 2290.51 134.051   3
   5   3 -14 187.140 36.5397   3
  -5  -3  14 187.326 42.3028   3
  -5   3  14 191.963 52.9990   3
   5   3 -13 3736.87 126.450   3
  -5  -3  13 3861.58 133.604   3
  -5   3  13 4146.87 166.344   3
   5   3 -12 39.2862 27.9234   3
  -5  -3  12 0.87190 30.2949   3
  -5   3  12-27.7382 46.6449   3
   5   3 -11 2709.98 106.390   3
  -5  -3  11 2822.72 110.496   3
  -5   3  11 2874.76 134.719   3
   5   3 -10 14424.9 236.823   3
  -5  -3  10 15023.6 246.311   3
  -5   3  10 14853.3 292.956   3
  -5  -3   9 1701.44 86.1883   3
  -5   3   9 1848.42 107.045   3
  -5  -3   8 282.797 47.0407   2
  -5  -3   8 264.779 41.8133   3
  -5   3   8 283.600 55.9955   3
  -5  -3   7 27129.4 351.352   2
  -5  -3   7 26657.0 319.259   3
  -5   3   7 26901.4 371.753   3
   5  -3  -6 22274.5 325.253   3
  -5  -3   6 20996.4 284.371   3
  -5   3   6 21628.6 330.945   3
  -5  -3   6 22354.6 315.006   2
   5  -3  -5 15879.0 274.814   3
  -5   3   5 15507.6 282.590   3
  -5  -3   5 15604.5 247.057   3
  -5  -3   5 15663.8 264.025   2
  -5  -3   4 7771.80 177.358   3
   5  -3  -4 7991.13 195.709   3
  -5  -3   4 8108.26 191.386   2
  -5   3   4 7907.53 201.567   3
   5   3  -3 2700.38 119.496   2
  -5   3   3 2841.11 124.622   3
  -5  -3   3 2806.79 114.816   2
  -5   3   3 2945.52 119.534   2
   5   3  -2 3919.21 142.272   2
  -5   3   2 4026.15 137.077   2
  -5   3   2 4094.42 147.992   3
  -5  -3   2 3994.70 137.654   2
  -5  -3   1 14194.1 254.875   2
  -5   3   1 13200.7 254.501   3
   5  -3  -1 13370.1 198.408   1
   5   3  -1 13759.1 260.973   2
  -5   3   1 13691.7 248.127   2
   5  -3   0 166.782 32.7262   1
  -5  -3   0 179.488 44.6504   2
  -5   3   0 162.361 50.0730   3
   5   3   0 174.638 51.7260   2
  -5   3   0 212.368 41.6075   2
  -5  -3  -1 27.4346 37.3640   2
  -5   3  -1-29.6277 44.8783   3
   5  -3   1 4.13811 26.9961   1
  -5   3  -1 2.78019 30.1680   2
   5   3   1-0.08348 43.3065   2
   5  -3   2 19863.5 310.300   2
  -5   3  -2 20588.9 302.762   2
   5   3   2 20039.5 326.988   2
   5  -3   3 330.948 55.5149   2
  -5   3  -3 324.886 45.8369   2
   5   3   3 247.204 55.8309   2
  -5   3  -4 4410.75 145.433   2
   5   3   4 4295.61 161.238   2
  -5   3  -4 4269.41 106.922   1
   5  -3   4 4150.53 147.191   2
   5  -3   5 166.008 46.7613   2
  -5   3  -5 95.5794 32.3314   2
   5   3   5 120.956 51.2138   2
  -5   3  -5 105.536 30.4531   1
   5   3   6 6347.35 201.281   2
  -5   3  -6 5870.16 129.138   1
   5  -3   6 6299.57 182.652   2
  -5   3  -6 6492.20 177.465   2
   5   3   7 5153.88 186.653   2
   5  -3   7 5234.81 171.323   2
   5   3   8 18.1541 48.1715   2
   5  -3   8 31.5798 38.4477   2
   5   3   9 206.280 56.7588   2
   5  -3   9 375.224 60.0716   2
   5   3  10 7155.90 228.641   2
   5  -3  10 6851.95 203.036   2
   5  -3  11 5063.52 179.213   2
   5   3  11 4921.03 198.963   2
   5  -3  12 7167.44 216.232   2
   5   3  12 6906.62 236.208   2
   5  -3  13 4393.96 175.439   2
   5   3  13 4405.37 196.348   2
   5   3  14 6.24381 53.3070   2
   5  -3  14 55.4321 47.4103   2
   5  -3  15 1212.73 102.800   2
   5   3  15 1366.63 119.931   2
   5  -3  16 1413.59 109.630   2
   5   3  16 1407.82 124.340   2
   5   3  17 779.092 98.6576   2
   5  -3  17 927.837 93.7936   2
   5   3  18 808.752 100.017   2
   5  -3  18 884.254 96.2603   2
   5   3  19 757.448 104.449   2
   5  -3  19 809.802 92.4456   2
   5   3  20 797.607 106.107   2
   5  -3  20 784.388 93.6424   2
   5   3  21 736.825 103.776   2
   5  -3  21 623.234 90.1892   2
   5  -3  22 2907.86 171.935   2
   5   3  22 2970.26 193.283   2
   5   3  23 832.792 114.575   2
   5  -3  23 604.382 86.8531   2
   5   3  24 59.2333 58.3614   2
   5  -3  24 164.021 62.0133   2
   5   3  25 1197.13 135.373   2
   5   3  26 125.443 67.4298   2
   5   3  27-21.9525 67.2570   2
  -5   4  30 144.081 65.3431   2
  -5   4  29 83.3044 69.3742   2
  -5   4  28 126.091 74.1812   2
  -5   4  27 3665.82 222.397   2
  -5   4  26 719.130 111.953   2
  -5  -4  26 740.732 91.7923   2
  -5  -4  25 68.7144 49.4414   2
  -5   4  25 158.577 59.1223   2
  -5  -4  24 169.769 58.3826   2
  -5   4  24 190.657 71.8948   2
  -5  -4  23 54.6487 50.2881   2
  -5   4  23 74.7714 65.5632   2
  -5  -4  22 2900.61 155.071   2
  -5   4  22 2809.84 178.841   2
  -5  -4  21 1.24944 47.8731   2
  -5   4  21 38.4493 54.5245   2
  -5  -4  20 10.8897 42.6508   2
  -5   4  20 131.817 63.6654   2
  -5   4  19 7573.89 266.159   2
  -5   4  18 174.706 67.6798   2
  -5   4  18 249.288 67.1788   3
  -5  -4  17 5875.78 169.990   3
  -5   4  17 5497.23 214.422   3
  -5   4  17 6026.28 231.195   2
   5   4 -16 2232.40 100.591   3
  -5   4  16 2307.41 137.849   3
  -5  -4  16 2243.76 106.374   3
   5   4 -15 1933.01 90.9928   3
  -5   4  15 2066.95 129.914   3
  -5  -4  15 1865.31 96.6811   3
   5   4 -14 6449.75 160.637   3
  -5  -4  14 6357.57 167.620   3
  -5   4  14 6733.95 219.614   3
   5   4 -13 2360.94 98.4103   3
  -5  -4  13 2368.52 101.983   3
  -5   4  13 2342.33 131.882   3
   5   4 -12 33.8025 24.9991   3
  -5  -4  12 72.7332 32.7898   3
  -5   4  12 23.1774 43.7795   3
   5   4 -11 114.748 31.9708   3
  -5  -4  11 117.084 34.3207   3
  -5   4  11 224.792 59.7117   3
  -5  -4  10 1034.51 77.1425   2
  -5  -4  10 1091.58 69.3780   3
  -5   4  10 1011.01 87.2907   3
  -5  -4   9 6889.35 183.485   2
  -5   4   9 6940.67 201.990   3
  -5  -4   9 6912.25 162.354   3
  -5  -4   8 243.311 44.2217   2
  -5  -4   8 289.935 43.4411   3
  -5   4   8 353.624 62.9533   3
  -5  -4   7 3749.97 121.271   3
  -5   4   7 3778.46 148.284   3
  -5  -4   7 3617.90 131.816   2
  -5  -4   6 1286.39 73.7095   3
  -5   4   6 1418.03 95.4784   3
  -5  -4   6 1354.06 82.4688   2
  -5  -4   5 4747.48 137.402   3
  -5   4   5 4933.26 164.367   3
  -5  -4   5 5060.74 151.294   2
   5  -4  -4 36541.5 423.560   3
  -5  -4   4 37864.0 409.160   2
  -5   4   4 36264.5 432.539   3
  -5  -4   4 35935.2 375.519   3
   5  -4  -3 485.663 56.6100   3
   5   4  -3 398.491 56.1465   2
  -5   4   3 481.039 64.0471   3
  -5  -4   3 414.548 53.9621   2
  -5  -4   2 23323.9 327.349   2
  -5   4   2 23276.4 326.333   2
  -5   4   2 22998.7 338.636   3
   5  -4  -2 22417.7 277.761   1
   5   4  -2 22564.4 334.813   2
  -5   4   1 8539.43 196.393   2
  -5  -4   1 8241.75 198.465   2
  -5   4   1 8157.58 205.097   3
   5   4  -1 7861.92 203.182   2
   5  -4  -1 8035.91 163.853   1
  -5  -4   0 8077.52 197.676   2
  -5   4   0 7979.29 203.249   3
   5  -4   0 7946.06 159.635   1
   5   4   0 7683.90 204.709   2
  -5   4   0 8335.08 191.655   2
   5  -4   1 6264.24 139.409   1
   5   4   1 6288.95 189.077   2
  -5   4  -1 6522.83 184.958   3
  -5   4  -1 6592.92 171.597   2
  -5  -4  -1 6675.18 182.669   2
   5   4   2 2437.67 121.550   2
  -5   4  -2 2479.36 108.638   2
  -5   4  -2 2492.71 119.440   3
   5   4   3 84.1429 45.7604   2
   5  -4   3 57.7204 38.1636   2
  -5   4  -3 29.3147 27.9953   2
  -5   4  -3 48.6639 30.8379   1
   5  -4   4 4141.48 146.742   2
  -5   4  -4 4161.17 139.427   2
   5   4   4 3796.75 154.262   2
  -5   4  -4 4024.64 114.479   1
  -5   4  -5 1.92865 28.0928   1
  -5   4  -5 16.7137 28.4893   2
   5  -4   5-16.4247 39.6799   2
   5   4   5 91.4487 45.9610   2
  -5   4  -6-9.58139 29.2636   2
   5  -4   6-4.99811 37.1027   2
   5   4   6 15.8732 46.9823   2
  -5   4  -6-8.40815 27.9517   1
   5   4   7-28.2537 53.5926   2
  -5   4  -7-9.63873 31.1187   1
   5  -4   7 43.9030 37.1670   2
   5   4   8 6071.15 210.464   2
   5  -4   8 6171.51 183.648   2
   5   4   9 4675.37 187.495   2
   5  -4   9 4770.68 165.549   2
   5  -4  10 24194.4 373.662   2
   5   4  10 23893.0 420.692   2
   5  -4  11 5675.02 184.592   2
   5   4  11 5491.95 211.868   2
   5   4  12 64.8372 55.8317   2
   5  -4  12 107.177 45.8874   2
   5   4  13 122.030 61.9836   2
   5  -4  13 192.269 52.0993   2
   5  -4  14 2477.38 133.326   2
   5   4  14 2228.36 149.241   2
   5   4  15 17.3041 53.8870   2
   5  -4  15 13.1842 42.8540   2
   5   4  16 185.975 63.7978   2
   5  -4  16 185.101 52.8893   2
   5   4  17 216.126 67.0591   2
   5  -4  17 190.522 47.9250   2
   5   4  18 534.183 91.0280   2
   5  -4  18 421.577 72.1126   2
   5   4  19-7.49431 60.8446   2
   5  -4  19 134.071 58.2138   2
   5  -4  20 5363.00 213.728   2
   5   4  20 5219.69 244.648   2
   5   4  21 14.1133 55.1847   2
   5  -4  21 4.33894 45.8276   2
   5   4  22 90.7354 67.0028   2
   5  -4  22-38.3212 47.3882   2
   5   4  23 215.588 77.2121   2
   5  -4  23 264.651 64.2707   2
   5   4  24 2224.75 179.770   2
   5   4  25 46.1486 73.4719   2
   5   4  26 1119.81 135.053   2
  -5   5  29 288.088 88.1030   2
  -5   5  28 1465.65 157.375   2
  -5   5  27 243.538 86.9505   2
  -5   5  26 13.0474 68.4538   2
  -5  -5  25-7.79728 43.3609   2
  -5   5  25 204.262 77.3532   2
  -5  -5  24 450.885 74.0472   2
  -5   5  24 262.350 80.5626   2
  -5  -5  23 313.431 62.0474   2
  -5   5  23 376.604 91.2786   2
  -5  -5  22 79.8264 43.6539   2
  -5   5  22 184.134 70.8711   2
  -5  -5  21 43.2871 41.8724   2
  -5   5  21-2.16159 61.1772   2
  -5  -5  20 3752.43 163.062   2
  -5   5  20 3766.44 199.234   2
  -5   5  19 1079.78 111.169   2
  -5   5  18 3084.46 168.417   3
  -5   5  18 3152.07 182.746   2
   5   5 -17 382.246 45.0302   3
  -5   5  17 389.791 73.2045   3
  -5   5  17 378.703 80.1412   2
   5   5 -16 552.615 50.6689   3
  -5  -5  16 645.552 59.2120   3
  -5   5  16 545.235 79.8633   3
   5   5 -15 653.037 54.4665   3
  -5  -5  15 686.805 59.4565   3
  -5   5  15 685.528 90.0243   3
   5   5 -14 52.7831 28.0443   3
  -5  -5  14 92.6243 33.7973   3
  -5   5  14 39.5928 47.1622   3
   5   5 -13 0.06582 22.9901   3
  -5  -5  13-42.7573 29.2933   3
  -5   5  13-15.7728 46.4209   3
  -5  -5  12 13068.5 219.769   3
  -5   5  12 12999.8 303.084   3
  -5  -5  11 1396.88 85.9468   2
  -5  -5  11 1439.47 74.9751   3
  -5   5  11 1334.89 99.5321   3
  -5  -5  10 10.4611 26.4921   2
  -5  -5  10 12.6152 24.2877   3
  -5   5  10-9.00639 45.5413   3
  -5  -5   9 110.189 33.8434   2
  -5  -5   9 136.301 32.8207   3
  -5   5   9 220.058 51.2715   3
  -5  -5   8 13770.7 219.176   3
  -5   5   8 13644.1 283.952   3
  -5  -5   8 13363.6 248.105   2
  -5  -5   7 587.918 52.8219   3
  -5   5   7 611.920 74.2312   3
  -5  -5   7 593.164 58.1827   2
  -5  -5   6 795.873 61.1682   3
  -5   5   6 932.164 83.1534   3
  -5  -5   6 786.557 64.6393   2
  -5  -5   5 1266.79 73.3003   3
  -5  -5   5 1254.96 80.0854   2
  -5   5   5 1410.87 98.5352   3
   5   5  -4 24156.4 341.313   2
  -5  -5   4 25068.6 334.362   2
  -5   5   4 24698.8 363.658   3
   5   5  -3 980.187 80.1114   2
  -5  -5   3 1042.11 75.3799   2
  -5   5   3 1064.61 88.3756   3
   5  -5  -3 1033.99 69.8443   1
   5   5  -2 303.097 55.5454   2
  -5  -5   2 190.567 42.5370   2
   5  -5  -2 268.542 43.5372   1
  -5   5   2 212.463 51.1014   3
  -5  -5   1 2266.91 108.667   2
  -5   5   1 2163.01 103.127   2
   5  -5  -1 2158.48 92.7120   1
  -5   5   1 2111.93 111.988   3
   5   5  -1 2165.05 112.382   2
   5  -5   0 36179.1 354.847   1
  -5   5   0 34519.0 428.318   3
   5   5   0 35591.8 426.539   2
  -5   5   0 36113.0 401.765   2
  -5  -5   0 36070.3 416.907   2
  -5   5  -1 3050.08 131.365   3
   5   5   1 2806.77 131.500   2
  -5   5  -1 3202.37 122.924   2
   5   5   2 1245.81 94.5966   2
  -5   5  -2 1301.86 90.2885   3
  -5   5  -2 1293.21 81.6958   2
   5   5   3 954.946 85.7823   2
  -5   5  -3 995.076 80.4657   3
  -5   5  -3 1027.47 73.1954   2
  -5   5  -3 966.727 66.0769   1
   5   5   4 97.0789 46.0318   2
  -5   5  -4 69.8625 31.4380   2
  -5   5  -4 108.831 37.7723   1
   5   5   5 442.719 69.0210   2
  -5   5  -5 446.007 52.0435   2
  -5   5  -5 338.359 45.7294   1
   5  -5   5 440.786 56.4792   2
  -5   5  -6 14395.1 259.123   2
  -5   5  -6 13743.8 228.812   1
   5  -5   6 14231.6 266.067   2
   5   5   6 14289.8 308.788   2
  -5   5  -7 20.8001 26.5971   2
   5   5   7 28.9814 43.5600   2
   5  -5   7 56.9350 39.2014   2
  -5   5  -7-8.92231 35.4455   1
   5   5   8 3287.85 158.987   2
   5  -5   8 3550.68 139.938   2
   5  -5   9 1967.74 107.509   2
   5   5   9 1962.69 128.641   2
   5  -5  10 10601.3 244.067   2
   5   5  10 10556.1 288.040   2
   5  -5  11 1407.52 95.3230   2
  -5  -5 -11 1272.88 45.6448   1
   5   5  11 1291.63 113.612   2
   5   5  12 913.396 99.9664   2
   5  -5  12 1022.02 86.8235   2
   5  -5  13 2138.46 120.069   2
   5   5  13 2258.89 148.537   2
   5  -5  14 1635.69 107.476   2
   5   5  14 1679.88 137.120   2
   5   5  15 282.433 74.1981   2
   5  -5  15 322.533 60.3487   2
   5   5  16 65.2938 54.4817   2
   5  -5  16-47.6892 44.8321   2
   5   5  17 4.98639 60.0265   2
   5  -5  17 153.564 49.7358   2
   5  -5  18 5481.44 203.046   2
   5   5  18 4926.12 232.750   2
   5   5  19 269.380 73.1129   2
   5  -5  19 53.7640 45.8375   2
   5   5  20 844.057 117.011   2
   5  -5  20 903.606 94.2010   2
   5   5  21 779.932 110.251   2
   5  -5  21 851.119 92.4954   2
   5  -5  22 2280.75 144.651   2
   5   5  22 2577.76 184.191   2
   5   5  23 455.698 94.5426   2
   5   5  24 4504.93 252.119   2
   5   5  25 122.740 79.4917   2
   5   5  26-66.4638 65.0690   2
  -5   6  29 192.761 78.2266   2
  -5   6  28 1257.62 143.579   2
  -5   6  27 2156.57 181.627   2
  -5   6  26 44.1862 67.3548   2
  -5   6  25-65.4030 68.8898   2
  -5  -6  24 52.8249 41.9611   2
  -5   6  24-30.1321 60.7300   2
  -5  -6  23 1256.39 105.757   2
  -5   6  23 1367.74 137.136   2
  -5  -6  22 17.6421 38.2743   2
  -5   6  22-10.0864 59.4321   2
  -5   6  21 2710.36 179.057   2
  -5  -6  21 2595.01 138.095   2
  -5   6  20 695.508 108.423   2
  -5  -6  20 1092.64 91.2283   2
  -5   6  19 136.696 67.8841   2
  -5   6  18 235.673 79.3977   2
  -5   6  18 32.6486 58.7531   3
   5   6 -17 6755.29 155.867   3
  -5   6  17 6992.12 246.308   3
  -5   6  17 7004.58 259.691   2
   5   6 -16 877.836 58.9438   3
  -5  -6  16 914.194 64.5036   3
  -5   6  16 813.461 97.0215   3
  -5   6  16 892.316 100.399   2
   5   6 -15 2774.85 99.6977   3
  -5   6  15 2870.97 163.464   3
  -5  -6  15 2877.76 107.167   3
   5   6 -14 349.877 40.3153   3
  -5  -6  14 412.064 46.3054   3
  -5   6  14 507.692 76.6890   3
  -5  -6  13 588.757 50.6280   3
  -5   6  13 536.384 81.0602   3
  -5  -6  12 1278.75 81.5408   2
  -5  -6  12 1282.34 68.1526   3
  -5   6  12 1317.80 110.887   3
  -5  -6  11 1586.55 74.5506   3
  -5   6  11 1517.74 110.613   3
  -5  -6  11 1581.58 88.9581   2
  -5   6  10 3220.33 154.609   3
  -5  -6  10 3199.45 104.266   3
  -5  -6  10 3277.98 123.523   2
  -5  -6   9 1025.44 61.1463   3
  -5   6   9 1121.25 95.3509   3
  -5  -6   9 1037.36 72.4571   2
  -5  -6   8 1913.35 82.2362   3
  -5  -6   8 1898.22 95.2874   2
  -5   6   8 1820.05 112.694   3
  -5  -6   7 1219.72 67.8531   3
  -5  -6   7 1171.26 75.8721   2
  -5   6   7 1167.56 94.3626   3
  -5  -6   6 5.30328 28.6060   3
  -5  -6   6 14.9165 31.1635   2
  -5   6   6-1.99313 45.3301   3
  -5  -6   5 198.875 41.3620   2
  -5   6   5 227.755 55.4078   3
  -5  -6   4 59.6616 30.9916   2
  -5   6   4 94.8303 47.0301   3
   5  -6  -4 179.083 46.7896   1
   5   6  -4 93.4473 41.1031   2
  -5  -6   3 38005.8 418.306   2
  -5   6   3 36915.3 451.951   3
   5  -6  -3 37609.8 402.215   1
   5   6  -3 36614.0 422.984   2
  -5  -6   2 3882.74 137.848   2
   5  -6  -2 3680.24 126.510   1
  -5   6   2 3752.27 148.185   3
   5   6  -2 3441.00 137.318   2
  -5   6   1 6635.86 175.176   2
  -5   6   1 6541.23 190.500   3
   5   6  -1 6180.84 182.677   2
   5  -6  -1 6432.70 164.397   1
  -5  -6   1 6509.30 179.890   2
  -5   6   0 214.152 42.2055   2
  -5   6   0 166.125 48.3679   3
   5   6   0 138.502 46.1389   2
   5  -6   0 106.709 30.3930   1
   5   6   1 4180.09 156.851   2
  -5   6  -1 4277.57 155.505   3
  -5   6  -1 4178.58 138.593   2
  -5   6  -2 439.533 55.3976   1
  -5   6  -2 365.422 54.7595   3
   5   6   2 436.340 64.6777   2
   5   6   2 316.369 23.2102   1
  -5   6  -2 414.194 49.1997   2
   5   6   3 7111.20 209.156   2
  -5   6  -3 7029.62 201.674   3
  -5   6  -3 7198.48 179.795   2
  -5   6  -3 7240.43 172.841   1
  -5   6  -4 9605.77 200.305   1
   5   6   4 10123.9 252.653   2
  -5   6  -4 9973.63 238.479   3
  -5   6  -4 10250.0 213.658   2
   5   6   5 1993.92 121.980   2
  -5   6  -5 2086.54 98.9346   2
  -5   6  -5 2041.79 114.600   3
  -5   6  -5 1900.45 93.4151   1
  -5   6  -6 750.725 63.1683   1
  -5   6  -6 710.831 62.0977   2
   5   6   6 737.082 81.4288   2
   5  -6   6 779.857 68.3941   2
   5   6   7 12719.5 299.345   2
   5  -6   7 12567.1 251.883   2
  -5   6  -7 12250.0 233.265   1
  -5   6  -7 12991.9 242.623   2
  -5   6  -8 14183.1 253.470   2
   5  -6   8 13775.7 265.186   2
   5   6   8 13021.0 311.889   2
   5  -6   9 14325.3 274.380   2
   5   6   9 13723.9 326.740   2
   5  -6  10 5351.71 170.050   2
   5   6  10 5563.87 215.681   2
   5   6  11 273.619 71.9390   2
  -5  -6 -11 211.465 21.5720   1
   5  -6  11 277.803 49.2445   2
   5  -6  12 1260.23 90.0531   2
  -5  -6 -12 1077.78 46.5416   1
   5   6  12 1163.94 109.157   2
   5   6  13 310.294 77.6184   2
  -5  -6 -13 207.459 27.5709   1
   5  -6  13 140.020 40.2190   2
   5  -6  14 2302.69 123.821   2
   5   6  14 2335.39 156.508   2
   5   6  15 220.158 69.5371   2
   5  -6  15 381.087 61.0445   2
   5  -6  16 32.4660 39.4747   2
   5   6  16-67.0501 59.2865   2
   5  -6  17 692.970 74.8431   2
   5   6  17 567.967 91.3751   2
   5  -6  18 672.863 78.5345   2
   5   6  18 485.516 88.3694   2
   5  -6  19 2872.65 149.094   2
   5   6  19 2559.47 179.820   2
   5  -6  20 2246.31 137.577   2
   5   6  20 2402.95 174.831   2
   5   6  21 627.889 105.011   2
   5  -6  21 614.896 81.0173   2
   5   6  22 626.532 109.023   2
   5   6  23 39.9943 71.2289   2
   5   6  24 759.867 118.501   2
   5   6  25 2501.15 191.874   2
  -5   7  28 816.208 124.534   2
  -5   7  27 642.836 113.606   2
  -5   7  26 509.944 95.3099   2
  -5   7  25 27.7610 63.4406   2
  -5   7  24 22.6721 56.3215   2
  -5  -7  23 1371.18 104.914   2
  -5   7  23 1466.25 144.989   2
  -5  -7  22 83.9259 43.5426   2
  -5   7  22 38.1084 68.3910   2
  -5   7  21 785.657 109.362   2
  -5  -7  21 790.497 77.0220   2
  -5  -7  20 169.506 49.1378   2
  -5   7  20 108.541 64.9288   2
  -5   7  19 5533.62 243.702   2
  -5   7  18 9246.94 297.005   3
  -5   7  18 9321.38 304.626   2
  -5   7  17 3704.99 191.119   3
  -5   7  17 3256.98 190.138   2
  -5   7  16 52.9263 59.9780   3
  -5   7  16 1.84887 56.1922   2
  -5   7  15 3640.91 178.760   3
  -5  -7  15 3437.73 108.272   3
  -5  -7  14 763.091 53.9393   3
  -5   7  14 625.163 85.2905   3
  -5  -7  13 3058.42 98.1128   3
  -5  -7  13 2904.96 119.549   2
  -5   7  13 2932.91 158.327   3
  -5  -7  12 918.110 56.5048   3
  -5   7  12 983.697 95.3213   3
  -5  -7  12 983.689 69.5802   2
  -5   7  11 4455.14 182.838   3
  -5  -7  11 4313.06 141.890   2
  -5  -7  11 4144.20 111.076   3
  -5  -7  10 236.624 33.3549   3
  -5   7  10 247.975 65.5557   3
  -5  -7  10 172.092 37.7774   2
  -5  -7   9 5071.45 124.893   3
  -5  -7   9 4972.99 149.422   2
  -5   7   9 5202.07 190.892   3
  -5  -7   8 1925.31 79.2214   3
  -5  -7   8 1968.24 98.7252   2
  -5   7   8 2031.40 120.574   3
  -5  -7   7 10530.1 185.189   3
  -5  -7   7 11000.8 220.780   2
  -5   7   7 10545.3 264.152   3
  -5  -7   6 888.699 67.5075   2
  -5  -7   6 1045.31 63.5302   3
  -5   7   6 1053.44 90.1858   3
  -5  -7   5 3783.00 133.046   2
   5   7  -5 3620.60 136.000   2
  -5   7   5 3769.74 156.222   3
   5   7  -4 5660.75 168.643   2
  -5  -7   4 6003.34 169.089   2
  -5   7   4 5791.71 189.771   3
  -5   7   3 160.950 49.9529   3
   5   7  -3 282.824 56.6971   2
  -5  -7   3 156.910 39.6049   2
  -5  -7   2 38.9580 30.9025   2
  -5   7   2 16.8310 50.2826   3
   5  -7  -2 173.266 41.5630   1
   5   7  -2 93.8399 40.7835   2
  -5   7   1 619.321 70.5291   3
   5   7  -1 550.830 63.0269   2
   5  -7  -1 589.485 56.6658   1
  -5   7   0 422.097 50.7338   2
  -5   7   0 404.790 60.0769   3
   5  -7   0 438.665 51.2514   1
   5   7   0 463.682 62.7997   2
   5   7   1 7688.49 214.035   2
  -5   7  -1 7697.48 211.504   3
  -5   7  -1 7967.37 191.284   2
   5   7   2 1095.75 44.7369   1
   5   7   2 1005.37 87.1255   2
  -5   7  -2 1004.06 83.0741   3
  -5   7  -2 1117.16 80.3494   1
  -5   7  -2 1109.21 75.4651   2
   5   7   3 5247.08 185.630   2
  -5   7  -3 5501.79 179.807   3
  -5   7  -3 5647.11 160.692   2
   5   7   3 5309.27 87.2083   1
  -5   7  -3 5680.36 162.456   1
   5   7   4 39.0577 43.9710   2
  -5   7  -4-17.8912 37.6796   3
  -5   7  -4 12.9974 26.1748   2
  -5   7  -4 7.41928 36.5212   1
   5   7   5 12965.2 296.625   2
  -5   7  -5 12996.8 240.037   2
  -5   7  -5 13089.1 276.981   3
  -5   7  -5 12792.2 244.637   1
   5   7   6 38.7645 49.4214   2
  -5   7  -6-6.15216 29.9487   2
  -5   7  -6 0.53621 38.6849   3
  -5   7  -6-17.5882 37.9056   1
  -5   7  -7 21826.9 325.876   1
  -5   7  -7 22584.4 314.197   2
   5   7   7 22154.3 399.455   2
   5  -7   8 5188.92 163.651   2
  -5   7  -8 5169.45 151.717   2
   5   7   8 5131.40 204.407   2
   5   7   9 512.073 80.6173   2
   5  -7   9 588.660 62.4358   2
   5   7  10 1344.73 116.813   2
   5  -7  10 1233.27 85.5956   2
  -5  -7 -11 11579.4 142.788   1
   5  -7  11 13109.3 264.837   2
   5   7  11 13146.8 337.663   2
  -5  -7 -12 3050.67 79.2127   1
   5  -7  12 3375.08 138.906   2
   5   7  12 3482.76 184.370   2
   5  -7  13 5548.73 180.564   2
  -5  -7 -13 4961.59 105.393   1
   5   7  13 5119.87 223.369   2
   5  -7  14 968.074 80.9051   2
   5   7  14 1151.12 119.837   2
   5  -7  15 664.732 70.9430   2
   5   7  15 726.066 101.635   2
   5  -7  16 329.404 56.5444   2
   5   7  16 276.218 78.9223   2
   5  -7  17 222.818 50.9668   2
   5   7  17 249.877 77.4270   2
   5  -7  18 1088.24 93.0420   2
   5   7  18 1084.13 120.117   2
   5  -7  19 385.215 65.9648   2
   5   7  19 554.168 104.906   2
   5   7  20 47.0899 73.2194   2
   5   7  21 231.065 80.7169   2
   5   7  22 456.367 101.059   2
   5   7  23 2598.19 195.820   2
   5   7  24 553.313 115.192   2
   5   7  25 1419.28 154.757   2
  -5   8  28 835.378 119.991   2
  -5   8  27 95.9943 77.9059   2
  -5   8  26 1159.65 137.734   2
  -5   8  25-38.5929 65.5033   2
  -5   8  24 113.338 74.6757   2
  -5   8  23 732.907 116.862   2
  -5   8  22 377.852 86.6950   2
  -5   8  21 3343.64 201.191   2
  -5  -8  21 3258.46 144.386   2
  -5   8  20 974.196 120.088   2
  -5  -8  20 1107.27 86.8171   2
  -5   8  19 118.692 63.4595   2
  -5  -8  19 113.900 43.2422   2
  -5   8  18 53.9730 59.2698   2
  -5   8  18 78.9208 65.6027   3
  -5   8  17-3.33480 52.2993   2
  -5   8  17 45.6213 53.9892   3
  -5   8  16 4378.42 205.247   3
  -5   8  16 4386.18 206.503   2
  -5   8  15 1723.56 133.659   3
  -5   8  15 1831.59 139.102   2
  -5   8  14 1279.56 117.725   3
  -5  -8  14 1364.30 62.5983   3
  -5  -8  14 1320.98 79.0370   2
  -5  -8  13 15.8912 26.7328   2
  -5  -8  13-0.26160 19.4814   3
  -5   8  13 42.5671 50.4787   3
  -5  -8  12 1927.81 95.2931   2
  -5   8  12 1991.54 132.613   3
  -5  -8  12 1998.65 73.7236   3
  -5  -8  11 41.1702 23.1987   3
  -5   8  11 95.3809 52.7364   3
  -5  -8  11 45.4070 27.1646   2
  -5  -8  10 8091.32 188.422   2
  -5  -8  10 8243.38 149.577   3
  -5   8  10 8347.27 253.450   3
  -5  -8   9 1452.07 85.0669   2
  -5  -8   9 1416.17 65.8401   3
  -5   8   9 1554.56 113.719   3
  -5  -8   8 7392.45 181.836   2
  -5  -8   8 7572.99 149.882   3
  -5   8   8 7746.02 231.562   3
  -5  -8   7 9207.10 202.049   2
  -5  -8   7 8935.79 167.827   3
  -5   8   7 9049.51 247.154   3
  -5  -8   6 6697.74 175.647   2
  -5  -8   6 6625.50 148.492   3
  -5   8   6 6433.72 208.915   3
  -5  -8   5 8712.13 202.326   2
   5   8  -5 8240.11 204.205   2
  -5   8   5 8583.49 235.763   3
  -5   8   4 31478.2 442.841   3
   5   8  -4 31279.0 395.154   2
  -5  -8   4 32417.9 388.378   2
  -5   8   3 10477.2 253.946   3
   5   8  -3 10731.6 232.807   2
  -5  -8   3 10931.0 228.067   2
  -5   8   2 4818.31 171.129   3
   5   8  -2 4561.32 158.963   2
  -5   8   1 193.178 53.2785   3
   5   8  -1 222.074 48.5929   2
  -5   8   0 717.498 63.4859   2
  -5   8   0 723.079 72.3559   3
   5   8   0 699.834 72.1758   2
  -5   8  -1 179.860 39.1221   2
   5   8   1 194.223 52.3394   2
  -5   8  -1 177.174 47.8696   3
  -5   8  -1 212.195 50.3851   1
  -5   8  -2 6.49569 40.0464   1
  -5   8  -2 5.52107 29.2062   2
   5   8   2 35.6616 44.8258   2
  -5   8  -2-31.4658 45.2013   3
   5   8   2 9.88069 20.7409   1
   5   8   3 3048.68 142.534   2
  -5   8  -3 3155.93 138.900   3
  -5   8  -3 3233.72 121.895   2
   5   8   3 3204.70 79.1540   1
  -5   8  -3 2988.53 129.091   1
   5   8   4 70.5544 42.9519   2
  -5   8  -4 115.416 42.8057   3
  -5   8  -4 114.199 32.7338   2
  -5   8  -4 74.3811 39.5318   1
   5   8   5 444.824 74.0377   2
  -5   8  -5 420.006 63.1794   3
  -5   8  -5 524.574 51.9498   2
  -5   8  -5 451.830 60.4477   1
   5   8   6 220.563 56.6114   2
  -5   8  -6 172.271 34.6285   2
  -5   8  -6 259.013 59.7976   3
  -5   8  -6 303.329 55.4873   1
   5   8   7 10.3433 50.0356   2
  -5   8  -7 15.0024 29.1706   2
  -5   8  -7 89.9600 45.6680   3
  -5   8  -7 51.5473 46.0657   1
  -5   8  -8 14567.5 302.001   3
  -5   8  -8 14717.4 251.280   2
   5   8   8 13577.5 327.856   2
  -5   8  -9 3840.53 130.678   2
   5   8   9 3629.90 179.632   2
   5  -8  10 4069.87 146.044   2
   5   8  10 3977.72 189.805   2
   5  -8  11 14051.4 268.732   2
   5   8  11 13247.4 343.190   2
   5   8  12 771.590 98.9871   2
  -5  -8 -12 772.607 43.1606   1
   5  -8  12 906.308 76.3508   2
   5  -8  13 78.6777 39.4932   2
   5   8  13 106.225 56.2810   2
   5  -8  14 49.4563 36.3285   2
   5   8  14 114.123 63.9601   2
   5  -8  15 918.665 78.8455   2
   5   8  15 940.280 111.055   2
   5  -8  16 865.467 79.3088   2
   5   8  16 755.424 105.454   2
   5   8  17 228.791 72.0592   2
   5  -8  17 146.045 47.7399   2
   5  -8  18 295.253 56.4849   2
   5   8  18 273.553 76.7470   2
   5   8  19 1958.15 159.249   2
   5   8  20 1207.72 138.403   2
   5   8  21 1129.05 136.671   2
   5   8  22-64.2305 70.6244   2
   5   8  23 501.521 102.392   2
   5   8  24-0.12812 63.0041   2
  -5   9  27 521.029 109.323   2
  -5   9  26 19.7145 68.3596   2
  -5   9  25 932.653 123.749   2
  -5   9  24 3283.81 217.597   2
  -5   9  23 121.418 76.8115   2
  -5   9  22 100.125 71.7770   2
  -5   9  21 44.1256 69.7096   2
  -5   9  20 8580.37 314.065   2
  -5  -9  20 8239.41 216.376   2
  -5   9  19-41.0422 60.9012   2
  -5  -9  19-29.6939 30.9015   2
  -5   9  18 4043.08 207.377   3
  -5   9  18 4037.23 217.085   2
  -5   9  17 87.9514 66.4545   2
  -5   9  17 175.516 67.6436   3
  -5   9  16 2453.61 161.787   3
  -5   9  16 2888.03 175.224   2
  -5   9  15 535.661 96.4009   2
  -5   9  15 640.994 93.1549   3
  -5  -9  14 501.434 36.8972   3
  -5   9  14 405.341 81.5566   3
  -5  -9  14 478.381 50.1749   2
  -5   9  14 311.440 77.9782   2
  -5  -9  13 1130.21 72.5742   2
  -5  -9  13 1036.84 49.9498   3
  -5   9  13 959.201 105.153   3
  -5  -9  12 16728.5 262.648   2
  -5  -9  12 16336.5 190.683   3
  -5   9  12 16123.5 367.745   3
  -5  -9  11 2308.94 101.388   2
  -5  -9  11 2290.56 72.9774   3
  -5   9  11 2241.35 144.591   3
  -5  -9  10 218.376 38.4062   2
  -5  -9  10 300.641 31.9351   3
  -5   9  10 255.450 64.9638   3
  -5  -9   9-16.6935 21.8160   3
  -5  -9   9-4.71474 23.9963   2
  -5   9   9 56.5904 53.2894   3
  -5  -9   8 9887.35 207.052   2
  -5  -9   8 9937.05 166.057   3
  -5   9   8 9720.24 269.469   3
  -5  -9   7 9054.95 200.900   2
  -5  -9   7 9061.90 165.429   3
  -5   9   7 8994.09 252.784   3
  -5  -9   6 22768.5 319.602   2
   5   9  -6 22429.6 325.136   2
  -5   9   6 22317.4 388.233   3
   5   9  -5 2040.33 105.629   2
  -5   9   5 2157.80 125.029   3
  -5  -9   5 1911.69 99.9395   2
  -5  -9   4 15.4690 27.2271   2
   5   9  -4-33.8528 34.3425   2
  -5   9   4 62.0486 47.8070   3
  -5   9   3 686.703 74.7896   3
   5   9  -3 587.257 67.8214   2
  -5   9   2 4111.90 163.281   3
   5   9  -2 4208.43 155.465   2
  -5   9   1 73.0809 42.3641   3
   5   9  -1 133.594 44.9385   2
   5   9   0 8599.21 224.167   2
  -5   9   0 8610.96 229.304   3
  -5   9  -1 2629.56 113.324   2
   5   9   1 2497.58 129.984   2
  -5   9  -1 2742.68 133.372   3
  -5   9  -1 2650.76 126.225   1
  -5   9  -2 514.375 67.6256   1
  -5   9  -2 496.852 54.5022   2
   5   9   2 508.327 69.5956   2
  -5   9  -2 533.564 68.9500   3
   5   9   2 487.248 41.5266   1
   5   9   3 708.795 84.1538   2
  -5   9  -3 612.505 70.3767   3
  -5   9  -3 679.554 71.8226   1
  -5   9  -3 759.512 61.9279   2
   5   9   3 784.200 46.6965   1
   5   9   4 1964.30 124.354   2
  -5   9  -4 2039.95 113.642   1
  -5   9  -4 2384.52 121.542   3
  -5   9  -4 2199.25 99.5553   2
   5   9   5 103.714 51.5463   2
  -5   9  -5 127.563 44.7091   3
  -5   9  -5 111.333 27.7755   2
  -5   9  -5 119.802 46.7757   1
   5   9   6 162.461 57.1876   2
  -5   9  -6 210.171 48.5208   1
  -5   9  -6 127.501 32.0098   2
  -5   9  -6 92.3416 43.5995   3
  -5   9  -7 5342.03 151.908   2
  -5   9  -7 5214.14 183.876   3
  -5   9  -7 5045.27 174.673   1
   5   9   7 5254.53 205.414   2
  -5   9  -8 49.7461 30.5277   2
   5   9   8 54.9221 55.8181   2
  -5   9  -8 53.3446 43.2089   3
  -5   9  -8 53.4815 49.0428   1
  -5   9  -9 2683.86 136.763   3
  -5   9  -9 2744.59 109.071   2
   5   9   9 2687.44 157.375   2
  -5   9 -10 2420.40 130.613   3
  -5   9 -10 2559.35 104.275   2
   5   9  10 2472.86 159.309   2
   5   9  11 269.887 75.1413   2
   5  -9  12 3570.55 136.126   2
   5   9  12 3340.33 184.414   2
   5  -9  13 152.314 38.4806   2
   5   9  13 16.7915 59.4572   2
   5  -9  14 745.085 69.9029   2
   5   9  14 750.666 104.389   2
   5  -9  15 719.059 68.6963   2
   5   9  15 601.750 95.2961   2
   5  -9  16 442.729 58.7363   2
   5   9  16 485.249 92.9329   2
   5  -9  17 423.139 57.7547   2
   5   9  17 251.311 78.8240   2
   5   9  18-0.10393 69.7789   2
   5   9  19 184.999 75.6403   2
   5   9  20-70.4482 72.8658   2
   5   9  21 35.0929 67.2664   2
   5   9  22 801.418 114.057   2
   5   9  23-105.538 79.8885   2
  -5  10  26 982.127 140.391   2
  -5  10  25 54.5606 69.8106   2
  -5  10  24 79.0980 81.3230   2
  -5  10  23 3148.45 207.811   2
  -5  10  22 1201.06 135.348   2
  -5  10  21 347.430 91.2548   2
  -5  10  20 1568.23 148.948   2
  -5  10  19-14.3305 56.7817   2
  -5 -10  19 35.5697 33.5629   2
  -5  10  18 4470.54 225.646   2
  -5  10  17 199.625 77.0584   2
  -5  10  17 81.7173 58.2106   3
  -5  10  16 7169.94 271.209   3
  -5  10  16 7320.59 274.075   2
  -5  10  15 6156.73 245.880   3
  -5  10  15 6257.07 247.345   2
  -5  10  14 1041.58 109.245   2
  -5  10  14 954.022 108.202   3
  -5 -10  13 865.852 40.0723   3
  -5 -10  13 1034.75 67.8678   2
  -5  10  13 906.121 104.057   3
  -5  10  13 752.307 99.5432   2
  -5 -10  12 73.6524 23.2075   2
  -5 -10  12 139.487 20.0281   3
  -5  10  12 171.275 64.5153   3
  -5 -10  11 3546.28 122.094   2
  -5 -10  11 3633.19 84.2476   3
  -5  10  11 3553.43 178.214   3
  -5 -10  10 16061.0 258.784   2
  -5 -10  10 15585.6 182.003   3
  -5  10  10 15692.2 362.056   3
  -5 -10   9 164.272 37.1882   2
  -5 -10   9 236.211 30.6308   3
  -5  10   9 295.073 67.7798   3
  -5 -10   8 3738.31 129.765   2
  -5 -10   8 3844.35 101.506   3
  -5  10   8 3661.73 170.625   3
  -5 -10   7 146.683 36.4487   2
  -5 -10   7 163.351 30.9527   3
  -5  10   7 228.531 63.3268   3
   5  10  -6 2462.53 115.816   2
  -5  10   6 2619.64 145.411   3
  -5 -10   6 2434.29 108.011   2
  -5  10   5 13642.5 308.421   3
  -5 -10   5 14190.2 254.224   2
   5  10  -5 13890.8 262.678   2
   5  10  -4 35.4067 37.8109   2
  -5  10   4 40.4417 51.8856   3
  -5  10   3 15474.2 319.270   3
   5  10  -3 15281.5 285.635   2
   5  10  -2 19300.9 326.281   2
  -5  10   2 19394.4 352.474   3
  -5  10   1 62.1180 47.8638   3
   5  10  -1 114.097 46.3847   2
   5  10   0 54.6635 45.2126   2
  -5  10   0 116.111 48.6533   3
   5  10   1 47.6297 43.6166   2
  -5  10  -1 25.5176 39.2539   3
  -5  10  -1 51.1983 53.2820   1
   5  10   2 8585.95 237.601   2
  -5  10  -2 8590.18 229.773   3
   5  10   2 8674.44 164.281   1
  -5  10  -2 8755.92 230.446   1
  -5  10  -2 8699.71 197.950   2
   5  10   3 436.536 67.7372   2
  -5  10  -3 413.023 59.8625   3
  -5  10  -3 639.631 74.1995   1
   5  10   3 552.128 47.1903   1
  -5  10  -3 480.667 51.5775   2
   5  10   4-31.6148 46.2376   2
  -5  10  -4 17.5353 38.8292   3
  -5  10  -4-6.71290 28.1780   2
  -5  10  -4-46.9139 46.9240   1
   5  10   5 4.43970 43.9556   2
  -5  10  -5-10.3553 40.1171   3
  -5  10  -5-60.5873 32.7717   2
  -5  10  -5-85.0068 50.8157   1
   5  10   6 424.016 74.4521   2
  -5  10  -6 364.519 46.2663   2
  -5  10  -6 289.269 59.4844   1
  -5  10  -6 403.437 62.5305   3
  -5  10  -7 1077.61 69.6974   2
  -5  10  -7 1086.11 89.8424   3
  -5  10  -7 1082.58 90.9396   1
   5  10   7 1051.00 99.3339   2
   5  10   8-15.1430 51.8852   2
  -5  10  -8 14.4774 23.8071   2
  -5  10  -8 4.78113 39.7693   3
  -5  10  -8 25.7436 46.0988   1
   5  10   9 716.112 90.8674   2
  -5  10  -9 728.990 74.8641   3
  -5  10  -9 758.344 59.7412   2
   5  10  10 298.532 73.6052   2
  -5  10 -10 296.874 51.6075   3
  -5  10 -10 342.761 42.5045   2
  -5  10 -11 9.10847 38.8977   3
   5  10  11-3.98410 52.8020   2
  -5  10 -12-50.8084 46.2890   3
   5  10  12-38.2234 61.4022   2
   5  10  13 57.7422 60.2866   2
   5  10  14 374.004 87.8441   2
   5 -10  15 87.2458 37.4445   2
   5  10  15-58.3590 65.9702   2
   5  10  16 183.500 76.6596   2
   5  10  17 1.64716 58.6424   2
   5  10  18 568.436 102.682   2
   5  10  19 940.930 126.295   2
   5  10  20 191.725 83.3632   2
   5  10  21 919.932 125.909   2
   5  10  22 1020.24 134.466   2
   5  10  23 6.28008 64.8545   2
  -5  11  26 86.9341 77.7387   2
  -5  11  25 3541.01 232.428   2
  -5  11  24 196.990 88.3792   2
  -5  11  23 99.6847 72.6899   2
  -5  11  22 718.933 114.064   2
  -5  11  21 203.553 80.0376   2
  -5  11  20 188.520 80.2754   2
  -5  11  19 4982.03 247.603   2
  -5  11  18 2155.98 166.192   2
  -5  11  17 5543.29 252.409   2
  -5  11  17 5552.53 244.464   3
  -5  11  16 67.1361 69.1140   2
  -5  11  16 83.7040 67.9823   3
  -5  11  15 544.533 92.7333   2
  -5  11  15 322.844 74.7823   3
  -5  11  14 1033.98 113.510   3
  -5  11  14 1149.22 115.856   2
  -5 -11  13 3572.61 117.123   2
  -5  11  13 3712.08 191.912   3
  -5  11  13 3863.23 191.823   2
  -5 -11  12 863.990 61.1791   2
  -5 -11  12 783.547 33.4318   3
  -5  11  12 1158.81 112.992   3
  -5  11  12 1014.32 111.749   2
  -5 -11  11 3971.16 125.844   2
  -5 -11  11 3719.52 75.9444   3
  -5  11  11 4007.01 192.564   3
  -5 -11  10 392.168 46.4443   2
  -5 -11  10 421.045 30.5134   3
  -5  11  10 513.343 83.0212   3
  -5 -11   9 875.645 46.1064   3
  -5  11   9 968.239 103.371   3
  -5 -11   9 841.740 63.4345   2
  -5 -11   8 30.1927 26.0942   2
  -5 -11   8 63.0067 23.3697   3
  -5  11   8 20.8329 48.1008   3
  -5 -11   7 8281.32 152.439   3
  -5  11   7 8605.53 255.458   3
  -5 -11   7 8328.19 191.638   2
  -5  11   6 223.889 59.0528   3
   5  11  -6 144.004 44.3882   2
  -5 -11   6 149.132 39.3963   2
  -5  11   5 10218.0 273.909   3
  -5 -11   5 10378.9 218.508   2
   5  11  -5 10116.2 227.984   2
  -5  11   4 163.388 57.4354   3
   5  11  -4 77.4793 34.4177   2
   5  11  -3 2861.56 133.084   2
  -5  11   3 3118.23 148.796   3
   5  11  -2 3267.12 145.570   2
  -5  11   2 3504.70 156.930   3
  -5  11   1 24763.4 401.297   3
   5  11  -1 24716.1 381.118   2
   5  11   0 1681.41 109.791   2
  -5  11   0 1878.33 114.965   3
   5  11   1 2457.19 99.7113   1
   5  11   1 2433.85 132.335   2
  -5  11  -1 2712.91 137.232   3
  -5  11  -1 2719.08 140.347   1
   5  11   2 1439.82 108.207   2
  -5  11  -2 1471.60 102.229   3
   5  11   2 1541.42 77.4835   1
  -5  11  -2 1619.57 111.938   1
  -5  11  -3 165.213 38.2235   2
   5  11   3 254.159 63.2543   2
   5  11   3 250.496 39.4416   1
  -5  11  -3 322.795 64.3953   1
  -5  11  -3 167.276 48.4516   3
   5  11   4 680.151 82.7684   2
  -5  11  -4 700.748 74.2817   3
  -5  11  -4 675.231 57.4332   2
  -5  11  -4 718.890 82.7946   1
  -5  11  -5 8878.49 191.520   2
  -5  11  -5 8441.44 241.251   1
  -5  11  -5 8259.18 230.255   3
   5  11   5 7995.11 251.798   2
  -5  11  -6-6.97418 45.4994   1
   5  11   6 58.7834 49.0774   2
  -5  11  -6 11.0694 24.4891   2
  -5  11  -6 50.6113 40.9009   3
  -5  11  -7 3069.09 111.833   2
  -5  11  -7 2899.40 148.130   1
  -5  11  -7 2943.96 138.981   3
   5  11   7 2917.58 161.588   2
   5  11   8 94.1557 61.2331   2
  -5  11  -8 75.0956 27.5910   2
  -5  11  -8 82.8660 42.9221   3
  -5  11  -8 45.7222 50.6752   1
   5  11   9 605.892 95.1861   2
  -5  11  -9 510.510 64.1032   3
  -5  11  -9 562.938 72.4580   1
  -5  11  -9 495.963 47.5190   2
  -5  11 -10 1326.97 98.2792   3
   5  11  10 1320.90 122.241   2
  -5  11 -11 92.3682 41.3780   3
   5  11  11 79.1168 59.3046   2
  -5  11 -12 2858.26 143.952   3
   5  11  12 3029.30 183.152   2
  -5  11 -13 170.357 45.8761   3
   5  11  13 203.026 72.7897   2
  -5  11 -14-32.8999 50.1584   3
   5  11  14-38.0637 66.5066   2
  -5  11 -15 612.393 75.6441   3
   5  11  15 505.936 96.8162   2
   5  11  16-0.81667 56.5476   2
   5  11  17 149.849 61.6337   2
   5  11  18 392.639 86.2208   2
   5  11  19 125.567 64.1039   2
   5  11  20 164.024 84.9287   2
   5  11  21 276.822 95.4050   2
   5  11  22 132.904 84.1299   2
  -5  12  25 1077.63 143.231   2
  -5  12  24-23.1353 69.6528   2
  -5  12  23 245.418 92.2421   2
  -5  12  22 425.056 88.7082   2
  -5  12  21 1520.27 151.907   2
  -5  12  20 469.321 98.3209   2
  -5  12  19 191.157 86.8021   2
  -5  12  18 515.882 95.0957   2
  -5  12  17 1038.54 123.613   2
  -5  12  17 1025.33 119.445   3
  -5  12  16 39.1655 59.1400   2
  -5  12  16 90.6386 62.8576   3
  -5  12  15 5400.93 239.157   3
  -5  12  15 5176.25 236.322   2
  -5  12  14 620.254 92.6651   2
  -5  12  14 719.519 102.376   3
  -5  12  13 1638.50 137.757   3
  -5  12  13 1653.63 134.896   2
  -5  12  12 741.741 95.1722   2
  -5  12  12 643.560 93.4235   3
  -5 -12  12 770.466 55.2323   2
  -5  12  11 5321.55 222.632   3
  -5 -12  11 4996.53 137.990   2
  -5  12  11 4214.67 210.804   2
  -5 -12  10 119.816 31.0644   2
  -5 -12  10 118.798 17.6240   3
  -5  12  10 117.772 53.5450   3
  -5 -12   9 8084.61 125.918   3
  -5  12   9 8237.72 269.008   3
  -5 -12   9 8489.68 184.528   2
  -5 -12   8 779.239 45.2150   3
  -5  12   8 848.759 95.4412   3
  -5 -12   8 650.159 57.3436   2
  -5 -12   7 32.8980 20.7469   3
  -5  12   7-18.0672 47.1254   3
  -5 -12   7 8.11888 26.0889   2
   5  12  -6 3452.38 134.909   2
  -5  12   6 3423.15 168.623   3
  -5 -12   6 3522.24 128.818   2
  -5  12   5 3741.13 170.578   3
   5  12  -5 3571.28 140.050   2
  -5  12   4 820.196 91.5907   3
   5  12  -4 903.160 76.4265   2
   5  12  -3 11819.5 261.157   2
  -5  12   3 11598.7 288.837   3
   5  12  -2 19992.9 341.252   2
  -5  12   2 19799.9 372.681   3
  -5  12   1 59.2881 53.9465   3
   5  12  -1 57.3243 40.1374   2
   5  12   0 706.040 78.3130   2
  -5  12   0 786.970 84.8949   3
   5  12   1 5337.34 190.740   2
  -5  12  -1 5384.75 191.389   3
   5  12   1 5121.32 148.167   1
  -5  12  -1 5296.55 196.569   1
  -5  12  -2 346.918 72.1752   1
   5  12   2 386.728 66.8158   2
   5  12   2 279.943 43.5417   1
  -5  12  -2 326.065 60.4342   3
   5  12   3 1923.95 127.364   2
  -5  12  -3 1969.92 117.789   3
   5  12   3 2048.39 91.5862   1
  -5  12  -3 2166.09 129.438   1
   5  12   4 435.051 73.3928   2
  -5  12  -4 460.859 64.7696   3
  -5  12  -4 366.893 45.0822   2
  -5  12  -4 481.574 77.1621   1
   5  12   5 345.457 69.1597   2
  -5  12  -5 495.749 73.8261   1
  -5  12  -5 420.744 60.8839   3
  -5  12  -5 479.432 48.5339   2
   5  12   6 928.041 97.0640   2
  -5  12  -6 896.760 62.2289   2
  -5  12  -6 1005.29 88.7173   3
  -5  12  -6 975.596 100.470   1
  -5  12  -7 1696.07 122.253   1
  -5  12  -7 1809.28 85.5562   2
  -5  12  -7 1775.23 112.657   3
   5  12   7 1558.20 125.031   2
  -5  12  -8 7181.38 217.925   3
  -5  12  -8 7171.56 235.152   1
   5  12   8 6651.81 248.211   2
  -5  12  -8 7565.94 167.936   2
  -5  12  -9 4838.10 195.742   1
  -5  12  -9 4843.65 181.115   3
   5  12   9 5112.40 223.077   2
  -5  12 -10 894.530 84.0452   3
   5  12  10 919.151 111.744   2
  -5  12 -11 217.871 50.0489   3
   5  12  11 266.480 79.4191   2
  -5  12 -12 296.010 56.7302   3
   5  12  12 366.793 84.6018   2
  -5  12 -13 210.824 50.2468   3
   5  12  13 297.660 85.1364   2
  -5  12 -14 60.8759 38.7669   3
   5  12  14 51.8278 62.2560   2
  -5  12 -15 1495.97 110.907   3
   5  12  15 1703.17 148.728   2
  -5  12 -16 1470.09 110.327   3
   5  12  16 1525.57 146.321   2
  -5  12 -17-24.2400 38.7629   3
   5  12  17 2.41724 63.3432   2
  -5  12 -18-6.42442 38.2747   3
   5  12  18-22.1866 73.9405   2
   5  12  19 111.495 71.7993   2
   5  12  20 196.773 77.1666   2
   5  12  21 259.369 91.0852   2
  -5  13  24 121.442 78.1108   2
  -5  13  23 2213.11 190.536   2
  -5  13  22 744.656 118.059   2
  -5  13  21 383.229 95.1353   2
  -5  13  20 2057.98 171.562   2
  -5  13  19 43.6014 69.0201   2
  -5  13  18 4158.05 233.820   2
  -5  13  17 1182.30 128.195   2
  -5  13  16 5285.03 250.788   2
  -5  13  16 5636.83 254.242   3
  -5  13  15 1230.29 129.318   2
  -5  13  15 1197.37 122.768   3
  -5  13  14 319.852 79.2206   2
  -5  13  14 431.145 84.5523   3
  -5  13  13 2873.13 177.095   3
  -5  13  13 3420.29 187.969   2
  -5  13  12 1300.35 126.106   3
  -5  13  12 1421.06 124.900   2
  -5  13  11 370.304 78.2640   2
  -5  13  11 658.293 95.2801   3
  -5 -13  10 370.403 23.6571   3
  -5  13  10 603.458 89.5657   3
  -5 -13  10 523.131 47.4406   2
  -5  13  10 589.894 87.4841   2
  -5 -13   9 327.789 26.7993   3
  -5  13   9 345.691 75.2510   3
  -5 -13   9 356.240 43.1530   2
  -5 -13   8 7658.76 129.887   3
  -5 -13   8 7911.88 180.816   2
  -5  13   8 7686.97 258.011   3
  -5 -13   7 2382.83 103.344   2
  -5  13   7 2242.70 145.077   3
   5  13  -6 12925.3 255.467   2
  -5  13   6 12965.6 326.167   3
  -5  13   5 1471.95 113.943   3
   5  13  -5 1336.17 93.0892   2
  -5  13   4 2817.90 151.549   3
   5  13  -4 2957.76 130.031   2
  -5  13   3 3687.56 170.541   3
   5  13  -3 3522.46 145.680   2
   5  13  -2 2084.12 116.886   2
  -5  13   2 2136.45 131.474   3
   5  13  -1 3943.74 162.911   2
  -5  13   1 4229.72 175.604   3
   5  13   0 11842.6 284.291   2
  -5  13   0 12241.7 293.041   3
   5  13   1 1251.35 103.418   2
   5  13   1 1144.37 77.6885   1
  -5  13  -1 1294.13 101.935   3
  -5  13  -1 1311.51 112.908   1
   5  13   2 1880.87 124.610   2
   5  13   2 1891.72 95.7928   1
  -5  13  -2 1830.42 115.322   3
  -5  13  -2 1966.46 130.283   1
   5  13   3 372.865 70.1315   2
   5  13   3 492.524 58.3810   1
  -5  13  -3 405.630 75.6858   1
  -5  13  -3 542.431 68.1509   3
   5  13   4 96.4139 56.3572   2
   5  13   4 174.327 40.9778   1
  -5  13  -4 64.8641 39.6753   3
  -5  13  -4 245.292 65.8191   1
  -5  13  -4 182.849 35.1926   2
   5  13   5 14.6428 51.3420   2
  -5  13  -5 26.7826 60.3920   1
  -5  13  -5 29.2577 42.9981   3
  -5  13  -5-9.13586 23.2566   2
  -5  13  -6 1423.70 76.4760   2
  -5  13  -6 1405.84 104.588   3
  -5  13  -6 1418.10 118.130   1
   5  13   6 1611.15 124.229   2
   5  13   7 30.6543 59.5016   2
  -5  13  -7-30.8661 27.2333   2
  -5  13  -7-49.6801 53.8596   1
  -5  13  -7 56.7699 43.5812   3
  -5  13  -8 1215.57 105.716   1
  -5  13  -8 1260.08 96.9881   3
   5  13   8 1257.24 118.243   2
   5  13   9 47.6124 56.2376   2
  -5  13  -9 67.7742 45.5106   3
  -5  13  -9-64.5645 55.8337   1
  -5  13 -10 8993.15 248.000   3
  -5  13 -10 8668.87 271.985   1
   5  13  10 8813.24 299.705   2
  -5  13 -11 1856.16 117.716   3
   5  13  11 1762.20 145.054   2
  -5  13 -12 14317.5 313.507   3
   5  13  12 13663.0 385.344   2
  -5  13 -13 19.4603 41.1760   3
   5  13  13 84.3568 62.6188   2
  -5  13 -14 517.659 66.4354   3
   5  13  14 636.601 104.889   2
  -5  13 -15 77.1908 45.2631   3
   5  13  15 36.2577 59.5341   2
  -5  13 -16 248.569 49.8504   3
   5  13  16 349.729 87.9603   2
   5  13  17 130.206 76.4459   2
   5  13  18 778.097 118.941   2
   5  13  19 1063.20 136.850   2
   5  13  20 0.25529 66.1899   2
   5  13  21 80.1022 68.0432   2
  -5  14  23 88.0416 87.4343   2
  -5  14  22 2911.28 213.062   2
  -5  14  21 50.0954 64.5384   2
  -5  14  20 428.660 99.2301   2
  -5  14  19 187.554 67.7118   2
  -5  14  18 55.7167 70.0168   2
  -5  14  17 25.4601 66.6822   2
  -5  14  16 616.886 99.9201   2
  -5  14  16 528.421 98.8206   3
  -5  14  15 1648.10 145.289   2
  -5  14  15 1599.28 140.449   3
  -5  14  14 7667.36 286.325   2
  -5  14  14 7608.71 288.138   3
  -5  14  13 52.7777 66.0998   2
  -5  14  13-48.7732 59.4958   3
  -5  14  12 693.254 97.3050   2
  -5  14  12 453.376 80.6842   3
  -5  14  11-52.6986 58.7161   2
  -5  14  11-12.0711 55.3125   3
  -5  14  10 5063.37 222.102   3
  -5  14  10 4781.08 209.471   2
  -5 -14   9 69.5833 14.5375   3
  -5  14   9 143.186 68.3934   3
  -5  14   9 201.400 65.9803   2
  -5 -14   8 3440.37 84.6570   3
  -5  14   8 3569.13 184.472   3
  -5  14   8 3803.04 179.792   2
  -5  14   7-34.6333 54.4090   3
   5  14  -7 81.1253 36.6453   2
   5  14  -6 1433.13 90.0461   2
  -5  14   6 1361.39 115.358   3
  -5  14   5 3906.59 184.006   3
   5  14  -5 3895.12 146.524   2
   5  14  -4 9346.85 229.863   2
  -5  14   4 8725.17 264.190   3
   5  14  -3 203.469 48.9417   2
  -5  14   3 217.276 62.0179   3
   5  14  -2 11383.4 268.015   2
  -5  14   2 11782.0 297.420   3
   5  14  -1 2413.71 129.238   2
  -5  14   1 2331.40 135.123   3
   5  14   0 538.228 73.1108   2
   5  14   0 356.908 54.3768   1
  -5  14   0 520.393 76.9452   3
   5  14   1 640.991 76.5659   2
  -5  14  -1 693.508 82.7484   3
   5  14   1 502.503 60.7850   1
  -5  14  -1 618.165 84.5673   1
   5  14   2 4415.10 188.128   2
   5  14   2 4574.64 152.164   1
  -5  14  -2 4516.55 179.242   3
  -5  14  -2 4694.67 199.130   1
   5  14   3 617.042 79.3300   2
   5  14   3 696.009 64.7408   1
  -5  14  -3 643.858 91.9922   1
  -5  14  -3 673.009 75.4540   3
   5  14   4 122.054 54.5849   2
   5  14   4 186.493 44.1099   1
  -5  14  -4 70.5296 41.3736   3
  -5  14  -4 154.400 65.7054   1
  -5  14  -5 157.409 60.1380   1
   5  14   5 181.284 58.5915   2
  -5  14  -5 113.956 45.3812   3
   5  14   6-30.5870 54.2655   2
  -5  14  -6-28.8262 53.3210   1
  -5  14  -6-4.88290 44.1094   3
   5  14   7 962.596 106.419   2
  -5  14  -7 902.696 100.320   1
  -5  14  -7 989.052 88.6156   3
  -5  14  -8 12476.0 329.811   1
  -5  14  -8 13260.3 294.789   3
   5  14   8 12338.2 345.451   2
   5  14   9 539.536 92.6488   2
  -5  14  -9 622.702 74.7656   3
  -5  14  -9 489.635 79.2019   1
  -5  14 -10 14604.3 313.889   3
   5  14  10 14634.7 388.435   2
  -5  14 -10 13997.0 354.260   1
  -5  14 -11 1866.90 118.392   3
   5  14  11 1875.19 150.647   2
  -5  14 -11 1917.49 141.958   1
  -5  14 -12 65.1428 46.2363   3
   5  14  12 21.3073 58.1950   2
  -5  14 -13 586.511 73.5082   3
   5  14  13 402.615 90.4415   2
  -5  14 -14 4697.03 184.875   3
   5  14  14 4797.00 246.315   2
  -5  14 -15 307.996 62.4424   3
   5  14  15 276.069 79.8799   2
   5  14  16 151.900 74.1867   2
   5  14  17 682.481 107.733   2
   5  14  18 407.029 100.424   2
   5  14  19 2297.56 193.377   2
   5  14  20 1269.75 151.795   2
  -5  15  22 202.088 74.8115   2
  -5  15  21 1073.78 136.987   2
  -5  15  20-43.5597 70.6444   2
  -5  15  19 1818.18 161.937   2
  -5  15  18 1464.22 148.860   2
  -5  15  17 6191.87 289.615   2
  -5  15  16 449.637 99.3320   2
  -5  15  15 186.658 71.7268   2
  -5  15  15 416.116 90.3832   3
  -5  15  14 164.710 66.2436   2
  -5  15  14 245.905 77.9748   3
  -5  15  13 1376.02 134.690   2
  -5  15  13 1539.78 139.429   3
  -5  15  12 73.6303 59.6615   2
  -5  15  12 32.0155 61.0067   3
  -5  15  11 8.70821 56.8535   2
  -5  15  11 111.194 70.3941   3
  -5  15  10 2209.83 157.237   3
  -5  15  10 2229.73 150.995   2
  -5  15   9 232.509 66.2641   2
  -5  15   9 236.898 69.7556   3
  -5  15   8 348.818 75.4780   2
  -5 -15   8 312.052 27.4412   3
  -5  15   8 336.317 78.7344   3
   5  15  -7 8675.14 206.576   2
  -5  15   7 8218.02 278.371   3
  -5  15   7 7975.89 261.699   2
  -5  15   6 2276.09 146.297   3
  -5  15   6 2077.71 137.134   2
   5  15  -6 2228.65 109.845   2
  -5  15   5 9635.01 288.228   3
   5  15  -5 9590.85 229.807   2
   5  15  -4 1084.59 85.7465   2
  -5  15   4 1156.79 107.512   3
   5  15  -3 116.560 44.6860   2
  -5  15   3 127.289 55.5550   3
   5  15  -2 485.819 61.9432   2
  -5  15   2 397.054 67.8669   3
   5  15  -1 1306.73 101.056   2
  -5  15   1 1215.14 105.702   3
   5  15   0 4355.00 179.432   2
   5  15   0 4265.29 161.896   1
  -5  15   0 4338.71 184.826   3
   5  15   1 9680.01 267.402   2
  -5  15  -1 9900.18 269.947   3
   5  15   1 9867.38 236.100   1
  -5  15  -1 9480.78 288.701   1
  -5  15  -2 681.935 97.1207   1
   5  15   2 614.632 83.2407   2
  -5  15  -2 623.314 78.4872   3
   5  15   2 593.177 65.3058   1
   5  15   3 4478.96 194.421   2
  -5  15  -3 4553.29 183.435   3
   5  15   3 4573.73 156.499   1
  -5  15  -3 4550.33 201.636   1
   5  15   4 39.1066 51.6038   2
  -5  15  -4 53.8286 43.4581   3
  -5  15  -4 75.2664 58.9304   1
   5  15   4 66.9005 40.1814   1
  -5  15  -5 1157.41 113.647   1
  -5  15  -5 1238.43 100.132   3
   5  15   5 1134.75 111.884   2
  -5  15  -6 1848.65 116.190   3
  -5  15  -6 2156.20 149.362   1
   5  15   6 1847.82 139.299   2
  -5  15  -7 3978.09 166.295   3
  -5  15  -7 3805.49 192.178   1
   5  15   7 3872.60 198.099   2
   5  15   8 382.160 76.7894   2
  -5  15  -8 397.702 80.8230   1
  -5  15  -8 357.570 60.7355   3
   5  15   9-2.19798 59.0552   2
  -5  15  -9 75.3114 41.3188   3
  -5  15  -9 90.3211 66.1215   1
  -5  15 -10 1420.60 104.506   3
  -5  15 -10 1453.69 123.115   1
   5  15  10 1756.22 148.854   2
  -5  15 -11 5798.15 237.479   1
  -5  15 -11 5765.85 201.164   3
   5  15  11 5782.32 256.357   2
  -5  15 -12 284.448 55.7750   3
   5  15  12 158.894 75.0544   2
  -5  15 -13 1684.36 112.277   3
   5  15  13 1790.18 157.475   2
  -5  15 -14 346.118 58.4661   3
   5  15  14 292.032 79.9718   2
   5  15  15 281.619 87.7221   2
   5  15  16 417.680 94.7221   2
   5  15  17 733.209 115.975   2
   5  15  18 921.502 126.215   2
   5  15  19 218.390 86.1224   2
  -5  16  22 2000.21 184.720   2
  -5  16  21 1668.98 165.734   2
  -5  16  20 148.663 76.4743   2
  -5  16  19 290.876 85.4467   2
  -5  16  18 930.752 128.478   2
  -5  16  17 1448.91 148.106   2
  -5  16  16 68.4448 65.2942   2
  -5  16  15 2515.81 185.001   2
  -5  16  14 1991.68 160.813   2
  -5  16  14 1693.47 148.544   3
  -5  16  13 29.1094 66.4612   2
  -5  16  13 27.6217 60.4658   3
  -5  16  12 26.7202 52.7345   2
  -5  16  12 132.133 65.2765   3
  -5  16  11 47.2286 56.6917   2
  -5  16  11-42.0081 61.2290   3
  -5  16  10 821.562 101.526   2
  -5  16  10 577.400 96.2504   3
  -5  16   9 2795.41 175.411   3
  -5  16   9 2852.04 170.476   2
  -5  16   8 362.745 77.1168   2
  -5  16   8 354.375 75.1869   3
  -5  16   7 761.888 92.3013   2
   5  16  -7 783.243 67.2185   2
  -5  16   7 685.448 97.2821   3
  -5  16   6 98.3842 56.7035   2
   5  16  -6 99.3245 35.1335   2
  -5  16   6 58.7213 50.6277   3
  -5  16   5 1598.47 125.343   3
   5  16  -5 1588.33 98.2968   2
  -5  16   5 1348.01 116.643   2
   5  16  -4 1950.78 114.736   2
  -5  16   4 2045.25 140.653   3
  -5  16   4 1786.68 119.900   2
   5  16  -3 6876.69 207.953   2
  -5  16   3 6692.17 238.652   3
   5  16  -2 346.438 57.9529   2
  -5  16   2 404.829 68.3340   3
   5  16  -1 3582.24 157.222   1
   5  16  -1 3594.44 161.518   2
  -5  16   1 3825.62 176.640   3
   5  16   0 983.240 87.8744   1
   5  16   0 1053.53 95.2327   2
  -5  16   0 1204.09 106.096   3
   5  16   1 4192.76 180.921   2
   5  16   1 4216.85 164.364   1
  -5  16  -1 4204.22 182.802   3
  -5  16  -1 4470.63 206.569   1
   5  16   2 3235.42 141.473   1
   5  16   2 3094.14 161.662   2
  -5  16  -2 2889.31 150.519   3
  -5  16  -2 3054.52 175.251   1
   5  16   3 1209.95 109.467   2
  -5  16  -3 1435.67 107.570   3
   5  16   3 1561.77 99.7231   1
  -5  16  -3 1494.35 128.300   1
   5  16   4 121.435 59.5544   2
  -5  16  -4 246.453 76.4095   1
  -5  16  -4 111.578 47.5356   3
   5  16   4 144.521 42.5567   1
   5  16   5 877.948 102.621   2
  -5  16  -5 867.195 84.1820   3
  -5  16  -5 966.403 108.376   1
  -5  16  -6 2385.51 154.786   1
  -5  16  -6 2408.90 133.618   3
   5  16   6 2437.86 156.424   2
  -5  16  -7 3267.65 185.892   1
  -5  16  -7 3207.11 152.081   3
   5  16   7 3082.55 181.589   2
   5  16   8 701.671 101.265   2
  -5  16  -8 576.003 91.4812   1
  -5  16  -8 641.828 75.8034   3
  -5  16  -9 10258.1 321.297   1
  -5  16  -9 10443.4 271.543   3
   5  16   9 10193.5 330.618   2
   5  16  10 228.338 75.3778   2
  -5  16 -10 134.590 62.8779   1
  -5  16 -10 207.151 57.2210   3
  -5  16 -11 29.6444 35.2158   3
  -5  16 -11-31.5584 59.0254   1
   5  16  11-7.60837 58.8308   2
  -5  16 -12 797.346 80.5620   3
  -5  16 -12 784.272 102.160   1
   5  16  12 563.209 100.835   2
  -5  16 -13 256.596 74.6215   1
   5  16  13 655.998 108.348   2
   5  16  14 159.130 77.5635   2
   5  16  15 1731.66 161.174   2
   5  16  16-41.6912 66.5381   2
   5  16  17 140.698 69.7707   2
   5  16  18 121.670 72.6171   2
  -5  17  21 28.2566 74.1368   2
  -5  17  20 2587.25 205.680   2
  -5  17  19 1240.36 148.330   2
  -5  17  18 6562.06 302.356   2
  -5  17  17 844.653 121.693   2
  -5  17  16 33.2431 69.1031   2
  -5  17  15 246.114 86.6590   2
  -5  17  14 597.235 94.0977   2
  -5  17  14 374.217 83.9716   3
  -5  17  13 336.228 77.9632   2
  -5  17  13 221.858 70.7582   3
  -5  17  12 296.846 73.7468   2
  -5  17  12 286.540 80.4667   3
  -5  17  11 3600.25 199.190   2
  -5  17  11 3630.78 204.989   3
  -5  17  10 1.21851 52.4943   2
  -5  17  10 2.32845 56.7220   3
  -5  17   9 1115.17 120.887   2
  -5  17   9 1368.41 127.874   3
  -5  17   8 3725.71 200.487   3
  -5  17   8 3970.92 194.510   2
   5  17  -7 4038.17 144.860   2
  -5  17   7 3823.33 199.224   3
  -5  17   7 3843.63 186.060   2
  -5  17   6 1922.48 140.106   3
   5  17  -6 1929.00 108.854   2
  -5  17   6 2071.99 138.756   2
  -5  17   5 233.985 58.4830   2
   5  17  -5 371.398 57.0505   2
  -5  17   5 326.966 70.5064   3
  -5  17   4 230.641 56.8482   2
  -5  17   4 287.958 65.6211   3
   5  17  -4 293.130 55.4740   2
   5  17  -3 2676.53 134.027   2
  -5  17   3 2629.38 157.250   3
  -5  17   3 2660.69 144.915   2
   5  17  -2 691.045 77.7838   2
  -5  17   2 852.015 94.1147   3
  -5  17   2 815.212 84.9926   2
   5  17  -1 4504.47 182.974   2
   5  17  -1 4799.89 187.780   1
  -5  17   1 4634.70 198.804   3
  -5  17   1 4380.60 175.565   2
   5  17   0 2960.55 151.275   2
  -5  17   0 3263.72 165.835   3
   5  17   0 3069.59 148.244   1
   5  17   1 1023.58 90.1435   1
   5  17   1 933.552 93.6162   2
  -5  17  -1 944.162 94.9639   3
  -5  17  -1 1059.90 117.211   1
  -5  17  -2 243.083 76.3997   1
   5  17   2 177.245 60.7264   2
   5  17   2 191.306 51.2383   1
  -5  17  -2 174.465 52.8036   3
   5  17   3 210.812 53.2066   1
   5  17   3 310.927 72.0618   2
  -5  17  -3 230.955 77.7849   1
  -5  17  -3 253.530 58.8212   3
   5  17   4-61.8388 50.5575   2
  -5  17  -4 5.53753 62.3938   1
  -5  17  -4 4.96754 41.9993   3
   5  17   5 145.077 62.0579   2
  -5  17  -5 142.350 49.1664   3
  -5  17  -5 106.890 67.4313   1
  -5  17  -6 2233.92 160.338   1
  -5  17  -6 2018.47 126.848   3
   5  17   6 2017.50 149.488   2
  -5  17  -7 5177.24 232.722   1
  -5  17  -7 5194.89 196.500   3
   5  17   7 5053.76 227.517   2
   5  17   8 213.993 74.9222   2
  -5  17  -8 94.6406 45.8465   3
  -5  17  -8 95.9788 60.0139   1
   5  17   9 185.988 71.5210   2
  -5  17  -9 223.651 65.4424   1
  -5  17  -9 172.386 48.8528   3
  -5  17 -10 2060.61 153.618   1
  -5  17 -10 2128.06 124.549   3
   5  17  10 1705.27 146.268   2
  -5  17 -11 1630.92 139.196   1
  -5  17 -11 1748.89 114.425   3
   5  17  11 1671.90 147.328   2
  -5  17 -12 1101.57 121.570   1
   5  17  12 1033.73 125.048   2
  -5  17 -13 166.366 59.8718   1
   5  17  13 136.215 74.2124   2
  -5  17 -14 352.404 82.3387   1
   5  17  14 341.620 81.9705   2
   5  17  15 156.931 83.6966   2
   5  17  16 560.861 107.017   2
   5  17  17 3459.62 230.122   2
  -5  18  20 1295.77 159.545   2
  -5  18  19 165.166 89.7199   2
  -5  18  18 587.464 116.080   2
  -5  18  17 389.522 95.2680   2
  -5  18  16 4092.77 233.760   2
  -5  18  15 41.6417 66.1381   2
  -5  18  14 1062.04 124.003   2
  -5  18  13 442.765 86.2060   2
  -5  18  13 329.885 77.5598   3
  -5  18  12 292.274 76.2484   2
  -5  18  12 408.746 85.9388   3
  -5  18  11-22.9081 54.2024   2
  -5  18  11 133.979 63.7858   3
  -5  18  10 2144.78 158.555   2
  -5  18  10 2157.44 162.413   3
  -5  18   9 479.483 84.2136   2
  -5  18   9 454.049 86.6312   3
  -5  18   8 857.189 104.717   2
  -5  18   8 996.998 114.193   3
  -5  18   7 115.612 59.3909   2
   5  18  -7 62.7322 37.7561   2
  -5  18   7 7.23538 54.8629   3
  -5  18   6 208.998 56.8307   2
   5  18  -6 284.499 51.0517   2
  -5  18   6 234.129 64.8853   3
   5  18  -5 97.5279 41.8458   2
  -5  18   5 41.8756 49.8639   2
  -5  18   5-15.6860 51.3073   3
   5  18  -4 6310.74 199.904   2
  -5  18   4 6150.09 242.922   3
  -5  18   4 6292.70 224.219   2
  -5  18   3-26.7187 42.7149   2
   5  18  -3 62.2310 47.2654   2
  -5  18   3 12.2969 49.8104   3
   5  18  -2 2949.14 155.826   1
   5  18  -2 3184.25 152.017   2
  -5  18   2 3099.98 170.821   3
  -5  18   2 3140.56 152.779   2
  -5  18   1 129.082 49.7215   2
   5  18  -1 72.8992 44.5323   2
  -5  18   1 99.1433 54.1878   3
   5  18  -1-3.77824 48.5315   1
   5  18   0 800.667 85.3921   2
   5  18   0 987.037 95.5766   1
  -5  18   0 923.376 94.7440   3
  -5  18   0 916.464 84.9203   2
   5  18   1 250.676 63.7775   2
  -5  18  -1 273.816 79.8416   1
  -5  18  -1 300.706 65.8599   3
   5  18   1 306.224 64.6459   1
  -5  18  -1 198.330 49.2754   2
   5  18   2-16.2430 49.6872   2
   5  18   2-43.7862 48.5652   1
  -5  18  -2 22.2871 41.6014   3
  -5  18  -2 45.9216 33.6712   2
   5  18   3 223.057 61.4677   1
  -5  18  -3 151.803 65.6492   1
   5  18   3 137.047 48.7957   2
  -5  18  -3 162.534 51.5103   3
  -5  18  -3 30.8501 32.3052   2
   5  18   4 907.240 101.342   2
  -5  18  -4 948.851 109.823   1
  -5  18  -4 1154.65 99.8933   3
  -5  18  -4 1036.65 78.8628   2
   5  18   5 108.914 62.8563   2
  -5  18  -5 91.8036 67.9999   1
  -5  18  -5-32.3196 45.6729   3
   5  18   6-71.0084 57.2630   2
  -5  18  -6-2.65386 42.0510   3
  -5  18  -6 70.7734 70.9299   1
   5  18   7 149.212 64.4711   2
  -5  18  -7 7.59473 60.1381   1
  -5  18  -7 85.7990 43.8677   3
  -5  18  -8 6686.88 269.312   1
  -5  18  -8 6400.47 218.919   3
   5  18   8 6161.31 260.601   2
   5  18   9 273.503 76.6621   2
  -5  18  -9 331.891 63.3248   3
  -5  18  -9 251.885 79.1933   1
  -5  18 -10 2183.31 167.653   1
   5  18  10 1851.56 155.429   2
   5  18  11 130.584 73.0369   2
  -5  18 -11-3.18806 60.5671   1
  -5  18 -12 128.151 70.8955   1
   5  18  12 65.5072 67.7521   2
  -5  18 -13 1583.73 144.756   1
   5  18  13 1730.79 157.780   2
  -5  18 -14 589.252 103.904   1
   5  18  14 476.451 100.855   2
  -5  18 -15 489.047 98.1062   1
   5  18  15 402.633 100.602   2
   5  18  16 819.842 129.146   2
  -5  19  19 1001.04 135.793   2
  -5  19  18 1525.84 161.079   2
  -5  19  17 1224.60 141.664   2
  -5  19  16 620.402 105.268   2
  -5  19  15-46.5431 68.8679   2
  -5  19  14 465.452 92.9869   2
  -5  19  13 98.7697 76.0495   2
  -5  19  12 3867.56 218.452   2
  -5  19  12 3793.62 218.798   3
  -5  19  11 84.3516 61.6158   2
  -5  19  11 306.563 78.1558   3
  -5  19  10-27.0238 63.4146   2
  -5  19  10 49.9528 65.0451   3
  -5  19   9 365.918 79.1089   2
  -5  19   9 432.388 87.0746   3
  -5  19   8 1583.62 134.301   2
  -5  19   8 1412.05 132.792   3
  -5  19   7 1534.43 129.975   2
  -5  19   7 1369.00 130.120   3
  -5  19   6 3487.64 180.056   2
  -5  19   6 3757.74 198.642   3
   5  19  -5 237.290 53.1726   2
  -5  19   5 197.182 57.4024   2
  -5  19   5 138.603 59.3010   3
  -5  19   4 168.279 55.2051   2
  -5  19   4 285.825 69.1720   3
   5  19  -4 209.746 51.8856   2
  -5  19   3 161.963 57.7925   2
   5  19  -3 237.387 51.8700   2
  -5  19   3 347.902 74.9817   3
   5  19  -2 1669.26 114.748   2
   5  19  -2 1452.07 118.540   1
  -5  19   2 1539.03 123.530   3
  -5  19   2 1592.12 117.268   2
   5  19  -1 1804.42 120.390   2
  -5  19   1 1974.43 137.568   3
   5  19  -1 1693.76 122.046   1
  -5  19   1 1825.85 116.336   2
  -5  19   0 688.383 79.8546   2
   5  19   0 646.514 82.0318   2
   5  19   0 483.409 76.1454   1
  -5  19   0 674.504 86.5473   3
  -5  19  -1 622.214 71.6564   2
   5  19   1 607.707 83.6965   2
  -5  19  -1 653.636 110.379   1
   5  19   1 683.516 83.9105   1
  -5  19  -1 676.420 85.1610   3
   5  19   2 1727.24 132.511   2
  -5  19  -2 1948.18 159.306   1
  -5  19  -2 1902.41 129.928   3
   5  19   2 1801.01 122.470   1
  -5  19  -2 1714.89 106.016   2
  -5  19  -3 621.932 104.582   1
   5  19   3 504.199 80.1532   2
  -5  19  -3 430.126 72.0850   3
   5  19   3 553.445 75.3876   1
   5  19   4 910.510 102.653   2
  -5  19  -4 836.926 112.802   1
  -5  19  -4 885.711 91.6191   3
   5  19   5 44.6439 48.8626   2
  -5  19  -5 45.2180 64.4602   1
  -5  19  -5 15.4831 41.1304   3
   5  19   6 390.137 77.4751   2
  -5  19  -6 396.100 69.4706   3
  -5  19  -6 392.540 82.0782   1
  -5  19  -7 537.483 89.9980   1
   5  19   7 582.031 92.7548   2
  -5  19  -7 491.327 70.6841   3
   5  19   8 22.2087 60.2041   2
  -5  19  -8 80.2393 43.7514   3
   5  19   9-66.6462 69.2482   2
  -5  19  -9-17.3417 62.0899   1
  -5  19 -10 59.3772 65.1114   1
   5  19  10-51.5251 66.8335   2
   5  19  11 231.104 80.2488   2
  -5  19 -11 334.098 89.3924   1
  -5  19 -12 5101.14 254.894   1
   5  19  12 5430.97 268.089   2
  -5  19 -13 815.943 112.575   1
   5  19  13 703.667 114.834   2
  -5  19 -14-43.8681 68.8879   1
   5  19  14 104.783 77.6969   2
  -5  19 -15-57.9351 67.3872   1
   5  19  15 70.8760 74.6718   2
  -5  19 -16 327.267 81.5570   1
  -5  19 -17 49.3699 74.7356   1
  -5  20  18 166.249 89.0071   2
  -5  20  17 249.941 88.9361   2
  -5  20  16 269.269 84.9172   2
  -5  20  15 4205.43 241.562   2
  -5  20  14 323.942 87.9900   2
  -5  20  13 497.973 100.305   2
  -5  20  12 166.571 71.1236   2
  -5  20  11 3103.99 194.458   2
  -5  20  11 3063.42 200.941   3
  -5  20  10 1521.65 138.334   2
  -5  20  10 1543.39 151.508   3
  -5  20   9 1357.17 136.830   2
  -5  20   9 1897.33 155.930   3
  -5  20   8 26.9347 54.4124   2
  -5  20   8 103.054 66.7783   3
  -5  20   7 1879.81 142.441   2
  -5  20   7 2069.58 156.676   3
  -5  20   6 85.9506 56.4436   2
  -5  20   6-85.2347 58.9908   3
  -5  20   5 1801.83 133.027   2
  -5  20   5 1596.61 138.781   3
  -5  20   4 812.324 98.7995   2
   5  20  -4 650.303 71.0804   2
  -5  20   4 631.692 94.7417   3
  -5  20   3 6849.93 237.418   2
   5  20  -3 6804.44 217.855   2
  -5  20   3 7322.77 268.217   3
   5  20  -3 6906.51 250.115   1
  -5  20   2 74.9915 47.5522   2
   5  20  -2 163.058 53.8136   2
  -5  20   2 57.6503 49.8260   3
   5  20  -2 149.800 59.5385   1
  -5  20   1 301.878 63.7810   2
   5  20  -1 259.261 58.7990   2
   5  20  -1 209.225 62.5713   1
  -5  20   1 416.219 78.2833   3
  -5  20   0 217.440 52.8598   2
   5  20   0 145.096 50.0177   1
   5  20   0 128.863 48.9150   2
  -5  20   0 199.439 59.3280   3
  -5  20  -1 182.220 49.9025   2
   5  20   1 136.797 57.8987   2
  -5  20  -1 86.6823 70.2014   1
   5  20   1 174.912 63.1119   1
  -5  20  -1 161.370 58.4383   3
   5  20   2 74.5396 44.9253   1
   5  20   2-23.3774 48.1074   2
  -5  20  -2 62.4640 42.2887   3
  -5  20  -2 144.166 71.9720   1
  -5  20  -3 1077.99 128.033   1
   5  20   3 834.841 103.336   2
   5  20   3 1152.29 104.770   1
  -5  20  -3 1079.62 102.993   3
   5  20   4 317.069 74.7738   2
  -5  20  -4 403.745 94.1724   1
  -5  20  -4 317.806 65.9020   3
   5  20   5 296.287 78.4366   2
  -5  20  -5 222.822 82.0736   1
  -5  20  -5 113.901 49.0867   3
   5  20   6 284.771 74.5281   2
  -5  20  -6 273.419 83.8399   1
  -5  20  -6 347.259 60.1825   3
   5  20   7 698.530 102.418   2
  -5  20  -7 563.773 99.5003   1
   5  20   8-51.4046 64.4047   2
  -5  20  -8 64.6533 70.8573   1
  -5  20  -9 2424.39 179.963   1
   5  20   9 2219.28 171.601   2
   5  20  10 254.618 81.1508   2
  -5  20 -10 301.682 88.1369   1
   5  20  11 861.862 119.214   2
  -5  20 -11 1032.79 131.093   1
   5  20  12 358.102 89.5356   2
  -5  20 -12 316.157 82.7513   1
   5  20  13 320.264 93.8488   2
  -5  20 -13 332.264 86.8567   1
  -5  20 -14 0.94586 75.8693   1
   5  20  14 163.931 77.7839   2
  -5  20 -15 389.592 86.2563   1
  -5  21  17 1020.63 135.923   2
  -5  21  16 1973.08 178.651   2
  -5  21  15 317.638 96.3221   2
  -5  21  14-82.9213 65.7028   2
  -5  21  13 3342.17 211.974   2
  -5  21  12 1743.56 156.735   2
  -5  21  11 2534.98 180.187   2
  -5  21  10 151.346 72.0119   2
  -5  21  10 305.194 82.2252   3
  -5  21   9 960.321 112.539   2
  -5  21   9 1168.48 131.154   3
  -5  21   8 1695.32 140.851   2
  -5  21   8 1553.66 148.195   3
  -5  21   7 3414.93 196.353   2
  -5  21   7 3536.51 205.118   3
  -5  21   6 3966.36 199.311   2
  -5  21   6 4197.78 217.389   3
  -5  21   5 46.6119 46.1817   2
  -5  21   5 220.127 78.2250   3
  -5  21   4 328.550 65.9749   2
   5  21  -4 199.987 60.7336   1
  -5  21   4 423.307 80.1066   3
  -5  21   3 342.257 69.6516   2
   5  21  -3 180.639 64.2457   1
  -5  21   3 470.888 85.1569   3
  -5  21   2 169.798 57.0808   2
   5  21  -2 104.648 61.2574   1
   5  21  -2 217.943 62.6398   2
  -5  21   2 122.590 57.0581   3
  -5  21   1 4087.90 181.441   2
   5  21  -1 4058.08 181.440   2
   5  21  -1 4181.03 200.538   1
  -5  21   1 4285.64 208.884   3
   5  21   0 878.488 97.7417   2
  -5  21   0 1033.28 107.310   3
   5  21   0 935.612 105.757   1
   5  21   1 2754.00 159.163   2
  -5  21  -1 2731.17 162.905   3
   5  21   1 2850.83 162.452   1
   5  21   2-21.2456 45.5642   1
   5  21   2 85.8267 45.3618   2
  -5  21  -2 96.2186 74.9348   1
  -5  21  -2-44.3865 47.9944   3
  -5  21  -3 605.174 101.762   1
   5  21   3 542.326 85.8996   2
   5  21   3 738.819 89.4064   1
  -5  21  -3 580.883 79.6598   3
  -5  21  -4 512.472 109.506   1
   5  21   4 559.761 92.1831   2
  -5  21  -4 512.669 76.4975   3
   5  21   5 1272.24 125.049   2
  -5  21  -5 1344.02 111.649   3
  -5  21  -5 1482.15 145.140   1
   5  21   6 52.0327 52.1993   2
  -5  21  -6 279.148 85.4420   1
   5  21   7 760.821 108.150   2
  -5  21  -7 1085.39 131.831   1
   5  21   8 321.442 84.5737   2
  -5  21  -8 143.432 66.9302   1
   5  21   9 238.639 84.4926   2
  -5  21  -9 164.379 80.6323   1
   5  21  10 248.522 78.6059   2
  -5  21 -10 302.689 85.1832   1
  -5  21 -11 2617.02 196.422   1
   5  21  11 2712.84 197.363   2
  -5  21 -12 2560.71 191.915   1
   5  21  12 2688.34 199.702   2
   5  21  13 257.196 91.8023   2
  -5  21 -13 241.187 90.3257   1
  -5  22  16 1833.46 172.610   2
  -5  22  15 151.511 80.6170   2
  -5  22  14 2068.19 172.751   2
  -5  22  13 627.451 112.880   2
  -5  22  12 25.1609 64.6620   2
  -5  22  11 704.418 104.988   2
  -5  22  10 438.548 86.3115   2
  -5  22   9 663.806 97.8874   2
  -5  22   8 2778.28 177.476   2
  -5  22   8 2746.72 187.770   3
  -5  22   7 50.1922 53.7292   2
  -5  22   7 30.9934 54.3694   3
  -5  22   6 29.9352 52.8743   2
  -5  22   6 119.189 62.0850   3
   5  22  -5-59.9718 56.6849   1
  -5  22   5 58.8267 46.5063   2
  -5  22   5 66.5595 63.9413   3
  -5  22   4 5174.86 218.273   2
   5  22  -4 5403.04 240.025   1
  -5  22   4 5514.23 248.193   3
  -5  22   3 50.2308 50.1339   2
   5  22  -3 37.8020 61.3737   1
  -5  22   3-12.5412 55.7676   3
   5  22  -2 5655.04 239.211   1
  -5  22   2 5316.41 237.969   3
   5  22  -1 14.6215 47.3645   1
  -5  22   1 100.347 58.1651   3
   5  22   0 165.690 50.5698   2
   5  22   0 85.5098 60.2260   1
  -5  22   0-19.5137 44.7886   3
   5  22   1 1512.57 125.582   2
   5  22   1 1543.76 128.333   1
  -5  22  -1 1521.05 125.232   3
   5  22   2 588.091 86.7372   2
  -5  22  -2 914.925 120.403   1
  -5  22  -2 787.628 91.3247   3
   5  22   2 827.526 96.6563   1
   5  22   3 128.957 60.9091   2
  -5  22  -3 101.091 48.9486   3
  -5  22  -3 143.419 81.2045   1
   5  22   4 2373.71 161.237   2
  -5  22  -4 2424.96 184.875   1
   5  22   5 281.010 70.0349   2
  -5  22  -5 347.969 97.5112   1
   5  22   6 139.693 61.9277   2
  -5  22  -6 126.182 69.1574   1
   5  22   7 139.338 63.1116   2
  -5  22  -7 178.253 84.8067   1
  -5  22  -8 2890.94 204.982   1
   5  22   8 2922.97 194.023   2
   5  22   9 78.7492 66.9397   2
  -5  22  -9 43.8911 68.1375   1
   5  22  10 1352.19 142.740   2
  -5  22 -10 1564.38 157.543   1
   5  22  11 280.111 88.0634   2
  -5  22 -11 162.593 74.4933   1
   5  22  12 71.8376 71.2815   2
  -5  23  14 371.574 95.3871   2
  -5  23  13 705.081 116.019   2
  -5  23  12 2886.01 198.300   2
  -5  23  11 22.2423 55.0873   2
  -5  23  10 613.118 103.921   2
  -5  23   9 31.6157 53.6885   2
  -5  23   8 780.287 103.717   2
  -5  23   7 1038.47 113.346   2
  -5  23   7 849.072 115.425   3
  -5  23   6 1471.82 125.994   2
   5  23  -6 1229.96 132.562   1
  -5  23   6 1478.27 143.398   3
  -5  23   5 1860.91 138.680   2
   5  23  -5 1688.65 148.274   1
  -5  23   5 1722.17 149.258   3
   5  23  -4 1489.59 138.232   1
  -5  23   4 1473.68 135.878   3
   5  23  -3 318.450 79.1475   1
  -5  23   3 383.292 85.2269   3
   5  23  -2 1443.80 132.967   1
  -5  23   2 1429.59 134.104   3
   5  23  -1 95.3284 73.2489   1
  -5  23   1 34.1092 56.2221   3
  -5  23   0 4558.18 214.161   3
   5  23   0 4989.96 226.934   1
   5  23   1 1162.43 116.801   1
  -5  23  -1 857.806 100.291   3
   5  23   2 688.028 96.5223   2
   5  23   2 725.616 95.5616   1
   5  23   3 25.9616 49.0522   2
  -5  23  -3 123.284 78.8710   1
  -5  23  -4 175.344 71.4505   1
   5  23   4 120.482 56.0463   2
  -5  23  -5 630.219 121.393   1
   5  23   5 610.260 95.9177   2
   5  23   6 4674.10 232.626   2
  -5  23  -6 4796.89 258.780   1
   5  23   7 15.0390 56.0563   2
  -5  23  -7 193.712 88.1861   1
   5  23   8 538.198 95.0926   2
  -5  23  -8 586.225 118.974   1
   5  23   9 97.1313 66.6856   2
   5  23  10 2181.58 175.030   2
   5  23  11 330.542 87.3364   2
  -5  24  13 800.708 113.924   2
  -5  24  12 128.892 63.9125   2
  -5  24  11 556.931 96.9183   2
  -5  24  10 916.038 114.197   2
  -5  24   9 1851.44 152.413   2
  -5  24   8 1027.83 116.926   2
   5  24  -7-16.6831 61.6019   1
  -5  24   7 68.6657 53.6009   2
   5  24  -6 26.0679 66.7450   1
   5  24  -5-42.9731 60.1358   1
  -5  24   5 60.5433 54.3299   3
   5  24  -4 1852.95 152.686   1
  -5  24   4 1807.99 150.641   3
   5  24  -3 5698.96 253.013   1
  -5  24   3 5352.07 243.974   3
   5  24  -2 353.423 81.3818   1
  -5  24   2 484.573 84.7423   3
  -5  24   1 3976.67 203.467   3
   5  24  -1 3995.24 208.734   1
   5  24   0 478.705 91.8793   1
   5  24   1 36.1314 59.3704   1
  -5  24  -3 36.5388 76.4190   1
   5  24   4 1154.41 117.160   2
   5  24   5 1275.52 130.587   2
   5  24   6 161.110 69.3869   2
   5  24   7 949.819 117.309   2
   5  24   8 95.5699 61.6118   2
   5  24   9 3354.33 207.859   2
   5  24  10 117.309 70.4382   2
  -5  25  12 353.357 80.3541   2
  -5  25  11 699.446 101.349   2
  -5  25  10 10.5968 50.1441   2
   5  25  -8 181.793 78.9598   1
   5  25  -7 2319.43 174.666   1
   5  25  -6 193.064 74.4548   1
   5  25  -5 5602.45 263.478   1
   5  25  -4 52.0733 66.5385   1
   5  25  -3 171.997 73.0081   1
   5  25  -2 226.160 75.3805   1
   5  25  -1 436.013 91.3469   1
   5  25   0 26.2062 64.8195   1
   5  25   7 547.251 93.6328   2
   5  25   8 167.825 69.6409   2
   5  25   9 32.1555 53.4943   2
   5  26  -6 354.616 83.4515   1
   5  26  -5 113.411 83.5733   1
   5  26  -4 3609.07 211.172   1
   5  26  -3 407.608 91.0716   1
   5  26  -2 44.8879 54.1740   1
  -6   0  30 2887.63 188.959   2
  -6   0  29 61.5077 64.9199   2
  -6   0  28 6532.75 283.382   2
  -6   0  27 25.8020 61.6973   2
  -6   0  26 3997.68 224.988   2
  -6   0  25 102.070 68.7539   2
  -6   0  24 488.701 90.9693   2
  -6   0  23 23.7735 57.1619   2
  -6   0  22 13.8975 55.9457   2
  -6   0  21-65.6647 59.2210   2
  -6   0  20 3369.77 164.607   3
  -6   0  19-12.2065 45.2367   3
  -6   0  18 5408.35 199.910   3
  -6   0  17 14.8392 50.5629   3
  -6   0  16 19764.9 365.558   3
  -6   0  15-22.9704 45.8341   3
  -6   0  14 1974.78 117.350   3
  -6   0  13 31.3192 39.4576   3
  -6   0  12 246.392 56.4470   3
  -6   0  11-13.5304 41.1246   3
  -6   0  10 18557.0 324.554   3
  -6   0   9 16.1636 37.6081   3
  -6   0   8 124.429 41.1469   3
  -6   0   7 18.2329 41.6508   3
  -6   0   6 14435.7 278.692   3
  -6   0   5 5.10015 40.2187   3
  -6   0   4 10418.6 238.077   3
  -6   0   3-29.0277 43.9965   3
  -6   0   2 7575.23 205.613   3
   6   0   0 3604.57 149.777   2
   6   0   0 3487.49 86.6371   1
   6   0   1 72.2891 49.9337   2
   6   0   1 11.9072 19.4761   1
   6   0   2 3432.34 147.849   2
   6   0   3 20.2513 49.3678   2
   6   0   4 141.874 49.7741   2
   6   0   5-40.4698 47.1152   2
   6   0   6 6625.94 212.247   2
   6   0   7-24.4951 42.6487   2
   6   0   8 886.822 91.3320   2
  -6   0  -8 909.160 35.8825   1
   6   0   9 13.9090 44.4002   2
  -6   0  -9-11.8444 14.8577   1
  -6   0 -10 3921.10 86.6950   1
   6   0  10 4408.06 184.181   2
   6   0  11 11.1787 48.9094   2
   6   0  12 1316.36 113.499   2
   6   0  13 88.9330 52.5823   2
   6   0  14 14052.7 349.413   2
   6   0  15 38.0685 54.5660   2
   6   0  16 3395.12 183.648   2
   6   0  17 10.8277 50.4640   2
   6   0  18 651.337 91.4851   2
   6   0  19 102.752 60.1272   2
   6   0  20 963.244 111.316   2
   6   0  21-21.5666 52.3167   2
   6   0  22 11.9244 55.2432   2
   6   0  23 36.5604 53.8734   2
   6   0  24 1742.76 156.244   2
   6   0  25 211.654 83.8415   2
   6   0  26 5743.61 263.638   2
  -6   1  30 3330.48 207.187   2
  -6   1  29 403.001 90.6308   2
  -6  -1  29 423.176 84.5271   2
  -6   1  28 488.111 101.549   2
  -6  -1  28 508.585 96.4139   2
  -6  -1  27 123.522 64.1038   2
  -6   1  27 73.0088 65.5641   2
  -6  -1  26 654.693 101.611   2
  -6   1  26 777.818 113.282   2
  -6  -1  25 4069.87 210.279   2
  -6   1  25 3812.40 212.748   2
  -6  -1  24 3927.98 206.401   2
  -6   1  24 4379.53 219.017   2
  -6  -1  23-86.2919 60.6801   2
  -6   1  23 54.9104 55.3531   2
  -6  -1  22-10.6021 55.7464   2
  -6   1  22-42.0232 59.0960   2
  -6  -1  21 133.845 55.1204   2
  -6   1  21 184.790 69.2029   2
  -6   1  20 10099.2 288.488   3
  -6  -1  20 10382.7 276.204   3
  -6   1  19 483.279 73.5299   3
  -6  -1  19 663.337 79.3025   3
  -6   1  18 77.3969 50.7730   3
  -6  -1  18 48.3051 41.0446   3
  -6  -1  17 12041.2 283.232   3
  -6   1  17 12127.4 300.398   3
  -6  -1  16 397.451 61.3615   3
  -6   1  16 454.396 70.6258   3
  -6  -1  15 589.751 72.1345   3
  -6   1  15 659.222 78.3410   3
  -6  -1  14 3914.94 156.525   3
  -6   1  14 3873.33 165.173   3
  -6  -1  13 6822.78 199.113   3
  -6   1  13 6804.68 210.428   3
  -6  -1  12 9161.84 226.643   3
  -6   1  12 9771.96 245.536   3
  -6  -1  11 375.753 59.1050   3
  -6   1  11 336.555 57.2080   3
  -6  -1  10 837.700 74.5715   3
  -6   1  10 943.017 84.4175   3
  -6  -1   9 312.600 50.7872   3
  -6   1   9 338.858 58.3997   3
  -6  -1   8 983.483 79.5191   3
  -6   1   8 909.536 77.6673   3
  -6  -1   7-17.4910 38.4129   3
  -6   1   7-24.1493 40.8706   3
  -6  -1   6 5584.55 174.224   3
  -6   1   6 5662.33 181.488   3
  -6  -1   5 74.5644 43.1665   3
  -6   1   5 65.2356 40.9191   3
  -6   1   4 606.409 70.0250   3
  -6  -1   4 487.164 60.2480   3
  -6  -1   3 126.127 48.1168   3
  -6   1   3 94.6417 43.3282   3
  -6  -1   2 3313.22 137.905   3
  -6   1   2 3394.53 143.742   3
   6   1  -1 7713.24 216.543   2
  -6   1   1 7631.73 211.879   3
   6   1   0 1526.51 104.821   2
   6  -1   0 1524.59 62.1698   1
   6   1   1 62.9679 43.6044   2
   6   1   1 65.4137 17.3107   1
   6  -1   1 118.749 51.0734   2
   6  -1   1 69.1882 21.1161   1
   6   1   2 74.5741 45.5105   2
   6  -1   2 108.975 50.7953   2
   6  -1   3 361.555 61.5712   2
   6   1   3 233.337 55.0992   2
   6   1   4 3101.76 148.076   2
   6  -1   4 3376.59 149.864   2
   6   1   5 3151.41 148.481   2
   6  -1   5 3105.04 145.083   2
   6   1   6 1284.83 101.431   2
   6  -1   6 1403.15 103.104   2
   6   1   7 5540.05 199.892   2
   6  -1   7 5420.43 192.311   2
  -6   1  -7 5428.50 98.7922   1
   6  -1   8 3191.32 152.577   2
   6   1   8 2972.85 149.744   2
  -6   1  -8 3037.05 76.5184   1
   6   1   9 1697.55 120.923   2
   6  -1   9 1737.04 115.887   2
  -6   1  -9 1588.46 59.8193   1
  -6  -1  -9 1368.09 34.8304   1
   6   1  10 1410.11 114.427   2
  -6  -1 -10 1053.59 38.7406   1
   6  -1  10 1196.19 100.803   2
   6   1  11 6413.11 229.111   2
   6  -1  11 6556.15 224.084   2
   6   1  12 1272.01 109.420   2
   6  -1  12 1183.24 105.806   2
   6   1  13 2325.50 147.675   2
   6  -1  13 2485.46 147.176   2
   6  -1  14 749.105 91.6297   2
   6   1  14 775.573 95.4086   2
   6   1  15 2261.35 150.067   2
   6  -1  15 2434.55 150.749   2
   6   1  16 3218.34 180.328   2
   6  -1  16 3310.76 176.661   2
   6   1  17 2709.06 168.689   2
   6  -1  17 3186.74 175.762   2
   6   1  18 843.323 104.742   2
   6  -1  18 731.827 96.4660   2
   6   1  19 204.095 63.2049   2
   6  -1  19 164.060 55.8389   2
   6   1  20 180.922 63.9528   2
   6  -1  20 151.440 62.2897   2
   6   1  21 416.546 86.5664   2
   6  -1  21 548.988 91.0547   2
   6   1  22 851.002 117.347   2
   6  -1  22 642.546 99.3429   2
   6   1  23 119.804 73.9598   2
   6  -1  23 134.572 62.1620   2
   6   1  24 2499.62 181.820   2
   6  -1  24 2680.62 180.258   2
   6   1  25 641.970 104.373   2
   6  -1  25 738.826 112.068   2
   6   1  26 19.9776 66.5880   2
  -6   2  30-32.2088 63.9655   2
  -6   2  29 2323.90 182.721   2
  -6   2  28 657.727 103.457   2
  -6  -2  28 860.824 109.818   2
  -6  -2  27 3653.38 205.705   2
  -6   2  27 3870.09 223.910   2
  -6  -2  26 184.929 70.9455   2
  -6   2  26 247.303 76.8364   2
  -6  -2  25 153.771 61.3578   2
  -6   2  25 192.663 70.2695   2
  -6  -2  24 618.994 88.4055   2
  -6   2  24 695.173 101.767   2
  -6   2  23 991.892 115.377   2
  -6  -2  23 1295.11 118.038   2
  -6  -2  22 681.436 92.7179   2
  -6   2  22 589.413 95.8972   2
  -6  -2  21 4083.77 195.741   2
  -6   2  21 4158.92 207.294   2
  -6   2  20 55.9889 53.6428   3
  -6   2  20 0.33098 52.5555   2
  -6   2  19 370.237 72.7495   3
  -6  -2  19 263.507 55.6574   3
  -6   2  18 1813.84 126.391   3
  -6  -2  18 1553.18 105.868   3
  -6   2  17 5976.84 215.279   3
  -6  -2  17 5578.45 189.758   3
  -6  -2  16 602.079 68.9876   3
  -6   2  16 641.546 82.9035   3
  -6  -2  15 10283.4 244.536   3
  -6   2  15 10149.5 273.196   3
  -6  -2  14 1425.70 94.1027   3
  -6   2  14 1448.14 108.174   3
  -6  -2  13 1107.01 83.2976   3
  -6   2  13 1080.22 95.8295   3
  -6  -2  12 1461.45 93.9528   3
  -6   2  12 1456.82 105.223   3
  -6  -2  11 1321.45 92.5557   3
  -6   2  11 1215.72 93.9143   3
  -6  -2  10 95.9063 41.8722   3
  -6   2  10 45.0023 42.0274   3
  -6  -2   9 4604.85 153.317   3
  -6   2   9 4893.76 172.917   3
  -6  -2   8 10917.1 234.122   3
  -6   2   8 10859.1 254.199   3
  -6  -2   7 4094.94 146.267   3
  -6   2   7 4206.91 158.438   3
  -6  -2   6 337.679 52.1908   3
  -6   2   6 355.542 59.6819   3
  -6  -2   5 9467.52 219.731   3
  -6   2   5 9779.82 235.925   3
  -6  -2   4-9.61071 39.8484   3
  -6   2   4-16.3872 46.2958   3
  -6  -2   3 5184.60 167.109   3
  -6   2   3 4789.88 169.141   3
  -6   2   2 180.314 51.6019   3
   6   2  -2 226.843 55.6855   2
  -6   2   1 326.048 57.4933   3
   6   2  -1 292.365 61.6891   2
   6  -2  -1 311.902 39.2789   1
   6   2   0 2.76073 44.7826   2
  -6   2   0-58.9774 51.6670   3
   6  -2   0 15.9737 24.6059   1
   6  -2   1 518.708 42.6612   1
   6   2   1 655.026 74.9332   2
   6  -2   2 757.645 77.8638   2
   6   2   2 740.926 79.7415   2
   6  -2   3 10368.5 248.608   2
   6   2   3 10363.1 259.885   2
   6  -2   4 93.9719 48.8404   2
   6   2   4 150.643 52.0795   2
   6   2   5 992.731 91.4292   2
   6  -2   5 1125.35 91.9377   2
   6   2   6 222.648 56.3833   2
   6  -2   6 94.6499 46.6640   2
   6   2   7 5153.05 196.586   2
   6  -2   7 5550.06 194.193   2
  -6   2  -7 5413.92 113.034   1
   6   2   8 305.521 60.5213   2
   6  -2   8 430.783 68.2535   2
  -6   2  -8 348.806 35.5735   1
   6   2   9 1124.10 103.095   2
   6  -2   9 1127.47 99.0849   2
  -6   2  -9 1216.92 60.2537   1
   6   2  10 316.774 66.5404   2
   6  -2  10 263.764 55.7002   2
   6   2  11 39.5754 55.6003   2
   6  -2  11-49.0037 49.5889   2
   6   2  12 1858.08 131.889   2
   6  -2  12 1747.06 122.483   2
   6   2  13 2395.73 152.598   2
   6  -2  13 2317.63 139.421   2
   6   2  14 3.17741 54.0395   2
   6  -2  14-7.13731 47.2870   2
   6   2  15 3490.39 188.543   2
   6  -2  15 3663.57 180.504   2
   6   2  16 465.749 86.7676   2
   6  -2  16 322.521 68.4601   2
   6   2  17 447.095 84.7423   2
   6  -2  17 338.525 74.6200   2
   6   2  18 2495.57 170.072   2
   6  -2  18 2800.49 165.135   2
   6   2  19 1520.22 137.918   2
   6  -2  19 1476.30 124.457   2
   6   2  20 515.102 93.1143   2
   6  -2  20 599.250 91.0578   2
   6   2  21 1737.32 151.896   2
   6  -2  21 1588.01 137.372   2
   6  -2  22 1196.88 122.660   2
   6   2  22 1222.29 133.713   2
   6   2  23 305.644 81.6811   2
   6  -2  23 321.302 77.2504   2
   6   2  24 76.1246 71.9374   2
   6  -2  24 146.670 63.7568   2
   6   2  25 3234.83 208.347   2
   6   2  26 88.5825 60.2202   2
  -6   3  30 886.251 120.274   2
  -6   3  29 1936.44 169.799   2
  -6   3  28 124.480 69.9427   2
  -6  -3  27 58.2717 53.0638   2
  -6   3  27 208.110 78.2134   2
  -6  -3  26-63.8101 51.7648   2
  -6   3  26 57.6126 67.5096   2
  -6  -3  25 123.061 56.0918   2
  -6   3  25 203.235 74.4763   2
  -6  -3  24-61.0948 59.3780   2
  -6   3  24-64.2777 57.9376   2
  -6  -3  23 2332.89 153.128   2
  -6   3  23 2160.09 164.353   2
  -6  -3  22 91.3224 53.1955   2
  -6   3  22 189.504 75.9227   2
  -6   3  21 984.591 114.999   2
  -6  -3  21 1029.00 104.147   2
  -6   3  20 657.520 90.0462   3
  -6   3  20 611.466 92.1136   2
  -6   3  19 6660.88 243.442   3
  -6  -3  19 6892.31 208.594   3
  -6   3  18 443.895 74.1899   3
  -6  -3  18 525.753 65.8803   3
  -6  -3  17 771.463 77.7127   3
  -6   3  17 860.550 97.3545   3
  -6  -3  16 4282.21 158.221   3
  -6   3  16 4317.94 188.017   3
  -6  -3  15 1707.43 102.518   3
  -6   3  15 1760.66 121.826   3
  -6  -3  14 223.719 47.9622   3
  -6   3  14 324.708 66.7345   3
  -6  -3  13 1729.58 99.2380   3
  -6   3  13 1736.24 115.727   3
  -6  -3  12 11765.9 243.533   3
  -6   3  12 11910.7 284.046   3
  -6  -3  11 1875.18 101.073   3
  -6   3  11 1899.87 117.236   3
  -6  -3  10 6.28490 37.7037   3
  -6   3  10 10.5165 41.6751   3
  -6  -3   9 487.996 59.5178   3
  -6   3   9 611.950 74.1642   3
  -6  -3   8 142.298 40.6366   3
  -6   3   8 120.150 45.1131   3
  -6   3   7 1471.08 102.802   3
  -6  -3   7 1380.37 85.8882   3
  -6   3   6 7840.95 217.102   3
  -6  -3   6 7619.54 192.151   3
  -6  -3   5 412.686 57.7345   3
  -6   3   5 425.371 64.7310   3
  -6   3   4 4738.12 173.071   3
  -6  -3   4 4604.20 155.281   3
  -6   3   3 2745.30 132.606   3
   6   3  -3 2744.33 132.618   2
   6   3  -2 10476.7 251.155   2
  -6   3   2 10506.8 249.606   3
   6  -3  -2 10371.2 192.521   1
   6   3  -1 1151.29 92.6801   2
  -6   3   1 1092.38 88.0369   3
   6  -3  -1 1120.07 65.8383   1
  -6   3   0 18528.9 333.083   3
   6  -3   0 18188.7 239.761   1
   6   3   0 18673.5 338.901   2
  -6   3  -1 53.9758 44.1186   3
   6  -3   1 90.7272 26.4922   1
   6   3   1 68.9427 45.1509   2
   6   3   2 740.713 80.2214   2
   6  -3   3 231.542 50.1136   2
   6   3   3 254.231 54.4399   2
   6  -3   4 5208.52 179.803   2
   6   3   4 5295.16 191.039   2
   6   3   5 5177.66 192.496   2
   6  -3   5 5157.92 180.448   2
   6  -3   6 745.200 78.8719   2
   6   3   6 749.410 86.9008   2
  -6   3  -6 794.127 53.8887   1
   6  -3   7 674.928 76.7122   2
   6   3   7 574.391 74.9766   2
  -6   3  -7 644.099 49.6173   1
   6   3   8 1070.18 101.086   2
  -6   3  -8 1110.82 61.8919   1
   6  -3   8 1252.78 99.0773   2
  -6   3  -9 5269.39 131.375   1
   6   3   9 5185.33 207.225   2
   6  -3   9 5534.38 196.015   2
   6   3  10 8141.71 261.751   2
   6  -3  10 8308.43 243.495   2
   6   3  11 3309.28 173.597   2
   6  -3  11 3221.32 155.719   2
   6   3  12 441.736 81.3793   2
   6  -3  12 477.774 72.0968   2
   6   3  13 3226.80 178.627   2
   6  -3  13 3076.66 156.542   2
   6   3  14 3665.68 191.124   2
   6  -3  14 3717.08 174.418   2
   6   3  15 344.457 80.0220   2
   6  -3  15 517.432 75.6147   2
   6   3  16 124.070 66.8081   2
   6  -3  16 89.6087 50.4892   2
   6   3  17 3194.28 190.530   2
   6  -3  17 3416.54 175.927   2
   6   3  18 85.6707 65.9976   2
   6  -3  18 166.271 59.8332   2
   6   3  19 192.239 74.4822   2
   6  -3  19 130.787 48.1406   2
   6   3  20 51.0691 62.1526   2
   6  -3  20 45.3499 50.5323   2
   6   3  21 1488.60 141.119   2
   6  -3  21 1366.69 126.540   2
   6   3  22 3416.89 213.888   2
   6  -3  22 3087.88 182.830   2
   6   3  23 4920.26 258.042   2
   6  -3  23 5045.84 231.508   2
   6   3  24 75.2981 75.6724   2
   6   3  25 699.372 113.357   2
   6   3  26 185.218 76.5228   2
  -6   4  29 75.1143 69.2440   2
  -6   4  28 1324.00 146.008   2
  -6   4  27 1423.92 149.739   2
  -6  -4  26 1519.14 128.586   2
  -6   4  26 1336.93 142.777   2
  -6  -4  25 312.810 72.0491   2
  -6   4  25 312.152 85.4558   2
  -6  -4  24 910.764 100.972   2
  -6   4  24 1026.61 123.488   2
  -6  -4  23 734.605 92.0916   2
  -6   4  23 645.661 103.471   2
  -6  -4  22 1283.18 109.258   2
  -6   4  22 1286.59 129.251   2
  -6   4  21 23.0288 56.6986   2
  -6  -4  21-26.2329 47.6734   2
  -6   4  20 445.455 86.7974   2
  -6   4  20 310.225 67.9346   3
  -6   4  19 100.952 56.7790   3
  -6  -4  19 264.343 50.6876   3
  -6   4  19 159.139 64.2964   2
  -6   4  18 140.541 62.4500   3
  -6  -4  18 222.516 42.1766   3
  -6   4  17 4212.80 196.970   3
  -6  -4  17 4187.81 154.057   3
  -6  -4  16 1073.75 80.9817   3
  -6   4  16 1241.26 108.414   3
  -6  -4  15 2098.34 107.104   3
  -6   4  15 2171.57 139.336   3
  -6  -4  14 10707.9 231.830   3
  -6   4  14 10889.7 293.357   3
  -6  -4  13 945.231 73.1287   3
  -6   4  13 966.309 95.1292   3
  -6  -4  12 1555.18 90.4544   3
  -6   4  12 1546.93 112.878   3
  -6  -4  11 489.918 55.5552   3
  -6   4  11 517.640 72.9360   3
  -6  -4  10 2355.08 106.990   3
  -6   4  10 2234.30 130.849   3
  -6  -4   9 3415.11 129.244   3
  -6   4   9 3581.10 157.612   3
  -6  -4   8 2855.85 118.093   3
  -6   4   8 2820.29 139.475   3
  -6  -4   7 1535.34 89.7773   3
  -6   4   7 1610.11 108.262   3
  -6  -4   6 1133.34 77.8178   3
  -6   4   6 1149.33 96.6420   3
  -6  -4   5 85.6179 37.4175   3
  -6   4   5 119.876 47.9885   3
  -6  -4   4 4050.05 144.076   3
  -6   4   4 4598.95 172.377   3
   6   4  -3 1103.93 91.6687   2
  -6   4   3 1141.23 93.1366   3
   6   4  -2 24782.2 383.197   2
  -6   4   2 24625.8 381.920   3
   6  -4  -2 23807.3 304.849   1
   6  -4  -1 1182.41 69.5094   1
  -6   4   1 1244.33 98.5724   3
   6   4  -1 1156.80 93.7570   2
   6   4   0 36.6649 49.5350   2
   6  -4   0 32.5889 27.5912   1
  -6   4   0 104.373 42.2307   3
   6   4   1 1638.30 108.443   2
  -6   4  -1 1571.39 104.584   3
  -6   4  -2 9051.82 240.183   3
   6   4   2 8787.24 242.337   2
   6   4   3 385.653 68.7436   2
   6  -4   4 524.804 66.7334   2
   6   4   4 498.458 73.1354   2
   6  -4   5 533.638 67.3113   2
   6   4   5 704.256 84.8846   2
  -6   4  -5 698.340 54.9398   1
   6   4   6 14133.9 320.315   2
  -6   4  -6 13647.6 215.543   1
   6  -4   6 13947.4 292.996   2
  -6   4  -7 3774.92 115.158   1
   6   4   7 3952.45 178.395   2
   6  -4   7 3650.88 155.005   2
   6   4   8 5893.75 219.207   2
  -6   4  -8 6468.35 151.339   1
   6  -4   8 6356.71 203.901   2
   6   4   9 5649.07 218.552   2
  -6   4  -9 5562.59 143.800   1
   6  -4   9 5476.35 190.402   2
   6   4  10 102.442 62.1287   2
   6  -4  10 78.8107 49.3222   2
   6   4  11 72.1396 57.3126   2
   6  -4  11 34.0514 42.2896   2
   6   4  12 6740.11 247.918   2
   6  -4  12 6289.04 214.409   2
   6   4  13 1149.36 117.189   2
   6  -4  13 1167.85 101.837   2
   6   4  14 3620.56 193.553   2
   6  -4  14 3825.41 175.337   2
   6   4  15 36.1241 58.8112   2
   6  -4  15 94.4767 54.1602   2
   6   4  16 702.845 100.853   2
   6  -4  16 765.591 92.6971   2
   6   4  17 353.749 80.0473   2
   6  -4  17 429.398 73.4634   2
   6   4  18 456.362 89.4601   2
   6  -4  18 492.693 76.7712   2
   6   4  19 96.6067 64.2494   2
   6  -4  19 8.80865 48.1065   2
   6  -4  20 3303.17 179.106   2
   6   4  20 3248.93 201.451   2
   6   4  21 147.084 76.3527   2
   6  -4  21 76.7978 52.8340   2
   6   4  22 60.5922 64.2396   2
   6  -4  22 139.697 64.5821   2
   6   4  23 65.9813 70.2578   2
   6   4  24 3474.75 225.312   2
   6   4  25 138.509 75.4941   2
  -6   5  29-88.7683 66.6628   2
  -6   5  28 656.839 111.654   2
  -6   5  27 215.455 86.0171   2
  -6   5  26-140.253 81.6938   2
  -6  -5  25 3.07323 47.7498   2
  -6   5  25 170.595 79.3475   2
  -6  -5  24 1367.05 114.942   2
  -6   5  24 1115.74 128.717   2
  -6  -5  23 326.429 66.2549   2
  -6   5  23 293.826 85.3605   2
  -6  -5  22 166.043 52.0293   2
  -6   5  22 251.486 76.3121   2
  -6   5  21 936.744 117.077   2
  -6  -5  21 1060.68 96.7178   2
  -6   5  20 90.5040 62.9492   2
  -6   5  20 17.1322 55.7336   3
  -6   5  19 94.3222 60.3216   3
  -6   5  19-74.0250 59.5051   2
  -6   5  18 1559.43 126.304   3
  -6  -5  18 1779.39 101.372   3
  -6   5  17 3474.94 179.118   3
  -6  -5  17 3310.07 131.924   3
  -6  -5  16 4906.88 157.469   3
  -6   5  16 4967.20 210.655   3
  -6  -5  15 2615.45 114.262   3
  -6   5  15 2616.99 155.266   3
  -6  -5  14 82.3010 33.5677   3
  -6   5  14 19.0463 50.0826   3
  -6  -5  13 1246.16 80.2654   3
  -6   5  13 1290.24 109.715   3
  -6  -5  12 18588.2 287.226   3
  -6   5  12 18936.4 375.427   3
  -6  -5  11 21.8146 31.4837   3
  -6   5  11 27.3707 47.8525   3
  -6  -5  10 7076.48 177.575   3
  -6   5  10 6984.30 223.145   3
  -6  -5   9 864.910 67.8840   3
  -6   5   9 1051.25 94.7933   3
  -6  -5   8 2854.87 116.053   3
  -6   5   8 3035.15 149.545   3
  -6  -5   7 55.5898 31.9172   3
  -6   5   7 112.433 49.8989   3
  -6  -5   6 6873.06 179.790   3
  -6   5   6 7163.80 216.761   3
  -6  -5   5 4112.33 141.030   3
  -6   5   5 4033.98 163.315   3
   6   5  -4 293.198 56.1948   2
  -6   5   4 217.659 56.5979   3
   6   5  -3 1154.47 92.9678   2
  -6   5   3 1141.51 95.3403   3
   6  -5  -3 1185.78 76.6702   1
  -6   5   2 3571.25 155.229   3
   6  -5  -2 3771.48 128.458   1
   6   5  -2 3762.65 154.228   2
   6  -5  -1 2928.20 110.423   1
  -6   5   1 3143.96 144.461   3
   6   5  -1 2858.76 138.228   2
   6  -5   0 9867.26 198.271   1
  -6   5   0 9530.16 245.792   3
   6   5   0 9551.21 248.121   2
  -6   5  -1 1326.99 100.109   3
   6   5   1 1361.87 102.085   2
  -6   5  -2 330.248 59.3155   3
   6   5   2 334.008 64.7194   2
  -6   5  -3 1780.27 112.935   3
   6   5   3 1672.93 114.282   2
  -6   5  -4 375.294 58.5666   3
   6   5   4 354.780 62.2634   2
   6  -5   5 984.286 85.1413   2
   6   5   5 915.386 89.9687   2
  -6   5  -5 902.175 67.0564   1
   6  -5   6 8362.43 227.626   2
   6   5   6 8071.79 249.529   2
  -6   5  -6 8317.17 179.650   1
  -6   5  -7 189.588 41.8241   1
   6  -5   7 131.704 47.5937   2
   6   5   7 86.7564 49.5956   2
   6   5   8 952.107 101.678   2
  -6   5  -8 850.116 64.7021   1
   6  -5   8 870.773 83.7906   2
  -6   5  -9 46.9320 31.8193   1
   6  -5   9 93.4236 47.5796   2
   6   5   9 100.698 59.7684   2
   6   5  10 18767.5 406.317   2
   6  -5  10 18336.3 347.503   2
   6   5  11 260.302 72.4865   2
   6  -5  11 220.114 54.1148   2
   6   5  12 1468.25 124.751   2
   6  -5  12 1580.40 112.166   2
   6   5  13 4725.67 218.892   2
   6  -5  13 4852.51 188.134   2
   6   5  14 499.529 84.3306   2
   6  -5  14 515.639 69.1020   2
   6   5  15 55.0041 68.6867   2
   6  -5  15-15.1647 42.1945   2
   6  -5  16 15066.4 343.664   2
   6   5  16 14291.6 390.717   2
   6   5  17 1231.01 132.001   2
   6  -5  17 1466.87 116.323   2
   6  -5  18 2915.26 160.702   2
   6   5  18 2972.98 189.471   2
   6   5  19 293.249 82.0380   2
   6  -5  19 401.672 72.1707   2
   6  -5  20 3118.11 173.735   2
   6   5  20 3400.48 208.997   2
   6   5  21-40.9611 68.6476   2
   6  -5  21-25.0108 45.7737   2
   6   5  22 1385.70 145.721   2
   6   5  23 259.248 76.9708   2
   6   5  24 676.956 109.573   2
  -6   6  28 204.659 86.8373   2
  -6   6  27 2154.24 180.222   2
  -6   6  26-41.3286 69.1752   2
  -6   6  25-30.1038 62.2852   2
  -6  -6  24-18.9844 41.2764   2
  -6   6  24 4.39269 57.2597   2
  -6  -6  23 552.584 78.0755   2
  -6   6  23 631.378 99.8026   2
  -6  -6  22-16.8138 38.8571   2
  -6   6  22 135.881 68.7100   2
  -6   6  21 859.346 114.502   2
  -6  -6  21 752.494 82.4757   2
  -6   6  20 470.385 90.7020   2
  -6   6  20 333.249 76.8408   3
  -6   6  19 974.000 109.872   3
  -6   6  19 1212.00 130.263   2
  -6  -6  18 875.538 69.3545   3
  -6   6  18 986.835 110.874   3
  -6   6  18 773.570 103.028   2
  -6   6  17 212.048 67.1200   3
  -6  -6  17 248.527 44.7649   3
  -6  -6  16 1273.67 81.2146   3
  -6   6  16 1239.35 115.146   3
  -6  -6  15 9280.25 202.393   3
  -6   6  15 8936.65 278.879   3
  -6  -6  14 2701.29 109.552   3
  -6   6  14 2515.70 153.168   3
  -6  -6  13 5102.65 148.525   3
  -6   6  13 5274.52 210.454   3
  -6  -6  12 1225.87 77.2249   3
  -6   6  12 1099.35 102.442   3
  -6  -6  11 101.078 32.7063   3
  -6   6  11 161.116 60.7439   3
  -6   6  10 695.775 81.2190   3
  -6  -6  10 593.495 55.9973   3
  -6  -6   9 642.189 56.9635   3
  -6   6   9 690.485 85.8655   3
  -6  -6   8 5023.50 149.540   3
  -6   6   8 5311.88 197.991   3
  -6  -6   7 288.226 44.5740   3
  -6   6   7 254.360 59.6984   3
  -6  -6   6 72.8836 34.8831   3
  -6   6   6 119.811 55.2329   3
  -6  -6   5 6808.67 179.297   3
  -6   6   5 7383.09 223.346   3
   6   6  -4 6550.58 199.622   2
  -6   6   4 6652.84 212.928   3
   6   6  -3 1011.77 86.8628   2
  -6   6   3 1097.69 93.6850   3
   6  -6  -2 2137.02 102.387   1
  -6   6   2 2181.67 124.624   3
   6   6  -2 2237.43 122.167   2
  -6   6   1 3052.52 143.906   3
   6  -6  -1 3061.51 118.785   1
   6   6  -1 2943.81 138.810   2
  -6   6   0 4469.59 169.218   3
   6   6   0 4280.35 171.294   2
   6  -6   0 4536.48 140.114   1
  -6   6  -1 5873.95 195.765   3
   6   6   1 5926.29 198.553   2
  -6   6  -2 7372.02 219.769   3
   6   6   2 6947.71 221.553   2
  -6   6  -3 351.715 61.1913   3
   6   6   3 447.475 69.8355   2
   6   6   4 2112.69 130.802   2
  -6   6  -4 2159.55 102.258   1
  -6   6  -4 2329.89 130.238   3
  -6   6  -5 442.080 53.7667   1
  -6   6  -5 452.865 69.3125   3
   6   6   5 560.003 75.9500   2
   6   6   6 5534.40 212.129   2
  -6   6  -6 5715.14 159.085   1
   6   6   7 12015.9 311.274   2
   6  -6   7 11833.7 268.614   2
  -6   6  -7 11394.1 229.209   1
   6  -6   8 2337.77 122.965   2
   6   6   8 2350.24 151.757   2
  -6   6  -8 2373.64 105.687   1
   6  -6   9 6989.06 212.563   2
   6   6   9 6949.29 246.801   2
  -6   6  -9 6844.93 180.204   1
   6  -6  10 110.154 49.8963   2
   6   6  10 98.9266 59.1346   2
  -6   6 -10 64.8934 35.4868   1
   6   6  11 3328.39 183.111   2
   6  -6  11 3321.30 151.075   2
   6   6  12 3804.53 197.138   2
   6  -6  12 4156.69 170.387   2
   6   6  13 5632.01 238.252   2
   6  -6  13 5579.73 198.211   2
   6  -6  14 2728.62 144.290   2
   6   6  14 2662.38 170.900   2
   6  -6  15 2711.09 144.611   2
   6   6  15 2964.34 183.328   2
   6   6  16 113.465 67.6549   2
   6  -6  16-63.5484 43.8901   2
   6   6  17 645.884 102.920   2
   6  -6  17 685.612 79.7195   2
   6   6  18-18.2629 64.4731   2
   6  -6  18 177.142 58.5416   2
   6   6  19 1074.49 125.740   2
   6  -6  19 898.588 94.1562   2
   6   6  20 1309.02 138.106   2
   6  -6  20 1326.20 114.861   2
   6   6  21-103.137 67.7696   2
   6   6  22 0.83569 62.3260   2
   6   6  23 856.943 122.432   2
   6   6  24 341.930 95.0756   2
  -6   7  27 377.908 99.2735   2
  -6   7  26 604.430 113.029   2
  -6   7  25 195.350 79.1011   2
  -6   7  24 83.3712 69.2290   2
  -6   7  23 4387.86 239.796   2
  -6  -7  23 4198.98 184.381   2
  -6  -7  22 51.4851 39.7482   2
  -6   7  22 79.4510 64.6420   2
  -6  -7  21 1266.14 102.398   2
  -6   7  21 1318.52 137.635   2
  -6   7  20 1748.17 142.053   3
  -6   7  20 1812.64 153.805   2
  -6   7  19 1738.12 140.546   3
  -6   7  19 1946.92 149.922   2
  -6   7  18 2201.91 155.554   3
  -6   7  18 2019.90 153.600   2
  -6  -7  17 812.301 64.1040   3
  -6   7  17 925.895 109.634   3
  -6  -7  16 1113.53 71.6112   3
  -6   7  16 990.270 108.005   3
  -6  -7  15 2379.95 100.801   3
  -6   7  15 2408.66 153.520   3
  -6  -7  14 33.1520 29.2583   3
  -6   7  14 52.9507 52.2436   3
  -6  -7  13 824.334 61.3357   3
  -6   7  13 750.900 92.5527   3
  -6  -7  12 59.9277 30.2355   3
  -6   7  12 96.5737 55.3315   3
  -6  -7  11 7263.06 167.773   3
  -6   7  11 7235.44 241.576   3
  -6  -7  10 937.340 65.7954   3
  -6   7  10 933.552 94.8649   3
  -6  -7   9 10.7836 26.9300   3
  -6   7   9 20.6685 47.0495   3
  -6  -7   8 9004.19 193.967   3
  -6   7   8 9252.61 263.885   3
  -6  -7   7 3309.93 120.846   3
  -6   7   7 3461.01 160.538   3
  -6  -7   6 6206.04 164.944   3
  -6   7   6 6243.00 210.908   3
   6   7  -5 7901.03 217.618   2
  -6   7   5 8115.01 238.437   3
   6   7  -4 6807.90 204.500   2
  -6   7   4 7059.26 221.800   3
  -6   7   3 2552.71 135.104   3
   6   7  -3 2523.26 130.008   2
  -6   7   2 1073.31 93.8110   3
   6   7  -2 1111.15 93.2294   2
  -6   7   1 17862.0 342.221   3
   6   7  -1 17428.5 337.196   2
  -6   7   0 1664.86 110.315   3
   6   7   0 1683.02 113.727   2
  -6   7  -1 842.583 85.5878   3
   6   7   1 855.578 87.0751   2
   6   7   2 168.747 19.2140   1
  -6   7  -2 182.410 51.9106   3
   6   7   2 91.2972 45.5522   2
  -6   7  -3 50.0978 46.1903   3
   6   7   3 40.9039 50.3794   2
  -6   7  -4 93.6350 43.0962   1
  -6   7  -4 115.725 49.5409   3
   6   7   4 73.9260 54.5937   2
   6   7   5 8145.26 252.268   2
  -6   7  -5 8236.64 241.472   3
  -6   7  -5 8086.95 199.415   1
  -6   7  -6 6794.59 185.014   1
   6   7   6 7181.06 241.509   2
  -6   7  -6 7420.92 229.112   3
   6   7   7 660.337 90.7658   2
  -6   7  -7 595.219 63.7592   1
  -6   7  -7 523.313 74.5230   3
   6   7   8 2668.21 161.464   2
   6  -7   8 2969.91 136.247   2
  -6   7  -8 2614.62 118.604   1
   6   7   9 6955.22 250.844   2
   6  -7   9 7009.81 208.834   2
  -6   7  -9 6616.15 187.751   1
   6   7  10 1172.20 112.437   2
   6  -7  10 1272.66 97.2462   2
  -6   7 -10 1204.95 91.1712   1
   6  -7  11 8857.12 238.960   2
   6   7  11 8686.64 288.075   2
   6  -7  12 1624.79 107.775   2
   6   7  12 1911.21 145.422   2
   6   7  13 519.089 91.5674   2
   6  -7  13 625.597 74.9292   2
   6  -7  14 106.421 47.6872   2
   6   7  14 53.8154 56.0121   2
   6  -7  15 4.23881 40.7311   2
   6   7  15-29.8631 66.9100   2
   6   7  16 229.871 65.7611   2
   6  -7  16 153.255 51.8490   2
   6  -7  17 3378.84 162.406   2
   6   7  17 3249.00 199.387   2
   6   7  18 585.169 99.2947   2
   6  -7  18 325.339 60.1875   2
   6   7  19 128.267 71.1965   2
   6  -7  19 18.5050 39.2192   2
   6   7  20-122.501 76.9344   2
   6   7  21 2507.82 191.489   2
   6   7  22 10.2924 64.2868   2
   6   7  23 2813.73 205.483   2
  -6   8  27 102.011 63.9272   2
  -6   8  26 2059.70 185.669   2
  -6   8  25 640.695 114.688   2
  -6   8  24 233.113 82.2969   2
  -6   8  23 64.7518 69.2357   2
  -6   8  22 2270.35 175.570   2
  -6  -8  21 3934.07 168.741   2
  -6   8  21 3781.34 219.184   2
  -6   8  20 70.4276 71.3531   2
  -6   8  20 141.825 70.7607   3
  -6   8  19-40.4744 62.5198   2
  -6   8  19 28.6430 57.5592   3
  -6   8  18 2978.78 180.970   3
  -6   8  18 3066.01 192.122   2
  -6   8  17-35.6316 54.4593   3
  -6  -8  17 13.7523 23.4217   3
  -6   8  17 67.0107 61.4945   2
  -6   8  16 3312.13 185.979   3
  -6  -8  16 3550.20 115.660   3
  -6  -8  15 625.236 52.9587   3
  -6   8  15 671.112 93.9809   3
  -6  -8  14 5652.72 142.137   3
  -6   8  14 5430.57 226.121   3
  -6  -8  13 3813.53 117.703   3
  -6   8  13 4021.50 191.304   3
  -6  -8  12 89.7032 30.1778   3
  -6   8  12 87.5657 59.9833   3
  -6  -8  11 655.054 54.8661   3
  -6   8  11 549.454 78.9773   3
  -6  -8  10 939.804 62.5053   3
  -6   8  10 956.964 98.8430   3
  -6  -8   9 1630.90 83.3491   3
  -6   8   9 1449.25 117.134   3
  -6  -8   8 1369.86 77.3303   3
  -6   8   8 1372.81 108.745   3
  -6  -8   7 899.639 65.4806   3
  -6   8   7 1027.24 98.1136   3
  -6  -8   6 909.924 66.8114   3
  -6   8   6 1004.00 97.5345   3
   6   8  -5 290.843 56.8879   2
  -6   8   5 180.183 52.7622   3
   6   8  -4 2423.60 123.601   2
  -6   8   4 2274.47 133.382   3
  -6   8   3 3214.89 152.163   3
   6   8  -3 3084.12 142.033   2
  -6   8   2 99.7798 54.7297   3
   6   8  -2 9.19759 45.7153   2
  -6   8   1 2173.31 127.320   3
   6   8  -1 2043.09 123.770   2
   6   8   0 370.514 66.4950   2
  -6   8   0 443.054 70.8910   3
  -6   8  -1 5267.62 190.135   3
   6   8   1 5076.66 188.694   2
   6   8   2 1052.07 96.1639   2
   6   8   2 1134.70 47.1037   1
  -6   8  -2 1088.37 96.2712   3
   6   8   3 2131.88 130.889   2
  -6   8  -3 1929.19 119.573   3
  -6   8  -3 2053.27 112.209   1
  -6   8  -4 33.8146 41.6793   1
  -6   8  -4 54.0033 48.1607   3
   6   8   4 14.5648 48.8095   2
   6   8   5 99.8218 57.7938   2
  -6   8  -5 108.000 50.7925   3
  -6   8  -5 99.7521 41.8385   1
  -6   8  -6 1078.49 84.6408   1
   6   8   6 1128.53 108.222   2
  -6   8  -6 978.562 88.5660   3
   6   8   7 530.293 83.1763   2
  -6   8  -7 571.849 68.4368   1
  -6   8  -7 473.334 72.2422   3
  -6   8  -8-18.4379 43.9571   1
   6   8   8 27.4101 55.1569   2
  -6   8  -8-17.6961 47.4107   3
   6   8   9 2855.14 165.668   2
  -6   8  -9 2979.97 134.310   1
  -6   8 -10 328.431 56.3778   1
   6   8  10 367.858 76.3234   2
   6  -8  10 340.756 55.9185   2
   6   8  11 140.580 64.2212   2
   6  -8  11 224.010 50.4766   2
   6  -8  12 975.473 83.1473   2
   6   8  12 1103.85 118.988   2
   6  -8  13 4152.21 164.959   2
   6   8  13 3873.36 207.153   2
   6   8  14 2820.91 182.644   2
   6  -8  14 3086.70 143.989   2
   6   8  15 17.0711 62.8264   2
   6  -8  15-13.2647 41.4332   2
   6   8  16 607.041 103.406   2
   6  -8  16 610.350 74.3497   2
   6   8  17 1336.91 136.311   2
   6  -8  17 1297.93 103.191   2
   6   8  18 21.8181 58.9618   2
   6   8  19 96.9347 67.1572   2
   6   8  20 1217.94 137.279   2
   6   8  21 2033.29 176.501   2
   6   8  22 1868.55 173.079   2
   6   8  23-88.1835 83.0866   2
  -6   9  26 1294.71 148.818   2
  -6   9  25 64.8720 75.8839   2
  -6   9  24 2532.54 194.496   2
  -6   9  23 112.102 76.1378   2
  -6   9  22 57.3337 59.6141   2
  -6   9  21 262.930 90.3770   2
  -6   9  20 10394.7 341.705   3
  -6   9  20 10426.7 350.348   2
  -6   9  19 2249.62 165.310   3
  -6   9  19 2541.42 179.036   2
  -6   9  18 4757.56 229.313   3
  -6   9  18 4271.99 226.243   2
  -6   9  17-16.8778 55.9338   3
  -6   9  17-33.1406 61.2031   2
  -6   9  16 202.521 73.5032   3
  -6  -9  16 162.597 31.4619   3
  -6   9  16 146.406 75.1445   2
  -6  -9  15 1168.21 63.1327   3
  -6   9  15 1253.67 121.588   3
  -6  -9  14 5978.76 136.624   3
  -6   9  14 5850.37 242.262   3
  -6  -9  13 428.628 41.0021   3
  -6   9  13 436.165 79.6102   3
  -6  -9  12 5814.82 137.404   3
  -6   9  12 5806.20 229.058   3
  -6  -9  11 1458.67 72.7074   3
  -6   9  11 1448.82 120.275   3
  -6  -9  10 246.861 36.0097   3
  -6   9  10 179.043 57.0854   3
  -6  -9   9 64.6129 28.4262   3
  -6   9   9 65.0336 57.4594   3
  -6  -9   8 365.454 43.8381   3
  -6   9   8 242.170 63.5928   3
  -6  -9   7 291.206 42.0245   3
  -6   9   7 389.094 77.0690   3
  -6   9   6 721.192 86.6773   3
   6   9  -5 1284.34 93.4729   2
  -6   9   5 1403.08 109.286   3
   6   9  -4 415.762 63.1530   2
  -6   9   4 491.171 74.0872   3
   6   9  -3 361.241 63.7289   2
  -6   9   3 295.399 59.0222   3
  -6   9   2 5173.13 194.761   3
   6   9  -2 5068.18 181.758   2
   6   9  -1 4012.75 166.801   2
  -6   9   1 3917.34 170.365   3
  -6   9   0 68.9622 49.1591   3
   6   9   0 2.24907 43.7636   2
   6   9   1 1246.86 103.665   2
  -6   9  -1 1060.45 93.2117   3
   6   9   2 913.729 93.5603   2
  -6   9  -2 1085.69 95.1574   3
   6   9   2 935.349 48.2109   1
   6   9   3 1720.04 121.291   2
  -6   9  -3 1682.30 113.766   3
  -6   9  -3 1676.95 104.896   1
   6   9   3 1718.46 59.1841   1
   6   9   4 1303.11 110.017   2
  -6   9  -4 1473.44 108.465   3
  -6   9  -4 1316.12 95.8480   1
   6   9   5 349.245 72.4200   2
  -6   9  -5 253.711 53.6011   1
  -6   9  -5 292.896 62.4617   3
   6   9   6 87.7135 53.5638   2
  -6   9  -6 31.2336 40.2226   3
  -6   9  -6 35.6910 40.8483   1
   6   9   7 333.402 75.4360   2
  -6   9  -7 218.526 56.8999   1
  -6   9  -7 201.915 55.3412   3
  -6   9  -8 548.473 68.0197   1
   6   9   8 629.378 92.9240   2
  -6   9  -8 673.046 79.3959   3
   6   9   9 5086.41 224.063   2
  -6   9  -9 5397.38 184.993   1
  -6   9  -9 5453.15 203.537   3
  -6   9 -10 5191.87 200.869   3
  -6   9 -10 4980.97 180.565   1
   6   9  10 5326.15 230.714   2
   6   9  11 104.526 63.8243   2
  -6   9 -11 38.5341 46.9550   3
  -6   9 -11-38.1186 49.2843   1
   6   9  12 4852.15 231.550   2
   6  -9  13 3286.71 144.054   2
   6   9  13 3086.05 188.636   2
   6   9  14 45.2523 64.2644   2
   6  -9  14 86.9882 44.4388   2
   6   9  15 838.357 113.104   2
   6  -9  15 804.474 79.5143   2
   6   9  16 483.656 92.9696   2
   6  -9  16 372.977 63.3802   2
   6   9  17 342.614 95.1459   2
   6   9  18 713.723 113.161   2
   6   9  19 270.637 88.3301   2
   6   9  20-129.327 76.5334   2
   6   9  21 258.088 92.3511   2
   6   9  22 1031.41 135.065   2
  -6  10  26 2935.28 222.459   2
  -6  10  25 414.437 103.396   2
  -6  10  24 258.446 91.5057   2
  -6  10  23 1431.96 159.309   2
  -6  10  22 817.646 118.959   2
  -6  10  21 1760.16 167.404   2
  -6  10  20 148.417 76.8895   2
  -6  10  19 14.7485 57.6540   2
  -6  10  19 77.6147 65.7141   3
  -6  10  18 1315.16 131.988   3
  -6  10  18 1375.00 134.850   2
  -6  10  17 417.825 88.3063   2
  -6  10  17 118.516 67.2465   3
  -6  10  16 9058.19 310.590   3
  -6  10  16 8611.09 315.248   2
  -6  10  15 5702.40 244.788   3
  -6 -10  14 315.812 33.9673   3
  -6  10  14 219.154 70.8175   3
  -6 -10  13 148.583 27.3158   3
  -6  10  13 166.786 64.9216   3
  -6 -10  12 305.113 34.5966   3
  -6  10  12 221.884 68.6378   3
  -6 -10  11 2984.05 96.3511   3
  -6  10  11 2722.28 163.355   3
  -6 -10  10 1015.71 59.6933   3
  -6  10  10 1207.50 113.038   3
  -6 -10   9 3071.76 103.897   3
  -6  10   9 2868.84 160.348   3
  -6 -10   8 3593.92 115.528   3
  -6  10   8 3581.11 179.442   3
  -6 -10   7 1521.10 80.9002   3
  -6  10   7 1447.44 120.089   3
   6  10  -6 273.010 55.2544   2
  -6  10   6 211.247 65.1884   3
   6  10  -5 143.758 47.6207   2
  -6  10   5 258.916 65.9329   3
   6  10  -4 507.375 66.7824   2
  -6  10   4 507.006 77.4225   3
  -6  10   3 9782.52 272.698   3
   6  10  -3 9622.29 250.266   2
  -6  10   2 1052.70 99.2193   3
   6  10  -2 840.812 87.1349   2
  -6  10   1 171.922 54.7144   3
   6  10  -1 129.042 55.0826   2
   6  10   0 1171.44 96.3362   2
  -6  10   0 1147.44 96.3796   3
  -6  10  -1 82.7676 50.0872   3
   6  10   1-38.8021 46.6905   2
   6  10   2 51.8280 49.3345   2
   6  10   2 50.6899 22.7393   1
  -6  10  -2 11.7702 42.8125   3
   6  10   3 2049.15 132.901   2
  -6  10  -3 1973.98 124.552   3
  -6  10  -3 2155.28 123.888   1
   6  10   3 2271.39 75.6808   1
  -6  10  -4 145.832 49.2611   1
   6  10   4 70.6725 53.0440   2
  -6  10  -4 26.4806 42.0878   3
   6  10   5 953.744 100.657   2
  -6  10  -5 1004.18 93.6439   3
  -6  10  -5 987.207 88.5198   1
   6  10   6 252.774 65.7448   2
  -6  10  -6 333.755 61.8267   3
  -6  10  -6 334.610 62.9723   1
   6  10   7 310.608 69.9571   2
  -6  10  -7 366.378 64.7863   1
  -6  10  -7 351.449 60.2139   3
   6  10   8-40.0976 60.9450   2
  -6  10  -8-2.31219 46.3287   3
  -6  10  -8 7.74870 45.2538   1
   6  10   9 419.423 85.2353   2
  -6  10  -9 317.928 66.7298   3
  -6  10  -9 210.099 53.8427   1
   6  10  10 1009.20 115.227   2
  -6  10 -10 1172.48 100.949   3
  -6  10 -10 1124.52 94.4655   1
   6  10  11 141.782 63.5893   2
  -6  10 -11 195.839 47.3620   3
  -6  10 -11 161.346 46.0536   1
   6  10  12 1101.33 121.928   2
  -6  10 -12 1043.87 99.9655   3
  -6  10 -13 3841.26 183.524   3
   6  10  13 3981.17 215.398   2
   6  10  14 2373.19 176.524   2
   6  10  15 4011.38 224.832   2
   6  10  16 1316.09 139.966   2
   6  10  17 88.4260 73.4129   2
   6  10  18 373.601 95.6910   2
   6  10  19 553.990 107.357   2
   6  10  20 817.092 125.104   2
   6  10  21 874.697 119.660   2
  -6  11  25 3480.92 238.655   2
  -6  11  24 816.999 124.562   2
  -6  11  23 381.902 95.3371   2
  -6  11  22 1120.07 139.257   2
  -6  11  21 3290.80 212.103   2
  -6  11  20 309.484 89.2189   2
  -6  11  19 4690.76 237.565   3
  -6  11  19 4739.91 246.345   2
  -6  11  18 147.989 74.3348   2
  -6  11  18 195.469 79.1979   3
  -6  11  17 2026.84 158.373   3
  -6  11  17 2269.77 171.372   2
  -6  11  16 328.294 79.8118   2
  -6  11  16 318.518 85.0580   3
  -6  11  15 31.2923 63.2986   3
  -6  11  15 61.6993 64.8456   2
  -6  11  14 532.666 91.9589   3
  -6 -11  13 9423.21 147.035   3
  -6  11  13 9124.74 305.896   3
  -6 -11  12 827.101 48.6329   3
  -6  11  12 852.937 100.278   3
  -6 -11  11 2777.97 87.4499   3
  -6  11  11 2988.00 172.473   3
  -6 -11  10 639.605 46.6715   3
  -6  11  10 597.962 85.3366   3
  -6 -11   9 1867.85 79.6633   3
  -6  11   9 1717.43 127.928   3
  -6 -11   8 1214.88 67.8059   3
  -6  11   8 1204.32 114.167   3
  -6 -11   7 509.197 50.7697   3
  -6  11   7 605.029 87.0902   3
   6  11  -6 89.8699 39.4220   2
  -6  11   6 155.557 62.7800   3
   6  11  -5 10.8533 38.0272   2
  -6  11   5 20.6470 47.2053   3
   6  11  -4 196.921 48.9458   2
  -6  11   4 217.359 63.6652   3
  -6  11   3 443.546 76.3820   3
   6  11  -3 377.977 65.0771   2
  -6  11   2 796.609 89.0326   3
   6  11  -2 749.778 82.5473   2
   6  11  -1 6939.76 222.763   2
  -6  11   1 7306.14 237.968   3
  -6  11   0 163.887 56.2950   3
   6  11   0 118.267 51.8151   2
   6  11   1 2248.03 134.673   2
  -6  11  -1 2357.40 138.791   3
   6  11   1 2467.52 94.8551   1
   6  11   2 100.343 54.9677   2
  -6  11  -2 73.3749 55.3365   3
  -6  11  -2 142.122 57.3424   1
   6  11   2 33.8995 25.8187   1
   6  11   3 1831.03 131.083   2
  -6  11  -3 2035.57 128.894   3
  -6  11  -3 2153.45 128.477   1
   6  11   3 2085.72 80.1992   1
   6  11   4 1285.54 115.066   2
  -6  11  -4 1497.10 109.595   3
  -6  11  -4 1501.03 110.370   1
   6  11   5 1671.67 129.959   2
  -6  11  -5 1622.24 116.106   3
  -6  11  -5 1803.69 118.736   1
   6  11   6 620.752 83.8449   2
  -6  11  -6 705.585 83.7959   3
  -6  11  -6 691.414 83.1830   1
   6  11   7 781.265 97.6766   2
  -6  11  -7 733.691 79.7242   1
  -6  11  -7 798.249 83.7983   3
   6  11   8 1360.57 122.768   2
  -6  11  -8 1420.52 110.633   3
  -6  11  -8 1454.92 110.851   1
  -6  11  -9 1515.19 112.211   3
  -6  11  -9 1495.89 111.190   1
   6  11   9 1621.42 135.322   2
  -6  11 -10 884.174 90.5814   1
   6  11  10 913.813 110.670   2
  -6  11 -10 837.810 86.8961   3
  -6  11 -11 4173.41 182.499   3
  -6  11 -11 4075.39 179.306   1
   6  11  11 4190.55 215.211   2
   6  11  12 35.7789 60.6336   2
  -6  11 -12 14.9170 43.7925   3
  -6  11 -12-24.8065 52.2557   1
   6  11  13 331.893 83.2206   2
  -6  11 -13 243.497 60.4219   3
   6  11  14-62.3682 66.1653   2
  -6  11 -14-7.90908 46.0221   3
  -6  11 -15 1677.83 126.895   3
   6  11  15 1648.78 153.205   2
   6  11  16 529.462 103.578   2
  -6  11 -16 392.225 69.6669   3
   6  11  17 1094.87 129.223   2
  -6  11 -17 1263.49 113.315   3
   6  11  18 973.743 127.389   2
   6  11  19 451.493 94.4158   2
   6  11  20 30.3115 68.4926   2
   6  11  21 469.950 104.579   2
  -6  12  24 322.333 103.840   2
  -6  12  23 792.520 129.313   2
  -6  12  22 78.5228 73.5257   2
  -6  12  21 4009.06 235.564   2
  -6  12  20 234.102 81.4347   2
  -6  12  19 168.688 82.1161   2
  -6  12  19 95.3678 72.6346   3
  -6  12  18 526.962 98.3692   2
  -6  12  18 371.467 92.1063   3
  -6  12  17 3176.35 196.710   3
  -6  12  17 3036.96 198.460   2
  -6  12  16 2655.86 180.636   3
  -6  12  16 2830.99 185.091   2
  -6  12  15 141.251 70.2120   2
  -6  12  15 232.110 75.2068   3
  -6  12  14 3752.53 205.078   3
  -6  12  14 3837.55 203.316   2
  -6  12  13 61.0521 64.1314   3
  -6  12  12 2674.14 170.914   3
  -6 -12  11-1.52111 16.9729   3
  -6  12  11 79.6641 56.2838   3
  -6 -12  10 188.126 29.2273   3
  -6  12  10 111.452 54.4287   3
  -6 -12   9 3994.27 110.470   3
  -6  12   9 4103.28 198.606   3
  -6 -12   8 1894.88 81.9247   3
  -6  12   8 1658.65 129.410   3
  -6 -12   7 2701.27 102.626   3
  -6  12   7 2805.20 164.311   3
   6  12  -6 177.895 48.8895   2
  -6  12   6 172.749 61.1557   3
  -6  12   5 4027.73 185.862   3
   6  12  -5 3944.54 158.490   2
   6  12  -4 110.039 46.8744   2
  -6  12   4 69.0527 52.2182   3
  -6  12   3 173.079 63.5434   3
   6  12  -3 167.107 53.1269   2
   6  12  -2 1856.41 118.086   2
  -6  12   2 1888.78 127.586   3
  -6  12   1 340.412 69.3499   3
   6  12  -1 451.196 68.2717   2
  -6  12   0 871.072 90.9692   3
   6  12   0 859.072 89.1517   2
   6  12   1 96.2912 31.0378   1
   6  12   1 30.1903 47.1013   2
  -6  12  -1 69.7109 45.8091   3
  -6  12  -2 1088.33 100.529   3
   6  12   2 1269.06 72.4642   1
   6  12   2 1253.77 110.298   2
  -6  12  -2 1214.10 107.140   1
  -6  12  -3 123.840 56.3968   1
   6  12   3 60.0261 32.0132   1
   6  12   3 68.2868 56.5362   2
  -6  12  -3 1.63715 42.6949   3
  -6  12  -4 456.037 74.0763   1
   6  12   4 679.567 88.8551   2
  -6  12  -4 516.700 71.7576   3
   6  12   5 21.1831 52.4633   2
  -6  12  -5 38.0574 43.1814   3
   6  12   6 504.768 85.4017   2
  -6  12  -6 354.457 66.1627   3
  -6  12  -6 492.581 76.2325   1
   6  12   7 1275.98 123.529   2
  -6  12  -7 1315.91 110.495   1
  -6  12  -7 1419.74 108.424   3
   6  12   8 5335.45 235.728   2
  -6  12  -8 5412.94 205.290   3
  -6  12  -8 5228.41 206.176   1
  -6  12  -9 2392.44 140.795   3
  -6  12  -9 2209.36 139.132   1
   6  12   9 2281.65 163.704   2
  -6  12 -10 2190.02 137.745   1
  -6  12 -10 1913.95 124.995   3
   6  12  10 2180.76 161.967   2
   6  12  11-46.8239 55.6268   2
  -6  12 -11-10.4701 44.6127   3
  -6  12 -11-64.8664 57.3938   1
   6  12  12 1111.84 126.733   2
  -6  12 -12 1024.35 101.725   1
  -6  12 -12 1097.62 102.643   3
  -6  12 -13 3113.46 162.362   3
   6  12  13 3024.86 198.053   2
   6  12  14 514.936 101.141   2
  -6  12 -14 304.414 63.7652   3
  -6  12 -15 2266.39 143.531   3
   6  12  15 2263.98 173.617   2
   6  12  16 702.576 110.743   2
  -6  12 -16 678.442 85.1990   3
   6  12  17 75.5817 69.1791   2
  -6  12 -17-14.6960 47.0989   3
   6  12  18 1397.89 152.597   2
  -6  12 -18 1197.97 111.398   3
   6  12  19 2127.37 183.809   2
   6  12  20-47.4683 65.4821   2
  -6  13  23 1725.38 177.250   2
  -6  13  22 209.622 84.8689   2
  -6  13  21 991.308 133.872   2
  -6  13  20 669.602 115.876   2
  -6  13  19 2292.77 179.832   2
  -6  13  18 4423.74 239.134   2
  -6  13  18 4143.79 229.277   3
  -6  13  17-36.4302 61.4252   2
  -6  13  17 31.1159 62.0172   3
  -6  13  16 2538.03 180.957   3
  -6  13  16 2588.42 180.007   2
  -6  13  15 59.1041 63.0808   2
  -6  13  15 43.2624 62.3479   3
  -6  13  14 300.052 70.0531   2
  -6  13  14 267.560 77.5350   3
  -6  13  13 3193.64 193.371   3
  -6  13  13 2869.40 191.828   2
  -6  13  12 3727.93 204.564   3
  -6  13  11 485.026 88.8451   3
  -6 -13  10 2118.35 74.2859   3
  -6  13  10 2193.12 153.473   3
  -6 -13   9 1777.10 73.0257   3
  -6  13   9 1812.14 142.480   3
  -6 -13   8 1236.97 66.0703   3
  -6  13   8 1142.75 117.626   3
  -6  13   7 3575.77 184.942   3
   6  13  -6 2460.26 128.686   2
  -6  13   6 2486.25 150.952   3
  -6  13   5 1576.16 123.411   3
   6  13  -5 1339.51 97.4489   2
   6  13  -4 18.1764 42.3590   2
  -6  13   4-59.3797 51.2179   3
  -6  13   3-26.1496 48.7234   3
   6  13  -3 93.1429 50.2789   2
   6  13  -2 7138.43 227.795   2
  -6  13   2 7347.87 248.441   3
   6  13  -1 1734.99 119.441   2
  -6  13   1 1661.18 121.750   3
   6  13   0 7816.77 244.600   2
  -6  13   0 7878.80 251.656   3
   6  13   1 1413.15 83.5894   1
   6  13   1 1307.67 108.238   2
  -6  13  -1 1286.84 106.780   3
   6  13   2 70.1114 51.5069   2
  -6  13  -2-38.9233 50.9812   3
  -6  13  -2 19.6494 60.9458   1
   6  13   2 47.6361 34.4961   1
  -6  13  -3 242.999 67.5960   1
   6  13   3 254.769 41.6388   1
   6  13   3 162.911 60.3321   2
  -6  13  -3 196.862 54.3448   3
  -6  13  -4 595.548 86.5792   1
   6  13   4 574.806 86.5647   2
  -6  13  -4 604.836 76.5429   3
   6  13   5 2587.42 158.352   2
  -6  13  -5 2473.09 140.609   3
  -6  13  -5 2451.16 146.585   1
  -6  13  -6 1965.40 134.176   1
   6  13   6 1840.47 138.845   2
  -6  13  -6 1812.50 125.448   3
   6  13   7 2437.05 160.766   2
  -6  13  -7 2527.31 147.953   1
  -6  13  -7 2273.97 136.730   3
   6  13   8 485.417 91.1140   2
  -6  13  -8 535.760 72.4213   3
  -6  13  -8 374.389 70.2464   1
  -6  13  -9 100.634 57.1706   1
   6  13   9 60.2306 69.0944   2
  -6  13  -9 132.748 50.3826   3
  -6  13 -10 14605.6 336.876   3
   6  13  10 14684.7 399.727   2
  -6  13 -10 13486.8 341.280   1
  -6  13 -11 26.1279 48.0987   1
   6  13  11 32.4245 56.2602   2
  -6  13 -11 104.233 53.2980   3
  -6  13 -12 5061.85 204.964   3
  -6  13 -12 5029.24 214.429   1
   6  13  12 5032.23 248.277   2
   6  13  13 394.810 86.2840   2
  -6  13 -13 329.067 65.2777   3
  -6  13 -13 341.295 70.7578   1
   6  13  14 156.752 73.1735   2
  -6  13 -14 109.155 47.8895   3
   6  13  15 6.05105 66.0326   2
  -6  13 -15-11.1185 42.0428   3
  -6  13 -16 1776.40 129.606   3
   6  13  16 1785.60 161.556   2
   6  13  17 89.5325 70.8266   2
   6  13  18-25.8159 68.5022   2
   6  13  19-48.5073 80.1502   2
  -6  14  22 1264.26 155.974   2
  -6  14  21 120.773 76.0528   2
  -6  14  20 2662.45 206.340   2
  -6  14  19 77.2752 75.0379   2
  -6  14  18 683.826 111.739   2
  -6  14  18 645.383 109.185   3
  -6  14  17 444.270 95.8565   2
  -6  14  17 378.193 94.9238   3
  -6  14  16 3047.08 197.716   3
  -6  14  16 3284.88 202.600   2
  -6  14  15 2043.09 163.167   3
  -6  14  15 2289.37 170.751   2
  -6  14  14 2828.43 188.661   3
  -6  14  14 2824.95 182.578   2
  -6  14  13 977.126 116.635   2
  -6  14  13 1053.61 122.246   3
  -6  14  12 1261.79 129.583   3
  -6  14  12 1063.25 118.626   2
  -6  14  11 395.041 80.1899   3
  -6  14  11 594.904 93.9681   2
  -6  14  10 1068.43 118.284   3
  -6 -14   9 43.7975 19.5811   3
  -6  14   9 3.54220 51.8833   3
  -6 -14   8 463.888 41.6698   3
  -6  14   8 419.063 84.4407   3
  -6  14   7-21.5865 51.6799   3
   6  14  -6 942.092 84.7433   2
  -6  14   6 1052.64 111.185   3
  -6  14   5 1296.47 120.098   3
   6  14  -5 1353.45 100.740   2
  -6  14   4 15559.3 366.596   3
   6  14  -4 15227.3 321.096   2
   6  14  -3 7009.35 220.904   2
  -6  14   3 6761.73 240.987   3
   6  14  -2 2298.96 133.097   2
  -6  14   2 2309.70 144.261   3
   6  14  -1 2035.06 128.704   2
  -6  14   1 2179.33 141.399   3
   6  14   0 772.229 87.0853   2
  -6  14   0 822.492 92.2340   3
   6  14   0 810.857 69.8638   1
   6  14   1 126.034 39.1407   1
   6  14   1 235.887 59.7979   2
  -6  14  -1 144.783 49.8879   3
   6  14   2 2.82362 48.8620   2
  -6  14  -2 40.0858 43.7070   3
   6  14   2 77.7805 33.8165   1
   6  14   3 1767.00 130.316   2
  -6  14  -3 1853.36 126.465   3
  -6  14  -3 1700.47 129.342   1
   6  14   3 1915.07 94.2931   1
   6  14   4 3075.44 173.498   2
  -6  14  -4 2907.70 155.174   3
  -6  14  -4 3101.07 168.578   1
   6  14   5 1100.43 111.109   2
  -6  14  -5 1091.62 109.102   1
  -6  14  -5 1205.64 104.541   3
   6  14   6 9189.55 300.999   2
  -6  14  -6 9154.71 268.489   3
  -6  14  -6 9197.01 282.685   1
   6  14   7 2305.85 161.115   2
  -6  14  -7 2214.91 146.696   1
  -6  14  -7 2318.30 140.293   3
   6  14   8 5700.40 246.479   2
  -6  14  -8 5670.52 211.923   3
  -6  14  -8 5039.08 215.142   1
   6  14   9 50.1268 58.8876   2
  -6  14  -9 173.514 51.0251   3
  -6  14  -9 49.1530 52.5497   1
   6  14  10-15.0597 61.6825   2
  -6  14 -10 81.8192 56.0076   1
  -6  14 -10 20.3495 43.3290   3
  -6  14 -11 1643.81 129.723   1
  -6  14 -11 1705.15 119.642   3
   6  14  11 1598.52 144.643   2
  -6  14 -12 1722.47 134.369   1
  -6  14 -12 2068.32 135.971   3
   6  14  12 1963.94 165.699   2
   6  14  13 1272.94 137.848   2
  -6  14 -13 1446.61 116.257   3
  -6  14 -13 1347.46 123.018   1
  -6  14 -14 3909.83 204.765   1
  -6  14 -14 4234.78 189.531   3
   6  14  14 4014.70 230.246   2
   6  14  15 187.363 70.0280   2
  -6  14 -15 170.767 56.5259   3
   6  14  16 143.827 72.6850   2
   6  14  17-36.5061 68.3672   2
   6  14  18 707.567 121.589   2
  -6  15  22 764.202 130.224   2
  -6  15  21 177.250 81.0450   2
  -6  15  20 330.741 95.1146   2
  -6  15  19 3685.40 240.322   2
  -6  15  18 474.933 109.067   2
  -6  15  17 2389.13 181.762   2
  -6  15  17 2412.80 182.078   3
  -6  15  16 340.634 95.8945   2
  -6  15  16 322.953 82.9781   3
  -6  15  15 2953.77 197.500   3
  -6  15  15 2938.73 196.314   2
  -6  15  14 896.608 113.105   2
  -6  15  14 635.029 102.612   3
  -6  15  13 999.897 118.528   2
  -6  15  13 1193.39 132.209   3
  -6  15  12 191.794 69.5889   2
  -6  15  12 178.461 74.0108   3
  -6  15  11 3160.73 192.050   3
  -6  15  11 2824.84 182.656   2
  -6  15  10 194.539 70.0168   3
  -6  15  10 145.393 67.0582   2
  -6  15   9 452.095 84.1946   3
  -6  15   8 507.293 86.1032   3
   6  15  -7 2253.42 120.824   2
  -6  15   7 2183.51 153.942   3
   6  15  -6 855.731 81.4620   2
  -6  15   6 835.858 102.383   3
  -6  15   5 8418.75 279.207   3
   6  15  -5 8767.08 238.757   2
   6  15  -4 762.667 80.8107   2
  -6  15   4 611.924 88.7318   3
  -6  15   3-5.66747 53.4439   3
   6  15  -3 69.9224 44.8420   2
   6  15  -2 1870.16 123.747   2
  -6  15   2 1623.90 126.573   3
   6  15  -1 9196.39 266.533   2
  -6  15   1 9493.55 286.668   3
   6  15   0 1840.01 125.772   2
   6  15   0 1841.48 106.157   1
  -6  15   0 1849.88 135.188   3
   6  15   1 3862.60 182.526   2
   6  15   1 4068.11 148.320   1
  -6  15  -1 4176.97 187.973   3
   6  15   2 721.091 89.2213   2
  -6  15  -2 952.755 108.296   1
  -6  15  -2 845.985 92.5940   3
   6  15   2 871.230 72.6931   1
   6  15   3 1198.03 113.634   2
  -6  15  -3 897.769 92.7573   3
   6  15   3 1154.01 78.6833   1
  -6  15  -3 934.530 106.423   1
  -6  15  -4 356.539 78.2311   1
   6  15   4 355.760 77.0127   2
  -6  15  -4 254.369 57.5048   3
   6  15   5 1543.55 128.622   2
  -6  15  -5 1586.98 117.306   3
  -6  15  -5 1558.11 124.181   1
   6  15   6 2577.83 168.583   2
  -6  15  -6 2458.73 146.454   3
  -6  15  -6 2724.09 163.758   1
   6  15   7 2374.93 165.724   2
  -6  15  -7 2154.30 149.634   1
  -6  15  -7 2229.25 138.117   3
   6  15   8 251.998 78.9470   2
  -6  15  -8 330.625 71.8447   1
  -6  15  -8 341.274 64.3658   3
  -6  15  -9 1920.74 146.982   1
  -6  15  -9 2271.64 138.352   3
   6  15   9 2200.55 163.883   2
  -6  15 -10 5065.88 204.484   3
  -6  15 -10 5105.18 227.143   1
   6  15  10 4722.46 234.797   2
  -6  15 -11 7543.22 250.004   3
   6  15  11 7113.45 295.721   2
  -6  15 -11 7226.87 268.385   1
   6  15  12 914.446 119.884   2
  -6  15 -12 1046.06 100.389   3
  -6  15 -12 1033.83 113.177   1
   6  15  13 29.1508 70.1380   2
  -6  15 -13-48.7694 62.3645   1
  -6  15 -13 55.8208 44.0722   3
   6  15  14 213.496 78.9887   2
  -6  15 -14 290.306 62.0198   3
  -6  15 -14 332.689 78.5277   1
  -6  15 -15 2941.82 182.596   1
   6  15  15 2810.74 200.628   2
  -6  15 -16 1904.20 151.261   1
   6  15  16 1719.94 162.508   2
   6  15  17 52.9344 77.6802   2
   6  15  18 440.344 110.844   2
  -6  16  21 638.954 116.434   2
  -6  16  20 227.347 94.7108   2
  -6  16  19 423.941 100.806   2
  -6  16  18 1274.15 143.145   2
  -6  16  17 246.376 84.4715   2
  -6  16  17-16.3899 68.4425   3
  -6  16  16 1259.86 135.225   2
  -6  16  16 1019.70 128.050   3
  -6  16  15 1296.52 137.604   2
  -6  16  15 1052.36 127.203   3
  -6  16  14 800.507 119.966   2
  -6  16  14 971.212 123.780   3
  -6  16  13 3239.19 200.574   3
  -6  16  13 3116.15 193.245   2
  -6  16  12 198.012 68.5834   2
  -6  16  12 211.018 79.1251   3
  -6  16  11 1337.11 134.836   3
  -6  16  11 1432.90 132.812   2
  -6  16  10 1543.98 140.344   3
  -6  16  10 1380.85 126.919   2
  -6  16   9 6974.81 274.791   3
  -6  16   9 6136.67 253.745   2
  -6  16   8 74.8848 59.2996   3
  -6  16   8 28.8195 54.8647   2
   6  16  -7 32.1168 36.2238   2
  -6  16   7 51.9877 54.6062   3
   6  16  -6 4.99923 33.7071   2
  -6  16   6 28.2418 51.8823   3
  -6  16   5 3268.45 180.841   3
   6  16  -5 3142.28 147.530   2
  -6  16   4 2318.55 152.459   3
   6  16  -4 2345.36 130.870   2
   6  16  -3 2970.75 151.929   2
  -6  16   3 3103.73 171.195   3
  -6  16   2-3.55092 49.0411   3
   6  16  -2-13.2419 41.4017   2
   6  16  -1-59.6355 46.4365   1
   6  16  -1 87.2115 51.0907   2
  -6  16   1 81.5559 59.9180   3
   6  16   0 435.154 71.6226   2
   6  16   0 366.301 57.2477   1
  -6  16   0 380.163 73.1984   3
   6  16   1 1784.75 128.385   2
   6  16   1 1806.45 106.794   1
  -6  16  -1 1722.25 127.040   3
   6  16   2 842.656 97.2708   2
  -6  16  -2 1012.55 111.520   1
  -6  16  -2 951.277 97.8937   3
   6  16   2 1013.01 80.0667   1
   6  16   3 371.929 73.1517   2
  -6  16  -3 290.557 62.4400   3
  -6  16  -3 423.260 87.3374   1
   6  16   3 402.938 54.9672   1
  -6  16  -4 40.8108 63.9314   1
   6  16   4 72.6019 53.1963   2
  -6  16  -4 126.737 57.3236   3
   6  16   5 547.770 88.1082   2
  -6  16  -5 604.035 97.5038   1
  -6  16  -5 700.574 85.9715   3
   6  16   6 657.125 95.3415   2
  -6  16  -6 679.019 97.1912   1
  -6  16  -6 589.179 79.4940   3
   6  16   7 8328.43 297.317   2
  -6  16  -7 8703.97 294.147   1
  -6  16  -7 8695.48 266.118   3
  -6  16  -8 21.5482 58.0983   1
   6  16   8 98.6966 68.9422   2
  -6  16  -8 78.3295 55.1034   3
  -6  16  -9 4803.88 222.837   1
  -6  16  -9 5376.69 211.184   3
   6  16   9 5198.44 245.424   2
   6  16  10 435.161 93.4661   2
  -6  16 -10 431.382 70.9551   3
  -6  16 -10 370.979 78.6887   1
   6  16  11 329.951 88.3230   2
  -6  16 -11 262.044 72.7116   1
  -6  16 -11 377.841 66.5668   3
   6  16  12 573.929 104.780   2
  -6  16 -12 543.115 77.6138   3
  -6  16 -12 363.735 80.9714   1
  -6  16 -13 4352.79 222.722   1
   6  16  13 4301.35 241.645   2
   6  16  14 372.400 97.8097   2
  -6  16 -14 188.566 72.3842   1
   6  16  15 1274.55 144.838   2
  -6  16 -15 1248.04 129.111   1
   6  16  16-39.6130 64.5774   2
  -6  16 -16 43.9144 59.0949   1
   6  16  17 512.847 112.315   2
  -6  16 -17 379.446 91.5064   1
  -6  17  20 1078.05 139.606   2
  -6  17  19 576.240 120.461   2
  -6  17  18 4277.53 248.363   2
  -6  17  17 660.695 114.156   2
  -6  17  16 15.2970 65.0180   2
  -6  17  16-17.5563 60.3805   3
  -6  17  15-27.5200 65.9116   2
  -6  17  15-48.2133 72.6180   3
  -6  17  14 280.197 82.9732   2
  -6  17  14 318.856 85.9902   3
  -6  17  13 101.506 66.5522   2
  -6  17  13 182.304 62.5622   3
  -6  17  12 866.895 107.105   2
  -6  17  12 998.383 124.443   3
  -6  17  11 3690.90 215.451   3
  -6  17  11 3637.04 201.775   2
  -6  17  10 2540.33 175.662   3
  -6  17  10 2289.72 161.130   2
  -6  17   9 19.0190 57.9688   2
  -6  17   9 77.8633 68.0732   3
  -6  17   8 492.213 81.7383   2
  -6  17   8 551.577 91.9361   3
   6  17  -7 5271.01 183.336   2
  -6  17   7 4798.82 228.707   3
  -6  17   7 4754.28 218.965   2
   6  17  -6 21.0621 40.7789   2
  -6  17   6-40.6454 55.3499   3
  -6  17   6 41.1525 55.7913   2
  -6  17   5 942.264 107.097   3
   6  17  -5 1036.02 92.1357   2
  -6  17   4 4734.12 215.701   3
   6  17  -4 4681.45 184.513   2
  -6  17   3 390.605 72.9632   3
   6  17  -3 428.966 69.8186   2
   6  17  -2 2687.90 149.024   2
  -6  17   2 2638.22 158.808   3
   6  17  -1 2319.02 139.795   2
   6  17  -1 2504.82 134.501   1
  -6  17   1 2554.74 157.518   3
   6  17   0 622.255 72.2722   1
   6  17   0 658.087 85.3238   2
  -6  17   0 542.673 81.2149   3
   6  17   1 259.763 51.5510   1
   6  17   1 224.418 60.9642   2
  -6  17  -1 247.753 61.6445   3
   6  17   2 490.194 63.3688   1
   6  17   2 632.301 90.7397   2
  -6  17  -2 459.191 84.7515   1
  -6  17  -2 518.902 77.8570   3
   6  17   3 22.5161 49.3458   2
  -6  17  -3 97.3047 51.9976   3
  -6  17  -3 91.3193 61.7089   1
   6  17   3 97.1398 42.7139   1
  -6  17  -4 359.557 80.6988   1
   6  17   4 349.152 75.5541   2
  -6  17  -4 355.397 66.1389   3
   6  17   5 3701.61 199.215   2
  -6  17  -5 3739.02 179.166   3
  -6  17  -5 3988.71 208.663   1
   6  17   6 251.487 73.2112   2
  -6  17  -6 466.144 91.2735   1
  -6  17  -6 349.058 72.5977   3
   6  17   7 786.411 108.057   2
  -6  17  -7 986.034 99.3575   3
  -6  17  -7 901.385 111.338   1
   6  17   8 437.432 85.2801   2
  -6  17  -8 381.894 66.7131   3
  -6  17  -8 344.263 76.0826   1
  -6  17  -9 1539.95 139.227   1
  -6  17  -9 1447.02 115.630   3
   6  17   9 1373.37 137.378   2
  -6  17 -10 2061.78 132.370   3
  -6  17 -10 1993.11 158.573   1
   6  17  10 2148.62 174.763   2
   6  17  11 580.959 108.675   2
  -6  17 -11 638.388 82.5238   3
  -6  17 -11 529.404 93.3313   1
  -6  17 -12 2009.84 159.564   1
   6  17  12 2157.84 178.375   2
   6  17  13 5.55892 59.2745   2
  -6  17 -13-10.3529 63.3011   1
   6  17  14 4.78382 66.2378   2
  -6  17 -14-1.54232 70.3983   1
   6  17  15 939.470 134.342   2
  -6  17 -15 835.503 113.922   1
  -6  17 -16 1974.32 161.005   1
   6  17  16 1929.15 178.995   2
  -6  17 -17 2835.33 185.662   1
  -6  17 -18 503.305 92.4219   1
  -6  17 -19-42.7724 64.7845   1
  -6  18  19 874.288 133.219   2
  -6  18  18 1242.52 150.759   2
  -6  18  17 1056.74 152.529   2
  -6  18  16 797.612 130.454   2
  -6  18  15-6.53765 64.2562   2
  -6  18  15 5.07256 65.4212   3
  -6  18  14 882.073 120.692   2
  -6  18  14 731.020 106.609   3
  -6  18  13 33.0702 56.2825   2
  -6  18  13 60.5576 68.0383   3
  -6  18  12 136.100 67.9733   2
  -6  18  12 111.507 69.2735   3
  -6  18  11 82.3495 65.4314   2
  -6  18  11-71.2132 68.3436   3
  -6  18  10 2223.24 167.326   3
  -6  18  10 2157.50 160.754   2
  -6  18   9-5.94725 55.1998   2
  -6  18   9 121.731 69.6451   3
  -6  18   8 369.612 76.7043   2
  -6  18   8 224.600 71.7473   3
   6  18  -7 3540.55 151.145   2
  -6  18   7 3373.14 197.267   3
  -6  18   7 3080.54 178.695   2
   6  18  -6 1145.89 94.3824   2
  -6  18   6 1197.77 121.062   3
  -6  18   6 1116.24 114.494   2
   6  18  -5 224.207 59.6502   2
  -6  18   5 169.898 66.8895   3
  -6  18   5 64.5771 49.6830   2
  -6  18   4 3164.53 182.819   3
   6  18  -4 3185.17 154.564   2
  -6  18   4 3130.93 166.651   2
   6  18  -3 1063.55 101.981   2
  -6  18   3 982.031 105.609   3
  -6  18   3 1111.89 103.365   2
   6  18  -2 1818.73 124.921   2
  -6  18   2 1962.00 142.684   3
   6  18  -2 1871.68 122.553   1
   6  18  -1 159.547 58.5625   2
  -6  18   1 233.149 63.0312   3
   6  18  -1 237.860 55.9694   1
   6  18   0 2728.26 156.278   2
   6  18   0 2428.21 135.584   1
  -6  18   0 2931.00 166.630   3
   6  18   1 122.925 59.3622   2
  -6  18  -1 130.701 58.5922   3
   6  18   1 243.677 52.1189   1
   6  18   2 819.542 98.5174   2
  -6  18  -2 898.259 97.6347   3
   6  18   2 949.955 86.8932   1
   6  18   3 1032.10 86.2930   1
  -6  18  -3 940.739 99.1825   3
   6  18   3 962.106 106.280   2
  -6  18  -3 907.082 115.479   1
  -6  18  -4-12.0743 58.8972   1
   6  18   4 10.0995 51.8111   2
  -6  18  -4 22.1046 44.8710   3
  -6  18  -5 569.047 97.6497   1
   6  18   5 523.290 91.7361   2
  -6  18  -5 352.694 66.4980   3
   6  18   6 31.1975 54.1376   2
  -6  18  -6 55.5350 63.8736   1
  -6  18  -6 36.2752 51.1900   3
   6  18   7 1202.20 128.681   2
  -6  18  -7 1336.30 114.247   3
  -6  18  -7 1348.30 136.855   1
   6  18   8 1835.68 154.377   2
  -6  18  -8 2051.18 158.597   1
  -6  18  -8 2097.24 135.868   3
  -6  18  -9 200.223 76.4646   1
   6  18   9 200.709 73.3751   2
  -6  18  -9 160.703 52.4742   3
   6  18  10 128.099 73.8310   2
  -6  18 -10 271.281 86.1897   1
   6  18  11 125.827 71.2000   2
  -6  18 -11 30.2977 60.8535   1
  -6  18 -12 1380.63 139.877   1
   6  18  12 1362.62 147.312   2
   6  18  13 655.029 119.156   2
  -6  18 -13 332.991 82.9613   1
  -6  18 -14 1565.61 145.737   1
   6  18  14 1692.91 168.131   2
   6  18  15 246.849 93.0533   2
  -6  18 -15 30.8489 58.5586   1
  -6  18 -16 972.797 119.829   1
  -6  18 -17 1272.81 131.479   1
  -6  18 -18 72.2461 68.9389   1
  -6  19  18 304.904 90.5984   2
  -6  19  17 67.0824 71.7701   2
  -6  19  16 211.979 85.5325   2
  -6  19  15 258.113 83.5575   2
  -6  19  14-47.2790 70.1078   2
  -6  19  14-56.1499 68.6376   3
  -6  19  13 196.218 76.7569   2
  -6  19  13 70.3456 62.1578   3
  -6  19  12 1884.35 159.887   2
  -6  19  12 1993.75 166.870   3
  -6  19  11 837.137 107.045   2
  -6  19  11 753.952 109.511   3
  -6  19  10-53.0962 58.8298   2
  -6  19  10 8.60590 60.6018   3
  -6  19   9 63.0326 52.2048   2
  -6  19   9 58.1193 60.1156   3
  -6  19   8 254.981 67.8900   2
  -6  19   8 300.275 76.5743   3
  -6  19   7 137.885 60.8100   2
  -6  19   7 182.855 73.3575   3
   6  19  -6 1903.99 116.154   2
  -6  19   6 1769.91 146.372   3
  -6  19   6 1839.64 143.084   2
  -6  19   5 827.391 97.3328   2
   6  19  -5 767.279 79.8782   2
  -6  19   5 611.356 95.8477   3
  -6  19   4 14.4474 46.6010   2
  -6  19   4-71.0015 61.1759   3
   6  19  -4 36.8357 37.9536   2
   6  19  -3 2175.22 137.612   2
  -6  19   3 2211.13 154.633   3
  -6  19   3 1875.63 140.600   2
   6  19  -2 1337.12 109.243   1
   6  19  -2 1257.60 111.935   2
  -6  19   2 1246.03 119.597   3
  -6  19   2 1111.11 108.354   2
   6  19  -1 35.7219 45.2519   1
   6  19  -1 15.0108 46.2208   2
  -6  19   1 49.9171 50.6143   3
  -6  19   1 44.8703 45.5215   2
   6  19   0 87.7625 47.7901   1
   6  19   0 177.850 58.0357   2
  -6  19   0 60.7699 53.8037   3
  -6  19   0 92.7358 45.8687   2
   6  19   1 97.8807 53.3584   2
   6  19   1 165.471 50.6158   1
  -6  19  -1 191.581 57.0934   3
  -6  19  -1 169.676 51.4494   2
   6  19   2 179.003 57.0869   1
   6  19   2 102.622 53.7960   2
  -6  19  -2 180.340 61.2921   3
   6  19   3-34.8529 56.1767   2
   6  19   3 57.5093 43.1823   1
  -6  19  -3 9.68366 62.7397   1
  -6  19  -3-28.3778 52.9961   3
   6  19   4 621.628 93.1781   2
  -6  19  -4 463.704 75.8210   3
  -6  19  -4 520.118 101.535   1
  -6  19  -5 40.1351 71.9607   1
   6  19   5 18.8811 51.2276   2
  -6  19  -5 20.1177 45.3262   3
   6  19   6 485.235 91.7424   2
  -6  19  -6 598.693 104.862   1
  -6  19  -6 445.425 76.3043   3
   6  19   7-48.7082 66.6809   2
  -6  19  -7 152.830 73.0320   1
  -6  19  -7 129.821 51.9612   3
   6  19   8 299.817 77.1635   2
  -6  19  -8 282.861 61.7522   3
  -6  19  -8 423.193 92.1816   1
   6  19   9-64.2345 69.0441   2
  -6  19  -9 60.8526 62.7453   1
  -6  19 -10 266.048 82.0250   1
   6  19  10 523.737 102.494   2
  -6  19 -11 2609.48 187.774   1
   6  19  11 2523.95 192.534   2
   6  19  12 1069.37 135.539   2
  -6  19 -12 851.029 119.070   1
   6  19  13 1052.38 139.291   2
  -6  19 -13 818.303 118.277   1
   6  19  14 11.5010 67.3293   2
  -6  19 -14-14.9793 65.6005   1
  -6  19 -15-55.4888 67.1102   1
  -6  19 -16 501.149 94.7928   1
  -6  20  17 788.556 128.253   2
  -6  20  16 129.778 65.5942   2
  -6  20  15 4267.06 251.110   2
  -6  20  14 56.6836 68.4081   2
  -6  20  13-84.6311 72.2960   2
  -6  20  13 125.647 77.5246   3
  -6  20  12 555.736 98.0140   2
  -6  20  12 590.502 106.595   3
  -6  20  11 2991.90 198.813   2
  -6  20  11 3677.95 221.192   3
  -6  20  10 914.877 115.372   2
  -6  20  10 950.594 124.266   3
  -6  20   9-16.0136 60.4078   2
  -6  20   9-6.51389 57.1263   3
  -6  20   8-53.1390 51.9462   2
  -6  20   8 60.4874 57.2458   3
  -6  20   7 106.995 54.2024   2
  -6  20   7 96.6747 74.2099   3
  -6  20   6 64.1528 52.1869   2
  -6  20   6-42.2529 64.4983   3
  -6  20   5 153.614 58.7966   2
  -6  20   5 60.4858 62.2204   3
  -6  20   4 50.4484 51.3139   2
  -6  20   4 14.5407 52.6019   3
   6  20  -4-29.2290 44.2062   2
   6  20  -3 5167.97 202.476   2
  -6  20   3 5552.22 247.309   3
   6  20  -3 5478.06 220.814   1
  -6  20   3 5223.31 216.750   2
  -6  20   2 335.729 66.3284   2
   6  20  -2 323.180 65.0710   1
   6  20  -2 394.492 72.4115   2
  -6  20   2 266.385 73.5009   3
  -6  20   1-6.22808 41.7313   2
   6  20  -1 1.59124 47.0126   2
   6  20  -1-40.2189 47.2110   1
  -6  20   1 21.0484 50.3563   3
  -6  20   0 4.18794 41.6451   2
   6  20   0-50.2587 56.0921   2
  -6  20   0-19.0313 54.0019   3
   6  20   0 30.5338 46.8695   1
   6  20   1 104.239 51.3720   1
   6  20   1-42.2623 53.7239   2
  -6  20  -1 105.587 52.2527   3
   6  20   2 113.435 50.3064   1
   6  20   2-61.1880 55.5658   2
  -6  20  -2-9.61643 46.9308   3
   6  20   3 1427.45 128.306   2
  -6  20  -3 1437.54 146.828   1
  -6  20  -3 1126.10 110.823   3
   6  20   4 177.262 68.7484   2
  -6  20  -4 124.490 57.2091   3
  -6  20  -4 242.726 85.8450   1
  -6  20  -5 78.3671 72.2839   1
   6  20   5 217.616 74.4261   2
  -6  20  -5 188.601 58.9661   3
   6  20   6 219.850 73.0296   2
  -6  20  -6 195.103 78.4803   1
  -6  20  -6 352.615 66.5482   3
   6  20   7 1124.66 133.867   2
  -6  20  -7 1159.11 130.362   1
   6  20   8 1.41804 60.9773   2
  -6  20  -8 27.1388 66.2596   1
   6  20   9 708.151 113.872   2
  -6  20  -9 693.939 110.337   1
   6  20  10 283.759 79.0988   2
  -6  20 -10 401.657 89.3394   1
   6  20  11 42.1384 68.9246   2
  -6  20 -11 176.708 75.6736   1
   6  20  12 128.630 78.9896   2
  -6  20 -12 8.57287 66.5140   1
   6  20  13 1096.48 141.945   2
  -6  20 -13 1244.90 142.783   1
  -6  20 -14 68.1354 64.5366   1
  -6  21  16 119.909 82.5617   2
  -6  21  15 549.940 113.282   2
  -6  21  14 1065.43 132.033   2
  -6  21  13 875.006 123.395   2
  -6  21  12 1097.09 128.659   2
  -6  21  12 1524.45 154.896   3
  -6  21  11 332.412 83.6717   2
  -6  21  11 299.687 82.6754   3
  -6  21  10 98.7370 63.2195   2
  -6  21  10 268.834 86.5371   3
  -6  21   9 556.945 105.608   2
  -6  21   9 482.453 97.1143   3
  -6  21   8 62.4761 57.3907   2
  -6  21   8 190.769 75.6735   3
  -6  21   7 1959.26 152.167   2
  -6  21   7 2073.58 168.667   3
  -6  21   6 45.7403 48.7757   2
  -6  21   6 61.7728 62.9207   3
  -6  21   5 120.011 57.3699   2
  -6  21   5 67.4993 55.8161   3
  -6  21   4 19.7710 49.7816   2
   6  21  -4-37.5156 62.0125   1
  -6  21   4 38.7549 59.9786   3
  -6  21   3 1428.57 119.676   2
   6  21  -3 1372.45 121.382   1
  -6  21   3 1477.77 136.959   3
  -6  21   2 2940.81 160.669   2
   6  21  -2 2946.31 162.202   2
   6  21  -2 3000.09 170.026   1
  -6  21   2 2854.29 180.735   3
   6  21  -1 124.745 55.7834   1
   6  21  -1 5.85549 42.8264   2
  -6  21   1 65.5833 51.2788   3
   6  21   0 395.720 73.5760   2
   6  21   0 365.577 71.0462   1
  -6  21   0 461.390 82.7208   3
   6  21   1 294.050 68.7693   1
   6  21   1 316.045 70.7419   2
  -6  21  -1 406.100 74.5377   3
   6  21   2 1264.75 121.720   2
  -6  21  -2 1319.55 120.802   3
   6  21   3 280.238 70.5570   2
  -6  21  -3 170.578 79.1522   1
  -6  21  -3 296.261 78.4264   3
   6  21   4 420.865 83.7946   2
  -6  21  -4 534.324 83.3817   3
  -6  21  -4 432.186 97.0622   1
  -6  21  -5 90.2688 70.0995   1
   6  21   5 132.590 63.9591   2
  -6  21  -5-9.66286 47.4206   3
  -6  21  -6 183.995 88.5039   1
   6  21   6 59.2849 60.3978   2
   6  21   7-35.5769 62.1697   2
  -6  21  -7 12.2646 63.7015   1
   6  21   8 591.842 104.374   2
  -6  21  -8 545.998 106.327   1
   6  21   9 626.327 108.776   2
  -6  21  -9 329.094 90.1470   1
   6  21  10 576.639 107.172   2
  -6  21 -10 640.615 110.692   1
  -6  21 -11 3270.18 212.652   1
   6  21  11 2991.65 211.153   2
   6  21  12 417.347 95.9289   2
  -6  21 -12 343.493 91.8004   1
  -6  22  15 442.609 101.796   2
  -6  22  14 5257.91 269.433   2
  -6  22  13 199.050 80.1328   2
  -6  22  12 158.948 76.4974   2
  -6  22  11-61.9757 63.9644   2
  -6  22  11 179.633 82.0173   3
  -6  22  10 725.176 114.054   2
  -6  22  10 757.364 114.899   3
  -6  22   9 56.3297 60.7538   2
  -6  22   9-3.73661 60.3111   3
  -6  22   8 364.419 82.1648   2
  -6  22   8 435.333 91.6231   3
  -6  22   7 123.913 66.1643   2
  -6  22   7 203.081 79.3850   3
  -6  22   6 577.749 89.2334   2
  -6  22   6 699.975 106.326   3
  -6  22   5 502.897 95.3849   2
   6  22  -5 550.146 90.4829   1
  -6  22   5 837.113 113.701   3
  -6  22   4 3365.69 181.164   2
   6  22  -4 3367.76 191.470   1
  -6  22   4 3384.49 203.730   3
   6  22  -3 112.138 58.0471   1
  -6  22   3 45.4976 54.3437   3
   6  22  -2 990.694 108.434   1
  -6  22   2 903.465 110.898   3
  -6  22   1 192.250 66.9044   3
   6  22  -1 178.958 65.8990   1
   6  22   0 508.204 81.2703   2
  -6  22   0 411.809 76.3783   3
   6  22   1 29.0552 49.0295   2
  -6  22  -1 74.5317 60.7659   3
   6  22   2 1260.97 120.313   2
  -6  22  -2 1166.55 117.038   3
   6  22   3 78.9318 54.8141   2
  -6  22  -3 92.5472 52.0053   3
  -6  22  -4 491.052 103.304   1
   6  22   4 576.980 93.1718   2
   6  22   5 660.581 99.6321   2
  -6  22  -5 606.259 112.343   1
  -6  22  -6 56.8077 66.6620   1
   6  22   6 104.059 63.0036   2
  -6  22  -7 884.153 125.649   1
   6  22   7 845.619 115.072   2
   6  22   8 4211.34 237.776   2
  -6  22  -8 4364.85 250.569   1
   6  22   9 963.835 125.706   2
  -6  22  -9 1113.73 140.523   1
   6  22  10 285.556 79.9497   2
   6  22  11 2.46159 63.0734   2
  -6  23  13 35.4505 67.6160   2
  -6  23  12 1264.26 137.557   2
  -6  23  11 1157.41 131.128   2
  -6  23  10 918.101 120.903   2
  -6  23  10 1244.29 142.013   3
  -6  23   9 96.4292 64.8736   2
  -6  23   9 24.2969 63.9727   3
  -6  23   8 802.152 102.941   2
  -6  23   8 787.126 121.672   3
  -6  23   7 2162.56 159.443   2
  -6  23   7 2110.26 169.584   3
  -6  23   6 2328.50 163.671   2
   6  23  -6 2236.59 166.004   1
  -6  23   6 2371.06 177.142   3
   6  23  -5 202.924 74.7558   1
  -6  23   5-75.2883 60.4410   3
   6  23  -4 71.9852 66.7945   1
  -6  23   4-50.6718 59.5069   3
   6  23  -3 11.1397 54.4806   1
  -6  23   3 21.9862 53.5205   3
   6  23  -2 2009.89 151.008   1
  -6  23   2 1893.69 154.001   3
  -6  23   1 149.835 63.2576   3
  -6  23   0 2413.80 163.467   3
  -6  23  -1 374.684 73.1683   3
   6  23   2-29.8174 48.1910   2
   6  23   3-100.527 57.1822   2
   6  23   4 751.991 104.166   2
  -6  23  -4 809.733 126.450   1
   6  23   5 222.680 71.1980   2
  -6  23  -5 479.425 102.923   1
   6  23   6 220.343 72.5131   2
   6  23   7 33.2585 59.0928   2
   6  23   8 46.4869 65.1850   2
   6  23   9 1515.50 154.308   2
  -6  24  12 1048.61 122.722   2
  -6  24  11 65.2112 60.0672   2
  -6  24  10 745.676 107.985   2
  -6  24   9 2003.55 158.308   2
  -6  24   8 541.710 88.1779   2
  -6  24   8 601.943 105.034   3
   6  24  -7 1148.18 129.205   1
  -6  24   7 1197.06 134.632   3
   6  24  -6 45.0158 61.9667   1
  -6  24   6 99.0848 66.1585   3
   6  24  -5 561.062 89.2038   1
  -6  24   5 723.358 109.928   3
   6  24  -4 1149.28 121.259   1
  -6  24   4 1222.59 128.292   3
   6  24  -3 4385.10 219.109   1
  -6  24   3 4449.65 228.950   3
  -6  24   2 246.561 75.3253   3
  -6  24   1 49.0329 53.1100   3
   6  24   4 24.4985 51.3132   2
   6  24   5 11.5497 51.1435   2
   6  24   6 267.946 78.7829   2
   6  24   7 601.200 99.2533   2
   6  24   8 978.320 123.303   2
   6  25  -8-89.7667 70.0820   1
   6  25  -7 1125.45 125.398   1
   6  25  -6 44.3844 61.2804   1
  -6  25   6-46.1773 54.4886   3
   6  25  -5 1582.60 141.869   1
  -6  25   5 1555.36 146.798   3
  -6  25   4 24.9458 54.1600   3
  -6  25   3-23.1015 52.7145   3
  -7   0  29 15.3496 59.6617   2
  -7   0  28 7145.93 298.928   2
  -7   0  27-90.6233 56.6874   2
  -7   0  26 1702.89 152.489   2
  -7   0  25-48.8609 68.9561   2
  -7   0  24 354.068 80.0789   2
  -7   0  23-2.82041 58.7988   2
  -7   0  22 344.654 70.2485   3
  -7   0  21 58.0109 49.3974   3
  -7   0  20-31.3867 45.1828   3
  -7   0  19-142.008 60.2434   3
  -7   0  18 2240.54 136.528   3
  -7   0  17 6.12678 49.3780   3
  -7   0  16 13180.9 310.794   3
  -7   0  15-84.0077 51.3447   3
  -7   0  14 6101.83 207.754   3
  -7   0  13 27.0399 43.9406   3
  -7   0  12 667.854 79.9596   3
  -7   0  11 7.07675 51.5587   3
  -7   0  10 87.5929 42.5065   3
  -7   0   9-34.3307 45.5055   3
  -7   0   8 11356.7 267.694   3
  -7   0   7 31.5959 39.5569   3
  -7   0   6 2779.11 136.386   3
  -7   0   5-8.97447 48.3187   3
  -7   0   4 11686.1 272.454   3
  -7   0   3-23.0392 43.6355   3
  -7   0   2 805.536 82.4488   3
  -7   0   1-50.3534 49.3531   3
   7   0   0 4979.01 191.810   2
   7   0   0 5026.94 110.682   1
   7   0   1 11.1888 45.4730   2
   7   0   1-27.8163 20.9073   1
   7   0   2 43247.4 549.668   2
   7   0   3 38.5942 48.9907   2
   7   0   4 942.056 93.0812   2
   7   0   5-4.36629 46.6135   2
   7   0   6 1639.10 121.485   2
   7   0   7 19.0905 49.8038   2
   7   0   8 78.8197 53.9756   2
   7   0   9 24.3638 46.2400   2
   7   0  10 495.649 80.5595   2
   7   0  11-80.1010 52.5974   2
  -7   0 -11 18.4288 13.0208   1
   7   0  12 4354.80 200.966   2
  -7   0 -12 3807.78 82.9643   1
   7   0  13-53.0119 52.2714   2
   7   0  14 11135.1 324.825   2
   7   0  15-23.4169 58.7579   2
   7   0  16 1311.35 124.161   2
   7   0  17-5.17648 53.7802   2
   7   0  18 42.0199 55.0483   2
   7   0  19-162.834 75.8645   2
   7   0  20 653.927 102.662   2
   7   0  21-28.1774 56.8377   2
   7   0  22 6.64875 56.2484   2
   7   0  23 4.51760 55.9986   2
   7   0  24 4175.00 232.217   2
   7   0  25 30.2564 59.2510   2
  -7   1  30 795.160 113.474   2
  -7  -1  29-60.8886 54.0062   2
  -7   1  29 122.696 69.0900   2
  -7  -1  28 252.157 81.0462   2
  -7   1  28 159.780 71.3475   2
  -7  -1  27 57.3311 62.4455   2
  -7   1  27 380.640 89.6744   2
  -7  -1  26 301.380 77.0067   2
  -7   1  26 166.920 70.0318   2
  -7   1  25 1310.85 135.242   2
  -7  -1  25 1461.57 135.230   2
  -7  -1  24 185.741 68.4656   2
  -7   1  24 290.581 80.7521   2
  -7   1  23 1322.25 132.814   2
  -7  -1  23 1107.17 116.818   2
  -7   1  22 1177.11 113.393   3
  -7   1  22 1284.17 127.735   2
  -7   1  21 1639.06 129.442   3
  -7  -1  21 1751.70 127.956   3
  -7   1  20 330.520 66.9795   3
  -7  -1  20 308.063 60.4972   3
  -7   1  19 676.347 86.6487   3
  -7  -1  19 496.374 72.6362   3
  -7  -1  18 497.469 68.0369   3
  -7   1  18 648.406 83.9245   3
  -7  -1  17 323.941 66.2715   3
  -7   1  17 220.437 64.0863   3
  -7  -1  16 573.736 76.7068   3
  -7   1  16 467.083 80.2048   3
  -7  -1  15 1584.42 109.240   3
  -7   1  15 1600.83 115.284   3
  -7  -1  14 5849.33 202.833   3
  -7   1  14 6306.36 217.285   3
  -7  -1  13 2389.95 131.232   3
  -7   1  13 2367.29 134.570   3
  -7  -1  12 8811.51 239.792   3
  -7   1  12 8502.86 246.539   3
  -7  -1  11 2351.91 128.726   3
  -7   1  11 2391.96 134.532   3
  -7  -1  10 38.9915 42.5076   3
  -7   1  10 66.7666 50.4763   3
  -7  -1   9 151.798 47.6417   3
  -7   1   9 358.879 63.3826   3
  -7  -1   8 145.336 44.8910   3
  -7   1   8 177.893 53.2936   3
  -7  -1   7-23.9185 39.8899   3
  -7   1   7 25.1498 42.4183   3
  -7  -1   6 307.966 52.2530   3
  -7   1   6 361.935 63.1965   3
  -7   1   5-5.84662 49.2507   3
  -7  -1   5-49.6781 45.7713   3
  -7  -1   4 3174.38 143.320   3
  -7   1   4 2832.95 141.799   3
  -7  -1   3 2343.76 126.403   3
  -7   1   3 2363.91 130.486   3
  -7   1   2 12792.8 289.866   3
  -7  -1   2 12442.5 283.984   3
  -7   1   1 29025.0 445.709   3
   7   1  -1 29569.7 450.428   2
   7  -1  -1 28421.0 290.847   1
   7   1   0 5339.17 197.894   2
  -7   1   0 5016.09 190.393   3
   7   1   0 5199.71 105.354   1
   7  -1   0 4962.49 118.440   1
   7   1   1 6.22488 17.4416   1
   7   1   1 90.3173 56.0552   2
   7  -1   1 13.8900 43.4012   2
   7  -1   1 34.3341 21.3199   1
   7   1   2 54.8485 49.4678   2
   7  -1   2 76.7118 48.2146   2
   7  -1   3 7021.20 225.858   2
   7   1   3 6929.35 227.266   2
   7   1   4 2265.09 136.007   2
   7  -1   4 2319.24 135.132   2
   7  -1   5 94.1805 51.2338   2
   7   1   5 55.6064 48.0414   2
   7   1   6 1849.52 126.342   2
   7  -1   6 2107.08 131.662   2
   7   1   7-71.9559 52.3891   2
   7  -1   7-35.5986 45.6044   2
   7   1   8 18.4649 50.8962   2
   7  -1   8 106.344 56.4040   2
   7   1   9-39.1854 54.3562   2
   7  -1   9 42.4342 50.1960   2
   7   1  10 640.714 87.5272   2
  -7   1 -10 699.470 39.8371   1
   7  -1  10 550.021 83.1338   2
   7  -1  11 1071.10 105.569   2
   7   1  11 941.740 100.147   2
  -7   1 -11 959.984 49.3880   1
  -7   1 -12 1652.33 66.1503   1
   7   1  12 1791.48 137.373   2
   7  -1  12 1584.23 125.156   2
  -7   1 -13 116.131 27.4577   1
   7   1  13 86.7902 56.6873   2
   7  -1  13 188.547 61.5827   2
   7   1  14-57.9391 66.6557   2
   7  -1  14 6.80313 50.7347   2
   7   1  15 366.411 87.3509   2
   7  -1  15 389.508 79.8821   2
   7   1  16 3126.55 185.231   2
   7  -1  16 3166.90 184.429   2
   7   1  17 1448.06 132.887   2
   7  -1  17 1343.68 125.455   2
   7   1  18 1397.47 135.266   2
   7  -1  18 1270.92 125.211   2
   7   1  19 243.862 74.8446   2
   7  -1  19 268.750 71.1750   2
   7   1  20 290.367 81.4905   2
   7  -1  20-13.3192 54.7050   2
   7   1  21 132.455 68.6078   2
   7  -1  21 161.458 64.9635   2
   7   1  22 170.697 70.5416   2
   7  -1  22 213.237 70.2969   2
   7   1  23 128.652 69.3920   2
   7  -1  23-1.42784 55.7816   2
   7   1  24 199.226 71.8433   2
   7  -1  24 88.2031 62.9786   2
   7   1  25 3.98011 59.6840   2
  -7   2  29 4866.94 256.273   2
  -7  -2  28 444.790 89.6629   2
  -7   2  28 543.756 102.473   2
  -7  -2  27 1699.09 149.669   2
  -7   2  27 1487.02 147.127   2
  -7  -2  26-44.0872 57.3891   2
  -7   2  26 74.6385 65.5370   2
  -7  -2  25 58.7741 58.2092   2
  -7   2  25 56.8850 71.4249   2
  -7  -2  24 11.5546 61.8854   2
  -7   2  24 184.333 77.8581   2
  -7   2  23 100.976 64.6872   2
  -7  -2  23-2.75791 51.5466   2
  -7   2  22 63.3455 50.6056   3
  -7   2  22 163.930 71.0340   2
  -7   2  21 2310.93 154.981   3
  -7  -2  21 2268.46 135.662   3
  -7   2  20 1527.27 123.920   3
  -7  -2  20 1567.52 112.734   3
  -7   2  19 69.3750 52.6509   3
  -7  -2  19 216.182 54.7485   3
  -7  -2  18 174.507 49.6611   3
  -7   2  18 265.605 66.6395   3
  -7  -2  17 5629.62 198.020   3
  -7   2  17 5620.10 218.690   3
  -7  -2  16 7769.01 229.365   3
  -7   2  16 7525.06 246.035   3
  -7  -2  15 1602.50 108.031   3
  -7   2  15 1638.71 121.223   3
  -7  -2  14 13.2242 42.2206   3
  -7   2  14 109.035 55.5189   3
  -7  -2  13 773.784 79.9766   3
  -7   2  13 770.986 88.5235   3
  -7  -2  12 293.854 57.4624   3
  -7   2  12 272.893 60.2659   3
  -7  -2  11 6740.67 203.160   3
  -7   2  11 6723.52 220.176   3
  -7  -2  10 732.824 73.5472   3
  -7   2  10 843.029 85.9889   3
  -7  -2   9 6138.19 194.093   3
  -7   2   9 6164.63 209.144   3
  -7  -2   8 3906.82 158.505   3
  -7   2   8 4269.48 173.692   3
  -7  -2   7 7899.33 220.903   3
  -7   2   7 8200.87 235.807   3
  -7  -2   6 367.371 58.2150   3
  -7   2   6 394.061 68.0155   3
  -7  -2   5 8224.29 224.578   3
  -7   2   5 7843.97 229.877   3
  -7  -2   4 145.909 46.3382   3
  -7   2   4 144.398 54.6443   3
  -7  -2   3 6366.20 200.153   3
  -7   2   3 5895.77 202.048   3
  -7   2   2 599.354 75.9318   3
   7   2  -1 1390.34 106.670   2
  -7   2   1 1358.36 105.281   3
   7  -2  -1 1459.26 73.1751   1
   7  -2   0 693.205 49.3235   1
  -7   2   0 747.756 82.6070   3
   7   2   0 758.527 88.1752   2
  -7   2  -1 19540.0 370.965   3
   7  -2   1 18667.8 232.484   1
   7   2   1 20160.4 378.280   2
   7   2   2 96.3997 54.5240   2
   7  -2   2 186.968 62.4116   2
   7  -2   3 5688.50 202.860   2
   7   2   3 5557.69 208.019   2
   7  -2   4 178.608 54.6189   2
   7   2   4 105.308 46.3777   2
   7  -2   5 179.937 58.8338   2
   7   2   5 73.9582 46.7981   2
   7  -2   6 234.410 63.7292   2
   7   2   6 151.410 59.3416   2
   7   2   7 7460.10 249.800   2
   7  -2   7 7940.05 246.639   2
   7   2   8 293.730 74.2216   2
   7  -2   8 241.135 64.1382   2
   7   2   9 1233.10 115.456   2
  -7   2  -9 1308.01 59.6502   1
   7  -2   9 1270.59 112.510   2
   7   2  10 1277.51 116.393   2
   7  -2  10 1303.73 111.494   2
  -7   2 -10 1400.18 63.1604   1
   7   2  11 339.750 74.5611   2
   7  -2  11 434.577 75.3582   2
  -7   2 -11 383.892 39.1584   1
  -7   2 -12 917.896 55.7468   1
   7   2  12 916.558 111.051   2
   7  -2  12 818.515 93.7821   2
  -7   2 -13 15151.9 219.285   1
   7   2  13 15426.5 387.170   2
   7  -2  13 15676.5 368.210   2
   7   2  14 1325.81 128.656   2
   7  -2  14 1333.36 119.448   2
   7   2  15 729.739 100.548   2
   7  -2  15 942.384 100.314   2
   7   2  16 84.6734 58.1241   2
   7  -2  16 36.8398 55.8353   2
   7   2  17 131.474 69.6948   2
   7  -2  17 52.2828 50.6991   2
   7   2  18-25.6203 54.5538   2
   7  -2  18 24.0312 49.9290   2
   7   2  19 367.689 81.5895   2
   7  -2  19 302.988 75.3519   2
   7   2  20 129.702 71.1477   2
   7  -2  20 138.560 66.8250   2
   7   2  21 300.370 83.9470   2
   7  -2  21 360.753 82.4283   2
   7  -2  22 984.299 116.793   2
   7   2  22 750.977 112.041   2
   7   2  23 1029.60 127.390   2
   7  -2  23 769.725 100.816   2
   7   2  24-32.1110 67.2039   2
   7  -2  24-20.2497 55.7918   2
  -7   3  29 479.823 106.585   2
  -7   3  28 150.416 75.3751   2
  -7  -3  27 196.260 69.7832   2
  -7   3  27 8.56762 66.2318   2
  -7  -3  26 125.248 63.6732   2
  -7   3  26-24.4580 59.5520   2
  -7  -3  25 1118.05 116.139   2
  -7   3  25 950.216 126.517   2
  -7  -3  24 504.587 84.7345   2
  -7   3  24 660.112 105.176   2
  -7   3  23 999.158 121.316   2
  -7  -3  23 834.407 100.354   2
  -7   3  22 267.009 68.3119   3
  -7   3  22 200.362 69.0481   2
  -7  -3  21 1183.34 99.2618   3
  -7   3  21 1046.53 111.566   3
  -7   3  20 66.2508 58.6154   3
  -7  -3  20 50.1068 40.7586   3
  -7   3  19 191.310 63.7406   3
  -7  -3  19 282.216 56.2788   3
  -7  -3  18 1272.56 98.9923   3
  -7   3  18 1268.03 115.791   3
  -7  -3  17 1315.40 102.321   3
  -7   3  17 1182.81 113.725   3
  -7  -3  16 196.822 52.2814   3
  -7   3  16 98.7288 56.9715   3
  -7  -3  15 227.708 53.1069   3
  -7   3  15 201.756 61.6500   3
  -7  -3  14 6841.62 205.411   3
  -7   3  14 6980.85 237.823   3
  -7  -3  13 4692.87 169.811   3
  -7   3  13 4615.59 193.413   3
  -7  -3  12 3323.08 144.226   3
  -7   3  12 3233.33 159.683   3
  -7  -3  11 2134.41 113.965   3
  -7   3  11 2328.72 137.316   3
  -7  -3  10-22.2935 38.3304   3
  -7   3  10 18.1081 45.7150   3
  -7   3   9 6461.95 216.165   3
  -7  -3   9 6194.67 189.651   3
  -7  -3   8 4136.96 158.287   3
  -7   3   8 4128.38 174.372   3
  -7  -3   7 305.577 53.6445   3
  -7   3   7 326.061 62.2138   3
  -7  -3   6 362.700 57.7763   3
  -7   3   6 524.607 72.2052   3
  -7  -3   5 135.283 44.4211   3
  -7   3   5 151.737 48.0730   3
  -7   3   4 5808.99 203.895   3
  -7  -3   4 5673.22 188.105   3
  -7  -3   3 21140.7 362.721   3
  -7   3   3 21018.0 380.987   3
   7   3  -2 9269.96 258.675   2
  -7   3   2 9702.55 259.294   3
   7  -3  -2 9297.83 193.022   1
   7   3  -1 11959.9 294.494   2
  -7   3   1 12825.0 299.320   3
   7  -3  -1 12512.1 213.772   1
   7   3   0 551.272 79.2881   2
  -7   3   0 685.983 82.8412   3
   7  -3   0 582.958 50.8991   1
  -7   3  -1 2073.68 127.231   3
   7   3   1 1716.82 46.6177   1
   7   3   1 2043.21 130.939   2
   7   3   2 277.392 62.0351   2
  -7   3  -2 145.297 48.4132   3
   7  -3   3 70.4260 47.3110   2
   7   3   3 24.1553 50.6748   2
   7  -3   4 3310.96 157.266   2
   7   3   4 3278.28 164.787   2
   7  -3   5 6403.51 217.446   2
   7   3   5 6256.57 225.810   2
   7   3   6 2249.66 142.764   2
   7  -3   6 2605.50 144.177   2
   7   3   7 2928.20 162.954   2
   7  -3   7 2560.98 142.183   2
   7  -3   8 612.740 80.3668   2
  -7   3  -8 628.795 50.6121   1
   7   3   8 793.102 95.5453   2
   7   3   9 1746.67 130.486   2
  -7   3  -9 1765.53 76.2197   1
   7  -3   9 1763.08 126.710   2
   7   3  10 0.60915 56.6830   2
  -7   3 -10 4.13803 26.6059   1
   7  -3  10 61.5698 53.5495   2
  -7   3 -11 9126.85 176.524   1
   7   3  11 9008.38 296.132   2
   7  -3  11 9257.55 276.440   2
  -7   3 -12 391.550 42.8625   1
   7   3  12 508.843 89.6407   2
   7  -3  12 540.547 83.5334   2
  -7   3 -13 411.508 46.8685   1
   7   3  13 479.305 87.8405   2
   7  -3  13 386.603 74.2944   2
   7   3  14 1822.02 145.700   2
   7  -3  14 1752.28 132.305   2
   7   3  15 4836.18 231.501   2
   7  -3  15 4880.26 214.223   2
   7   3  16 5712.74 253.151   2
   7  -3  16 5553.97 228.664   2
   7   3  17 1505.57 142.845   2
   7  -3  17 1534.76 129.018   2
   7   3  18-33.0014 60.6498   2
   7  -3  18 46.1051 57.7376   2
   7   3  19 63.3196 61.4869   2
   7  -3  19 24.7824 52.6246   2
   7   3  20 114.100 73.9986   2
   7  -3  20 88.3727 57.8089   2
   7   3  21 420.515 94.9046   2
   7  -3  21 301.407 74.3573   2
   7   3  22 30.0054 62.1341   2
   7  -3  22-13.1808 53.9092   2
   7   3  23 393.022 94.8120   2
   7  -3  23 530.475 93.8883   2
   7   3  24-92.9179 65.9134   2
  -7   4  28 2044.07 177.143   2
  -7   4  27 123.471 74.1555   2
  -7   4  26 1297.79 145.240   2
  -7  -4  26 1176.53 117.696   2
  -7  -4  25 138.806 58.9501   2
  -7   4  25 130.414 67.4934   2
  -7  -4  24-22.5721 49.7625   2
  -7   4  24 15.5551 66.0324   2
  -7   4  23 36.2833 55.7119   2
  -7  -4  23 7.64288 50.1806   2
  -7   4  22 94.2179 58.0232   2
  -7   4  22-19.5186 53.3602   3
  -7   4  21 270.348 73.2887   3
  -7   4  21 329.923 87.6294   2
  -7   4  20 1500.68 130.103   3
  -7  -4  20 1043.67 90.6763   3
  -7   4  19 1063.60 115.007   3
  -7  -4  19 1155.82 90.8813   3
  -7  -4  18 1286.76 95.7473   3
  -7   4  18 1437.90 122.675   3
  -7  -4  17 2723.66 132.430   3
  -7   4  17 2657.04 160.360   3
  -7  -4  16 4438.42 165.480   3
  -7   4  16 4420.65 200.601   3
  -7  -4  15 1118.83 88.8930   3
  -7   4  15 1240.43 110.059   3
  -7  -4  14 153.979 43.6908   3
  -7   4  14 155.707 59.8443   3
  -7  -4  13 318.585 56.8944   3
  -7   4  13 370.493 70.2653   3
  -7  -4  12 3183.68 138.117   3
  -7   4  12 3133.43 160.556   3
  -7  -4  11 2341.78 117.549   3
  -7   4  11 1988.36 129.729   3
  -7  -4  10 9338.53 230.459   3
  -7   4  10 9734.83 271.853   3
  -7  -4   9 1206.42 88.3946   3
  -7   4   9 1169.67 100.901   3
  -7  -4   8 1455.94 93.8843   3
  -7   4   8 1423.61 111.678   3
  -7  -4   7 734.628 70.0234   3
  -7   4   7 715.105 81.0814   3
  -7  -4   6 3932.48 152.508   3
  -7   4   6 4168.39 176.133   3
  -7  -4   5 2799.54 131.901   3
  -7   4   5 2650.65 141.541   3
  -7   4   4 6680.45 221.719   3
  -7  -4   4 6571.70 198.061   3
  -7   4   3 328.998 64.7737   3
   7   4  -3 416.221 70.2628   2
   7  -4  -3 448.771 53.0618   1
   7   4  -2 952.072 92.8532   2
  -7   4   2 994.882 93.8465   3
   7  -4  -2 1052.96 71.2870   1
   7  -4  -1 148.014 33.8160   1
   7   4  -1 70.6065 45.5136   2
  -7   4   1 43.9966 45.2527   3
   7  -4   0 8134.26 174.921   1
  -7   4   0 8251.31 245.737   3
   7   4   0 8130.26 243.347   2
  -7   4  -1 7553.59 236.061   3
   7   4   1 7718.32 239.905   2
  -7   4  -2 4970.64 195.194   3
   7   4   2 4825.86 196.524   2
  -7   4  -3 5283.13 200.156   3
   7   4   3 5244.86 202.978   2
   7   4   4 2949.98 159.254   2
   7  -4   5 1447.62 108.944   2
   7   4   5 1326.08 116.189   2
   7  -4   6 5337.19 199.307   2
   7   4   6 5775.68 219.188   2
   7  -4   7 200.915 54.2605   2
   7   4   7 152.650 60.1024   2
   7   4   8 5330.74 220.978   2
  -7   4  -8 5627.91 142.812   1
   7  -4   8 5372.64 203.087   2
   7   4   9 3299.42 179.133   2
  -7   4  -9 3500.88 116.707   1
   7  -4   9 3515.86 168.659   2
   7  -4  10 382.630 69.1298   2
   7   4  10 375.861 83.1805   2
  -7   4 -10 454.518 49.3986   1
   7   4  11 55.4020 64.8013   2
  -7   4 -11 31.9572 31.6644   1
   7  -4  11 178.786 57.6877   2
   7   4  12 4318.31 210.675   2
   7  -4  12 3998.44 187.005   2
  -7   4 -12 3827.43 129.505   1
   7   4  13 2937.87 181.875   2
  -7   4 -13 2874.01 114.161   1
   7  -4  13 2932.83 163.079   2
   7   4  14 11478.2 348.975   2
   7  -4  14 11634.5 314.313   2
   7   4  15 130.332 67.4473   2
   7  -4  15 205.435 66.0884   2
   7   4  16 209.711 76.7283   2
   7  -4  16 205.760 64.5785   2
   7   4  17 102.701 72.9505   2
   7  -4  17 26.1504 48.2804   2
   7   4  18 501.883 97.2704   2
   7  -4  18 553.030 88.4447   2
   7   4  19 106.371 67.4800   2
   7  -4  19 109.447 58.3261   2
   7   4  20 131.542 68.8477   2
   7  -4  20-17.6259 48.3831   2
   7   4  21 1043.04 130.344   2
   7  -4  21 1393.49 126.470   2
   7   4  22-29.7138 73.9617   2
   7  -4  22-14.9778 46.4373   2
   7   4  23 70.9585 70.8452   2
  -7   5  28 645.017 116.773   2
  -7   5  27-8.33314 64.1476   2
  -7   5  26-29.9044 71.1969   2
  -7  -5  25 39.1017 53.9837   2
  -7   5  25 65.7033 69.0567   2
  -7  -5  24 7144.92 260.610   2
  -7   5  24 7325.35 308.288   2
  -7   5  23 857.481 117.308   2
  -7  -5  23 905.609 98.7388   2
  -7   5  22-39.4205 61.4587   2
  -7   5  22 47.0634 55.3808   3
  -7   5  21 10.1141 54.8390   3
  -7   5  21 233.304 77.6837   2
  -7   5  20 546.593 85.5472   3
  -7  -5  20 348.481 56.2428   3
  -7   5  19 383.689 78.1295   3
  -7  -5  19 383.684 57.2426   3
  -7  -5  18 1841.80 108.120   3
  -7   5  18 1830.18 142.079   3
  -7  -5  17 67.7774 33.4878   3
  -7   5  17 62.3528 58.3338   3
  -7  -5  16 15.0680 30.7451   3
  -7   5  16 13.6045 51.0865   3
  -7  -5  15 44.6144 37.5300   3
  -7   5  15 107.641 55.7701   3
  -7  -5  14 17654.6 308.476   3
  -7   5  14 18098.8 391.049   3
  -7  -5  13 93.5132 35.9671   3
  -7   5  13 38.5458 55.6572   3
  -7  -5  12 2120.49 109.790   3
  -7   5  12 2160.97 140.120   3
  -7  -5  11 416.498 56.5866   3
  -7   5  11 327.873 70.6477   3
  -7  -5  10 54.1355 36.5928   3
  -7   5  10-2.81419 49.5491   3
  -7  -5   9 1609.08 98.6303   3
  -7   5   9 1668.65 123.123   3
  -7  -5   8 1809.28 103.691   3
  -7   5   8 1912.42 126.322   3
  -7  -5   7-11.9262 39.3830   3
  -7   5   7 18.5402 48.2811   3
  -7  -5   6 8205.00 216.417   3
  -7   5   6 8812.18 257.767   3
  -7  -5   5 1310.33 92.8570   3
  -7   5   5 1542.93 115.094   3
  -7  -5   4 3473.11 147.064   3
  -7   5   4 3699.32 167.699   3
   7   5  -3 912.941 92.3292   2
  -7   5   3 1045.19 96.7517   3
   7  -5  -2 21427.0 306.500   1
   7   5  -2 22240.6 396.555   2
  -7   5   2 22127.1 399.464   3
  -7   5   1 1307.73 104.253   3
   7  -5  -1 1260.16 77.0503   1
   7   5  -1 1288.85 106.670   2
  -7   5   0 4710.21 189.154   3
   7  -5   0 4914.74 143.530   1
   7   5   0 4913.74 193.614   2
  -7   5  -1 548.546 75.7387   3
   7   5   1 552.864 79.8172   2
  -7   5  -2 2330.22 134.797   3
   7   5   2 2505.11 144.852   2
  -7   5  -3 755.355 84.3055   3
   7   5   3 649.695 89.0553   2
  -7   5  -4 12509.7 311.063   3
   7   5   4 13018.0 322.420   2
   7   5   5 258.339 73.5719   2
   7  -5   6 1960.20 124.945   2
   7   5   6 1771.15 127.525   2
   7  -5   7 2266.03 133.069   2
   7   5   7 2110.05 142.259   2
  -7   5  -7 2237.22 98.0043   1
   7  -5   8 1800.99 119.860   2
   7   5   8 1691.80 133.080   2
  -7   5  -8 1762.96 91.4558   1
   7  -5   9 18.9822 46.8843   2
   7   5   9-99.0310 62.7757   2
  -7   5  -9 29.0470 34.0658   1
  -7   5 -10 10141.9 211.239   1
   7   5  10 10174.2 313.770   2
   7  -5  10 10717.1 285.800   2
   7   5  11 1540.85 133.235   2
  -7   5 -11 1491.28 86.1163   1
   7  -5  11 1463.54 113.715   2
   7  -5  12 452.255 79.0701   2
   7   5  12 357.858 84.6393   2
  -7   5 -12 494.015 56.3717   1
   7  -5  13 580.026 80.1261   2
   7   5  13 497.384 91.8994   2
  -7   5 -13 712.893 65.4434   1
   7   5  14 1523.08 142.421   2
   7  -5  14 1411.22 115.773   2
   7   5  15 661.225 104.432   2
   7  -5  15 733.177 90.1305   2
   7   5  16 2594.49 182.358   2
   7  -5  16 2553.61 153.754   2
   7   5  17 376.746 91.6116   2
   7  -5  17 387.735 74.5875   2
   7   5  18 2573.32 185.075   2
   7  -5  18 2305.48 152.930   2
   7   5  19 67.8552 69.2269   2
   7  -5  19 154.363 57.8607   2
   7   5  20 258.214 80.5751   2
   7  -5  20 247.102 61.0759   2
   7   5  21 84.4894 71.0143   2
   7   5  22 842.889 123.034   2
   7   5  23 303.605 93.1320   2
  -7   6  27 842.047 127.023   2
  -7   6  26 451.164 100.867   2
  -7   6  25 3254.29 218.334   2
  -7  -6  24 276.507 66.4002   2
  -7   6  24 226.847 84.2086   2
  -7  -6  23 2694.16 158.757   2
  -7   6  23 3208.82 206.765   2
  -7   6  22 452.129 94.8794   2
  -7   6  22 276.877 75.8455   3
  -7   6  21 147.298 72.7594   2
  -7   6  21 189.542 72.4081   3
  -7   6  20 605.327 95.4523   3
  -7   6  20 802.194 113.723   2
  -7   6  19 281.791 75.4868   3
  -7  -6  19 260.924 49.8508   3
  -7   6  18 294.054 77.7779   3
  -7  -6  18 236.065 46.4497   3
  -7  -6  17 1238.57 86.2668   3
  -7   6  17 1178.64 115.686   3
  -7  -6  16 1122.42 80.2258   3
  -7   6  16 1072.50 111.618   3
  -7  -6  15 2343.74 113.237   3
  -7   6  15 2377.42 154.492   3
  -7  -6  14 1093.85 81.0112   3
  -7   6  14 1067.35 112.428   3
  -7  -6  13 617.016 64.2043   3
  -7   6  13 549.466 86.9425   3
  -7  -6  12 4930.27 158.737   3
  -7   6  12 5149.27 209.344   3
  -7  -6  11 1449.13 89.0473   3
  -7   6  11 1490.56 117.488   3
  -7  -6  10 8824.19 212.129   3
  -7   6  10 9476.66 279.397   3
  -7  -6   9 1239.78 84.3166   3
  -7   6   9 1375.52 114.357   3
  -7  -6   8 207.084 44.2968   3
  -7   6   8 283.523 69.0698   3
  -7  -6   7 4106.47 149.704   3
  -7   6   7 4062.59 179.787   3
  -7  -6   6 4703.79 164.054   3
  -7   6   6 4795.63 195.422   3
  -7  -6   5 8709.66 221.986   3
  -7   6   5 9027.07 262.678   3
   7   6  -4 3.32135 45.4789   2
  -7   6   4 34.7923 45.9099   3
   7   6  -3 12.7117 46.9492   2
  -7   6   3-19.4781 50.1347   3
   7   6  -2 839.618 87.2266   2
  -7   6   2 912.666 95.0154   3
   7   6  -1 800.604 87.4646   2
  -7   6   1 796.729 92.9382   3
  -7   6   0 1639.96 116.515   3
   7   6   0 1794.34 123.656   2
  -7   6  -1 21270.0 399.950   3
   7   6   1 22030.1 407.579   2
  -7   6  -2 17712.4 366.934   3
   7   6   2 18147.0 374.827   2
  -7   6  -3 6071.09 217.519   3
   7   6   3 5779.20 219.401   2
  -7   6  -4 3024.38 158.498   3
   7   6   4 3136.43 166.725   2
  -7   6  -5 6527.92 228.691   3
   7   6   5 6543.40 239.795   2
  -7   6  -6 4695.66 195.386   3
   7   6   6 4466.03 201.454   2
  -7   6  -6 4251.85 142.328   1
  -7   6  -7 61.3991 39.4975   1
   7   6   7 46.9329 51.8486   2
   7  -6   8 1341.28 105.145   2
   7   6   8 1189.62 117.279   2
  -7   6  -8 1325.82 83.6665   1
  -7   6  -9 2466.31 112.059   1
   7  -6   9 2567.17 141.039   2
   7   6   9 2434.95 160.422   2
   7  -6  10 1538.81 113.380   2
   7   6  10 1614.80 138.109   2
  -7   6 -10 1626.82 95.1286   1
   7  -6  11-44.0826 45.2382   2
   7   6  11 4.10614 58.2781   2
  -7   6 -11-0.52316 36.8349   1
  -7   6 -12 1781.98 101.049   1
   7   6  12 1745.58 144.965   2
   7  -6  12 1803.33 125.460   2
   7   6  13 2823.85 180.167   2
  -7   6 -13 2829.98 127.429   1
   7  -6  13 2787.14 153.279   2
   7   6  14 2441.12 174.957   2
   7  -6  14 2403.11 143.220   2
   7   6  15 1972.10 159.246   2
   7  -6  15 1966.89 131.662   2
   7  -6  16-38.2793 48.3309   2
   7   6  16-2.37114 56.6729   2
   7   6  17 98.6371 70.8497   2
   7  -6  17 86.7419 56.9368   2
   7   6  18 573.825 104.024   2
   7  -6  18 557.767 84.7761   2
   7   6  19 1161.46 136.194   2
   7  -6  19 1425.49 121.762   2
   7   6  20 427.582 98.0466   2
   7   6  21 88.8116 68.4177   2
   7   6  22-181.452 82.9901   2
  -7   7  26 227.547 79.8305   2
  -7   7  25 1504.36 158.751   2
  -7   7  24-36.3633 68.5571   2
  -7  -7  23 2245.67 143.802   2
  -7   7  23 2436.47 185.172   2
  -7   7  22 245.666 83.9657   2
  -7   7  22 255.333 75.9005   3
  -7   7  21 93.3622 71.4285   2
  -7   7  21 129.857 70.3535   3
  -7   7  20 180.435 71.5090   3
  -7   7  20 257.859 80.3012   2
  -7   7  19 1427.15 134.303   3
  -7   7  18-48.0681 62.4834   3
  -7  -7  18 36.3237 30.2720   3
  -7  -7  17 69.2471 35.6044   3
  -7   7  17-24.5968 57.1160   3
  -7  -7  16 364.670 50.5426   3
  -7   7  16 401.841 80.9745   3
  -7  -7  15 4536.60 148.157   3
  -7   7  15 4455.16 211.248   3
  -7  -7  14 995.805 74.0237   3
  -7   7  14 1074.25 110.727   3
  -7  -7  13 7693.38 191.479   3
  -7   7  13 7613.45 262.835   3
  -7  -7  12 5092.86 157.816   3
  -7   7  12 5213.66 217.666   3
  -7  -7  11 62.6215 31.3537   3
  -7   7  11 118.806 60.3584   3
  -7  -7  10 715.375 65.4209   3
  -7   7  10 740.713 95.5025   3
  -7  -7   9 491.758 57.6716   3
  -7   7   9 504.392 82.4385   3
  -7  -7   8 125.855 38.9411   3
  -7   7   8 77.4170 51.4004   3
  -7  -7   7 1466.83 93.8326   3
  -7   7   7 1247.63 108.090   3
  -7   7   6 986.025 101.799   3
  -7  -7   6 1006.35 80.8895   3
  -7  -7   5 911.586 77.2309   3
  -7   7   5 914.645 92.3996   3
   7   7  -4 2213.77 129.907   2
  -7   7   4 2223.25 137.924   3
   7   7  -3 14438.7 325.038   2
  -7   7   3 14784.8 336.365   3
   7   7  -2 141.461 55.5080   2
  -7   7   2 80.4596 55.4860   3
  -7   7   1 19545.6 385.442   3
   7   7  -1 18580.6 372.007   2
  -7   7   0 1657.35 121.379   3
   7   7   0 1682.63 124.989   2
  -7   7  -1 3007.33 156.511   3
   7   7   1 3169.52 161.232   2
  -7   7  -2 19.0108 51.2331   3
   7   7   2 29.6395 9.12195   1
   7   7   2 64.2156 47.9744   2
  -7   7  -3 3904.37 176.856   3
   7   7   3 3578.69 176.829   2
  -7   7  -4 115.529 49.0191   3
   7   7   4 181.245 62.2860   2
  -7   7  -5 8994.38 268.096   3
   7   7   5 9039.19 284.215   2
   7   7   6 2565.56 155.974   2
  -7   7  -6 2455.33 146.371   3
  -7   7  -6 2634.61 119.481   1
   7   7   7 1419.25 124.447   2
  -7   7  -7 1450.80 116.493   3
  -7   7  -7 1537.45 94.0350   1
  -7   7  -8 382.716 67.4492   3
   7   7   8 351.153 77.8718   2
  -7   7  -8 315.923 55.0312   1
  -7   7  -9 5913.19 180.505   1
   7   7   9 6092.63 249.553   2
   7  -7   9 5885.94 206.954   2
  -7   7 -10 41.5463 36.9006   1
   7  -7  10 50.6530 45.3887   2
   7   7  10 63.1285 63.8760   2
   7   7  11 2977.86 179.751   2
   7  -7  11 2981.80 154.122   2
  -7   7 -11 2758.70 129.182   1
  -7   7 -12 3539.90 147.516   1
   7  -7  12 3558.09 166.159   2
   7   7  12 3806.92 208.067   2
  -7   7 -13-40.6466 43.0461   1
   7   7  13-17.7205 66.7701   2
   7  -7  13-11.9281 50.8643   2
   7   7  14 81.6933 70.3473   2
  -7   7 -14 8.42193 39.3346   1
   7  -7  14-26.7239 46.9808   2
   7   7  15 2886.44 192.125   2
   7  -7  15 3139.30 163.689   2
   7  -7  16-70.0851 48.4139   2
   7   7  16 41.7902 67.0789   2
   7   7  17 5786.30 274.521   2
   7  -7  17 5815.14 225.553   2
   7   7  18 2577.16 191.795   2
   7  -7  18 2508.33 151.943   2
   7   7  19 18.4315 62.9942   2
   7   7  20-52.0808 71.1782   2
   7   7  21 424.391 102.470   2
   7   7  22 97.9862 77.2554   2
  -7   8  26 492.553 106.125   2
  -7   8  25 80.9954 73.9351   2
  -7   8  24 34.7487 62.0455   2
  -7   8  23 98.5414 76.3816   2
  -7   8  22 1391.16 146.295   2
  -7   8  22 1343.69 135.574   3
  -7   8  21 264.136 84.5150   2
  -7   8  21 282.720 79.7819   3
  -7   8  20 63.3080 62.4466   2
  -7   8  20 122.536 66.0104   3
  -7   8  19 243.693 70.5669   3
  -7   8  19 79.4747 60.5514   2
  -7   8  18 278.462 80.6202   3
  -7  -8  17 3693.94 132.461   3
  -7   8  17 3972.76 208.808   3
  -7  -8  16 235.772 41.6610   3
  -7   8  16 142.263 63.2208   3
  -7  -8  15 163.400 35.4078   3
  -7   8  15 37.8138 56.1610   3
  -7  -8  14 156.378 37.6840   3
  -7   8  14 139.499 62.3819   3
  -7  -8  13 461.094 51.1540   3
  -7   8  13 465.608 82.2003   3
  -7  -8  12 2066.11 99.6171   3
  -7   8  12 2062.60 148.210   3
  -7  -8  11 2603.20 111.514   3
  -7   8  11 2773.47 161.881   3
  -7  -8  10 2671.77 114.948   3
  -7   8  10 2591.65 156.820   3
  -7  -8   9 4069.68 141.593   3
  -7   8   9 4062.87 191.552   3
  -7  -8   8 3719.12 137.493   3
  -7   8   8 4000.22 189.751   3
  -7  -8   7 1415.74 88.7906   3
  -7   8   7 1429.96 118.025   3
  -7  -8   6 1534.98 94.5016   3
  -7   8   6 1499.04 119.809   3
   7   8  -5 6818.11 219.688   2
  -7   8   5 7116.50 240.609   3
   7   8  -4 558.219 80.2490   2
  -7   8   4 849.379 95.7025   3
   7   8  -3 761.156 84.4032   2
  -7   8   3 745.678 89.1010   3
  -7   8   2 1355.78 111.140   3
   7   8  -2 1249.94 108.736   2
  -7   8   1 1646.40 118.856   3
   7   8  -1 1676.74 120.973   2
  -7   8   0 3052.84 157.198   3
   7   8   0 2837.77 153.283   2
  -7   8  -1 534.506 74.4106   3
   7   8   1 719.155 90.6625   2
   7   8   2 6453.23 92.1145   1
  -7   8  -2 7015.63 236.415   3
   7   8   2 7116.02 243.953   2
  -7   8  -3 4283.39 187.032   3
   7   8   3 4027.23 189.247   2
  -7   8  -4 530.489 74.5001   3
   7   8   4 468.917 81.1580   2
  -7   8  -5 1049.68 100.373   3
   7   8   5 956.851 109.301   2
  -7   8  -5 1065.70 85.2851   1
  -7   8  -6 992.420 98.5051   3
   7   8   6 1031.32 109.178   2
  -7   8  -6 1030.35 84.7678   1
   7   8   7 1364.50 119.716   2
  -7   8  -7 1468.34 117.679   3
  -7   8  -7 1557.95 100.090   1
  -7   8  -8 22.2677 48.6056   3
   7   8   8 32.4027 59.9771   2
  -7   8  -8 30.9901 40.2698   1
  -7   8  -9 1280.89 94.8681   1
   7   8   9 1457.37 133.701   2
  -7   8  -9 1261.84 114.582   3
   7   8  10 1400.35 129.702   2
  -7   8 -10 1390.49 95.7491   1
   7   8  11 580.788 95.3574   2
  -7   8 -11 507.012 63.1609   1
  -7   8 -12 1455.83 102.148   1
   7   8  12 1571.85 145.302   2
   7  -8  12 1737.40 118.076   2
   7   8  13 6151.82 268.471   2
   7  -8  13 6250.27 218.162   2
  -7   8 -13 6210.60 203.193   1
   7   8  14 5806.99 263.904   2
   7  -8  14 5767.10 211.441   2
  -7   8 -14 5712.44 198.194   1
   7  -8  15 1482.80 114.620   2
   7   8  15 1459.75 143.991   2
   7   8  16 663.793 110.714   2
   7  -8  16 600.489 78.6461   2
   7   8  17 2617.80 187.659   2
   7  -8  17 2355.82 142.483   2
   7   8  18 23.4760 62.0970   2
   7   8  19-60.0822 71.0883   2
   7   8  20 184.765 81.4714   2
   7   8  21 363.009 102.823   2
  -7   9  25-35.2962 70.5392   2
  -7   9  24 1050.92 138.357   2
  -7   9  23 694.786 110.855   2
  -7   9  22 55.8060 71.1577   2
  -7   9  21 225.752 80.2126   2
  -7   9  21 198.728 68.8985   3
  -7   9  20 4691.50 236.991   3
  -7   9  20 4447.39 243.267   2
  -7   9  19 69.6065 61.2477   3
  -7   9  19 1.87360 62.5766   2
  -7   9  18 34.7271 60.5759   3
  -7   9  18 82.8014 75.2312   2
  -7   9  17 46.0737 59.3647   3
  -7   9  16 4092.83 215.553   3
  -7  -9  15 304.875 42.4417   3
  -7   9  15 263.017 75.4296   3
  -7  -9  14 2206.31 97.7186   3
  -7   9  14 2040.99 149.059   3
  -7  -9  13 22.1981 26.7185   3
  -7   9  13 23.5125 54.9501   3
  -7  -9  12 5028.45 146.648   3
  -7   9  12 4595.77 212.475   3
  -7  -9  11 690.965 59.5240   3
  -7   9  11 714.386 94.3314   3
  -7  -9  10 88.6852 33.2170   3
  -7   9  10 182.220 67.2003   3
  -7  -9   9-12.9823 31.4784   3
  -7   9   9-83.8417 58.1350   3
  -7  -9   8 4915.47 155.744   3
  -7   9   8 5008.06 211.517   3
  -7  -9   7 2975.08 126.138   3
  -7   9   7 2885.19 162.090   3
  -7  -9   6 263.421 47.1159   3
  -7   9   6 266.514 72.9775   3
   7   9  -5 158.602 49.2274   2
  -7   9   5 155.642 58.8064   3
   7   9  -4 1506.28 109.729   2
  -7   9   4 1544.37 122.545   3
   7   9  -3 42.3644 48.1008   2
  -7   9   3 11.6815 51.6175   3
  -7   9   2 9156.66 276.953   3
   7   9  -2 9323.67 263.359   2
  -7   9   1 425.034 78.1704   3
   7   9  -1 303.928 63.1371   2
  -7   9   0 1527.47 117.515   3
   7   9   0 1689.12 123.399   2
  -7   9  -1 135.974 55.1078   3
   7   9   1 47.2439 47.5070   2
   7   9   2 1176.91 47.5380   1
  -7   9  -2 1342.57 111.834   3
   7   9   2 1189.81 105.000   2
  -7   9  -3 113.883 49.8524   3
   7   9   3 37.3506 51.5623   2
   7   9   4 1982.61 142.169   2
  -7   9  -4 1794.29 126.083   3
   7   9   5 1748.51 133.326   2
  -7   9  -5 1755.75 125.481   3
  -7   9  -5 1815.89 111.908   1
   7   9   6 7913.84 273.164   2
  -7   9  -6 7795.35 255.880   3
  -7   9  -6 7427.13 216.704   1
  -7   9  -7 395.516 63.2089   1
   7   9   7 386.177 86.0387   2
  -7   9  -7 372.515 69.2079   3
   7   9   8 1594.67 136.861   2
  -7   9  -8 1726.99 127.253   3
  -7   9  -8 1695.27 110.149   1
  -7   9  -9-6.42183 54.2068   3
   7   9   9 79.6521 65.2352   2
  -7   9  -9 71.2525 44.4857   1
   7   9  10 3448.89 198.354   2
  -7   9 -10 3356.26 173.727   3
  -7   9 -10 2991.82 144.873   1
   7   9  11-2.98534 61.1293   2
  -7   9 -11 24.5707 51.5295   3
  -7   9 -11-13.7061 43.0136   1
   7   9  12 5643.93 259.565   2
  -7   9 -12 5563.94 225.047   3
  -7   9 -12 5500.60 195.785   1
   7   9  13 1383.16 136.911   2
  -7   9 -13 1127.15 98.3428   1
   7   9  14 991.456 122.421   2
   7  -9  14 1008.84 91.2094   2
  -7   9 -14 996.012 93.3077   1
   7   9  15-69.9541 71.3023   2
   7  -9  15 40.2730 45.5664   2
  -7   9 -15-13.6107 45.8948   1
   7   9  16 3229.72 207.377   2
   7  -9  16 3077.50 158.249   2
   7   9  17 114.490 74.6427   2
   7   9  18 145.019 80.2706   2
   7   9  19-2.11462 76.2509   2
   7   9  20 290.771 94.3960   2
  -7  10  25-103.780 81.9599   2
  -7  10  24 995.238 133.845   2
  -7  10  23 179.232 86.9149   2
  -7  10  22 902.653 134.743   2
  -7  10  21-47.6054 65.2017   2
  -7  10  21 153.633 76.1739   3
  -7  10  20 436.240 96.4067   2
  -7  10  20 429.887 91.4237   3
  -7  10  19 1088.15 130.710   2
  -7  10  19 1031.94 124.185   3
  -7  10  18 4636.85 237.046   3
  -7  10  18 4353.85 234.813   2
  -7  10  17 282.852 81.1104   3
  -7  10  16 1787.21 153.253   3
  -7  10  15 1142.30 120.634   3
  -7 -10  14 53.0695 26.1278   3
  -7  10  14 237.325 73.8471   3
  -7 -10  13 59.0577 28.1942   3
  -7  10  13 95.8433 66.4234   3
  -7 -10  12 56.8621 27.6702   3
  -7  10  12 2.09813 58.5106   3
  -7 -10  11 6604.70 165.160   3
  -7  10  11 6856.67 258.542   3
  -7 -10  10 2028.71 96.0887   3
  -7  10  10 1909.55 142.986   3
  -7  10   9 92.9414 61.8735   3
  -7 -10   9 42.1347 30.8525   3
  -7 -10   8 1074.90 75.5771   3
  -7  10   8 1074.94 106.386   3
  -7 -10   7 160.670 38.9139   3
  -7  10   7 174.155 64.4847   3
  -7  10   6 1847.78 135.059   3
   7  10  -5 9.79001 43.8629   2
  -7  10   5-48.6269 48.5000   3
   7  10  -4 2935.01 151.417   2
  -7  10   4 3071.37 166.330   3
  -7  10   3 3006.94 167.438   3
   7  10  -3 2811.45 153.062   2
   7  10  -2 4.61611 48.1290   2
  -7  10   2 106.984 58.4763   3
  -7  10   1 1900.58 130.421   3
   7  10  -1 2015.03 131.927   2
  -7  10   0 5738.34 219.337   3
   7  10   0 5854.99 218.500   2
  -7  10  -1 3111.45 165.123   3
   7  10   1 3372.87 170.766   2
   7  10   2 7413.99 128.114   1
   7  10   2 7231.56 251.902   2
  -7  10  -2 7393.60 246.370   3
  -7  10  -3 309.688 67.5079   3
   7  10   3 310.383 78.3335   2
  -7  10  -4-39.0728 56.5933   3
   7  10   4 17.0241 53.0078   2
   7  10   5 348.950 78.8148   2
  -7  10  -5 363.224 70.9982   3
  -7  10  -5 414.436 68.9004   1
  -7  10  -6 757.280 84.4717   1
   7  10   6 627.301 92.9963   2
  -7  10  -6 705.491 87.9077   3
   7  10   7 5228.22 232.827   2
  -7  10  -7 5266.46 212.172   3
  -7  10  -7 4898.85 182.515   1
   7  10   8 1282.10 124.147   2
  -7  10  -8 1293.50 111.273   3
  -7  10  -8 1179.25 97.1745   1
   7  10   9 471.079 89.8425   2
  -7  10  -9 399.160 74.6080   3
  -7  10  -9 372.356 62.6983   1
   7  10  10 543.725 88.2306   2
  -7  10 -10 712.852 92.5829   3
  -7  10 -10 924.861 90.9723   1
   7  10  11 701.084 102.111   2
  -7  10 -11 681.274 88.5789   3
  -7  10 -11 588.121 74.7974   1
   7  10  12 3738.11 213.347   2
  -7  10 -12 3383.98 180.392   3
  -7  10 -12 3363.59 163.943   1
   7  10  13 2017.96 168.623   2
  -7  10 -13 2308.65 139.743   1
  -7  10 -13 2181.04 149.199   3
   7  10  14 220.528 77.9994   2
  -7  10 -14 192.541 57.7172   1
  -7  10 -14 247.681 66.8314   3
   7  10  15 1717.80 162.757   2
  -7  10 -15 1558.77 130.927   3
  -7  10 -15 1563.90 117.653   1
  -7  10 -16 1062.65 100.944   1
   7  10  16 1083.38 130.923   2
   7  10  17-70.4819 75.5403   2
   7  10  18 197.373 71.5463   2
   7  10  19 96.6040 73.9911   2
   7  10  20 867.217 126.099   2
  -7  11  24 147.371 84.3947   2
  -7  11  23 48.9450 75.5029   2
  -7  11  22 1354.57 148.544   2
  -7  11  21 839.475 122.305   2
  -7  11  21 1002.30 129.587   3
  -7  11  20 1667.03 154.518   3
  -7  11  20 1515.91 157.323   2
  -7  11  19 0.44201 70.7066   2
  -7  11  19 104.861 71.7671   3
  -7  11  18 252.169 78.3367   2
  -7  11  18 259.309 78.6103   3
  -7  11  17 152.946 70.1047   3
  -7  11  17 209.768 77.8964   2
  -7  11  16 19.1483 62.5864   3
  -7  11  15 4230.23 221.667   3
  -7  11  14 1182.27 124.178   3
  -7  11  13 1716.90 142.954   3
  -7 -11  12 1095.75 66.5697   3
  -7  11  12 977.918 107.671   3
  -7 -11  11 3834.27 122.710   3
  -7  11  11 3905.24 206.178   3
  -7 -11  10 54.4633 30.0976   3
  -7  11  10 56.6753 60.0441   3
  -7 -11   9 363.729 46.3377   3
  -7  11   9 201.965 69.0423   3
  -7 -11   8 0.55567 30.0975   3
  -7  11   8 21.9651 57.5005   3
  -7 -11   7 11549.6 235.515   3
  -7  11   7 12041.1 331.676   3
   7  11  -6 1683.00 114.412   2
  -7  11   6 1675.41 131.710   3
   7  11  -5-27.4177 43.2165   2
  -7  11   5 16.8489 55.0905   3
   7  11  -4 32.6731 44.6127   2
  -7  11   4 81.5441 58.9496   3
  -7  11   3 14817.5 356.676   3
   7  11  -3 14639.7 334.852   2
  -7  11   2 1141.63 110.194   3
   7  11  -2 1305.35 107.319   2
  -7  11   1 1042.60 100.221   3
   7  11  -1 1026.61 100.326   2
  -7  11   0 658.057 85.6943   3
   7  11   0 583.783 82.5619   2
   7  11   1 3158.44 100.630   1
   7  11   1 3028.93 164.942   2
  -7  11  -1 3100.03 165.852   3
  -7  11  -2 494.297 73.6000   3
   7  11   2 430.749 78.7428   2
   7  11   2 654.930 47.3789   1
   7  11   3 2577.27 159.375   2
  -7  11  -3 2763.61 157.040   3
  -7  11  -4 415.483 73.7667   3
   7  11   4 218.759 64.7618   2
  -7  11  -4 347.601 66.3005   1
   7  11   5 34.3608 54.8115   2
  -7  11  -5-7.05113 52.2183   3
  -7  11  -5 38.3085 51.6141   1
  -7  11  -6 106.797 59.1909   1
   7  11   6-83.5715 62.7240   2
  -7  11  -6-22.7247 51.2721   3
  -7  11  -7 211.469 57.0452   3
   7  11   7 339.757 74.0545   2
  -7  11  -7 337.745 64.9888   1
   7  11   8 54.4529 61.0212   2
  -7  11  -8 66.7223 51.9860   3
  -7  11  -8 104.247 47.7431   1
   7  11   9 224.631 66.4877   2
  -7  11  -9 206.170 59.4120   3
  -7  11  -9 413.477 69.6022   1
   7  11  10 174.710 74.3464   2
  -7  11 -10 16.6273 44.3894   1
  -7  11 -10 42.6166 50.6814   3
   7  11  11 5995.15 265.414   2
  -7  11 -11 5786.70 229.547   3
  -7  11 -11 5867.76 216.581   1
  -7  11 -12 388.318 69.3737   1
   7  11  12 359.994 83.9140   2
  -7  11 -12 286.070 64.7098   3
  -7  11 -13 1756.48 127.646   1
   7  11  13 1724.64 153.405   2
  -7  11 -13 1583.84 127.572   3
  -7  11 -14-19.3853 51.7200   1
   7  11  14 57.6093 58.8530   2
  -7  11 -14-42.9265 53.7720   3
   7  11  15 418.324 97.9738   2
  -7  11 -15 302.698 69.0182   3
  -7  11 -15 298.547 63.3725   1
  -7  11 -16-12.4801 49.5238   1
   7  11  16-17.6040 62.3202   2
  -7  11 -16 10.9366 51.0952   3
   7  11  17 3442.24 224.305   2
  -7  11 -17 3595.89 181.620   1
  -7  11 -17 3551.78 194.559   3
   7  11  18 580.841 103.592   2
  -7  11 -18 480.519 85.3365   3
   7  11  19 404.329 101.007   2
  -7  11 -19 200.103 61.4405   3
  -7  12  23 1138.43 147.797   2
  -7  12  22 418.958 96.5526   2
  -7  12  21 51.7574 68.3661   2
  -7  12  20 7.11614 70.7887   2
  -7  12  20 1.62012 67.4952   3
  -7  12  19 33.6962 58.3031   2
  -7  12  19 70.2734 65.7102   3
  -7  12  18 194.583 82.2899   2
  -7  12  18 114.387 67.9688   3
  -7  12  17 1669.54 150.955   3
  -7  12  17 1522.39 156.950   2
  -7  12  16 1116.64 126.477   3
  -7  12  16 1142.35 128.935   2
  -7  12  15 175.146 75.9541   3
  -7  12  14 1393.52 138.510   3
  -7  12  13 4922.67 236.537   3
  -7  12  12 84.0396 65.1943   3
  -7 -12  11 628.623 50.9632   3
  -7  12  11 708.622 103.274   3
  -7 -12  10 135.613 33.4945   3
  -7  12  10 144.763 67.6629   3
  -7 -12   9 214.715 36.8478   3
  -7  12   9 251.326 70.8511   3
  -7 -12   8 1685.39 89.8014   3
  -7  12   8 1767.98 139.852   3
  -7 -12   7 16.7852 29.4178   3
  -7  12   7 27.7191 53.7996   3
   7  12  -6 436.477 67.1303   2
  -7  12   6 578.726 89.9760   3
   7  12  -5 10337.1 277.063   2
  -7  12   5 10566.4 314.647   3
  -7  12   4 2089.78 148.799   3
   7  12  -4 2168.45 131.699   2
  -7  12   3 3424.32 179.165   3
   7  12  -3 3238.37 161.810   2
  -7  12   2 476.011 80.0186   3
   7  12  -2 369.322 73.1486   2
  -7  12   1 487.528 77.2545   3
   7  12  -1 564.471 80.9121   2
   7  12   0 6222.88 233.246   2
  -7  12   0 6050.13 228.117   3
   7  12   1 2122.21 142.871   2
  -7  12  -1 1846.62 132.504   3
   7  12   1 1825.50 82.7706   1
   7  12   2 6022.16 232.969   2
  -7  12  -2 6020.57 228.689   3
   7  12   2 6061.88 138.363   1
   7  12   3 4551.70 207.232   2
  -7  12  -3 4451.07 197.572   3
   7  12   4 464.548 83.6106   2
  -7  12  -4 580.381 81.1206   3
  -7  12  -4 717.900 89.0817   1
   7  12   5 1060.34 115.812   2
  -7  12  -5 1300.58 109.151   3
  -7  12  -5 1381.38 112.433   1
  -7  12  -6 565.435 80.0754   1
   7  12   6 688.849 100.707   2
  -7  12  -6 684.755 84.7537   3
   7  12   7 11243.5 341.633   2
  -7  12  -7 11257.2 310.386   3
  -7  12  -7 11477.8 298.103   1
   7  12   8-38.7162 60.1789   2
  -7  12  -8 1.49773 45.7178   3
  -7  12  -8 15.8434 46.9804   1
   7  12   9 933.899 114.026   2
  -7  12  -9 862.237 94.2654   3
  -7  12  -9 921.541 100.512   1
   7  12  10 202.210 73.7310   2
  -7  12 -10 225.859 65.3786   1
  -7  12 -10 152.257 58.0326   3
   7  12  11 1610.97 148.556   2
  -7  12 -11 1881.74 134.964   3
  -7  12 -11 1692.20 128.835   1
   7  12  12 2048.33 167.576   2
  -7  12 -12 1741.19 133.075   3
  -7  12 -12 1770.94 129.909   1
   7  12  13 1741.15 161.805   2
  -7  12 -13 1819.08 136.848   3
  -7  12 -13 1771.42 129.812   1
   7  12  14 62.5657 67.3234   2
  -7  12 -14 161.283 60.8791   3
  -7  12 -14 139.854 59.4169   1
   7  12  15 1287.86 140.908   2
  -7  12 -15 1177.84 114.329   3
  -7  12 -15 1164.06 111.657   1
   7  12  16 155.889 69.0552   2
  -7  12 -16 114.904 52.9566   3
  -7  12 -16 61.7592 55.8422   1
   7  12  17 162.021 86.3735   2
  -7  12 -17 30.0740 51.8790   1
  -7  12 -17 76.5324 57.2708   3
   7  12  18 74.2160 83.4821   2
  -7  12 -18 20.6453 47.1723   3
  -7  13  22 381.507 105.186   2
  -7  13  21 1853.03 173.382   2
  -7  13  20 1447.11 157.437   2
  -7  13  20 1250.38 140.966   3
  -7  13  19 880.149 127.391   2
  -7  13  19 951.957 127.146   3
  -7  13  18 548.625 107.067   2
  -7  13  18 462.382 93.1815   3
  -7  13  17-5.47762 66.3400   2
  -7  13  17 141.761 75.1336   3
  -7  13  16 612.507 107.307   2
  -7  13  16 666.265 110.905   3
  -7  13  15 1247.03 133.771   3
  -7  13  15 992.977 121.743   2
  -7  13  14 895.708 113.669   3
  -7  13  13 442.577 92.3284   3
  -7  13  12 4086.16 215.995   3
  -7  13  11 13.9928 56.9762   3
  -7  13  10 403.538 87.9666   3
  -7 -13   9 1737.42 85.2337   3
  -7  13   9 1802.77 145.763   3
  -7 -13   8 6470.92 167.290   3
  -7  13   8 6501.99 255.984   3
  -7 -13   7-14.7271 27.8413   3
  -7  13   7 0.66682 52.2470   3
   7  13  -6 49.5867 47.9724   2
  -7  13   6 29.2958 56.9109   3
   7  13  -5 803.293 84.9585   2
  -7  13   5 1115.40 114.868   3
  -7  13   4 4335.29 203.990   3
   7  13  -4 4131.94 179.954   2
  -7  13   3 3847.19 191.656   3
   7  13  -3 3810.75 176.422   2
  -7  13   2 17256.3 393.919   3
   7  13  -2 17549.8 374.266   2
  -7  13   1 718.656 93.3237   3
   7  13  -1 850.239 99.5436   2
   7  13   0 8242.10 267.479   2
  -7  13   0 8399.16 272.834   3
  -7  13  -1-37.4556 47.7166   3
   7  13   1 19.8626 48.0789   2
   7  13   1 13.7541 28.5450   1
   7  13   2 1085.35 109.976   2
  -7  13  -2 981.757 105.542   3
   7  13   2 1053.05 67.3265   1
   7  13   3 28.7688 50.4642   2
  -7  13  -3-38.3143 51.5848   3
   7  13   3 66.1461 29.9980   1
   7  13   4 6780.24 257.300   2
  -7  13  -4 7142.14 248.100   3
  -7  13  -4 6718.93 236.891   1
   7  13   5 662.219 96.3645   2
  -7  13  -5 637.065 85.3921   3
  -7  13  -5 719.208 92.0916   1
   7  13   6 3397.93 193.824   2
  -7  13  -6 3509.71 179.011   3
  -7  13  -6 3467.60 176.539   1
   7  13   7 665.726 104.453   2
  -7  13  -7 715.538 93.6593   1
  -7  13  -7 752.969 92.3643   3
   7  13   8 167.255 76.4917   2
  -7  13  -8 117.435 56.1087   3
  -7  13  -8 164.567 66.6489   1
   7  13   9 1102.41 130.162   2
  -7  13  -9 965.872 99.4005   3
  -7  13  -9 929.862 97.8928   1
   7  13  10 4318.01 230.995   2
  -7  13 -10 4380.04 197.786   1
  -7  13 -10 4437.81 202.088   3
   7  13  11 641.762 103.063   2
  -7  13 -11 696.812 91.0098   3
  -7  13 -11 565.749 86.0940   1
   7  13  12 399.583 90.5884   2
  -7  13 -12 540.594 83.2123   3
  -7  13 -12 663.121 91.9292   1
  -7  13 -13 14.1449 54.4494   1
   7  13  13 6.41572 61.0576   2
  -7  13 -13-7.32509 45.5841   3
  -7  13 -14 1409.16 125.852   1
   7  13  14 1617.13 161.770   2
  -7  13 -14 1598.90 130.749   3
   7  13  15 1834.11 169.549   2
  -7  13 -15 1507.08 131.194   1
  -7  13 -15 1748.23 136.367   3
   7  13  16 1796.73 168.886   2
  -7  13 -16 1858.00 139.249   3
  -7  13 -16 1664.38 131.590   1
   7  13  17 730.765 126.565   2
  -7  13 -17 608.755 89.4675   1
  -7  14  21 380.634 95.8151   2
  -7  14  20 1971.41 183.534   2
  -7  14  20 2218.85 184.706   3
  -7  14  19 63.5102 65.2042   2
  -7  14  19 72.6812 67.0879   3
  -7  14  18 840.415 122.174   2
  -7  14  18 1092.24 136.444   3
  -7  14  17 1720.70 158.390   3
  -7  14  17 1890.87 160.498   2
  -7  14  16 395.515 91.2586   2
  -7  14  16 513.593 100.710   3
  -7  14  15 82.3561 59.2495   2
  -7  14  15 134.167 69.0166   3
  -7  14  14 1229.21 134.011   3
  -7  14  14 1229.58 125.965   2
  -7  14  13 302.828 81.8789   3
  -7  14  12 2087.57 163.571   3
  -7  14  11 2605.14 176.142   3
  -7  14  10 6025.30 257.265   3
  -7  14   9 1044.18 117.971   3
  -7 -14   8 1773.67 89.1628   3
  -7  14   8 1737.64 142.763   3
  -7 -14   7 46.9269 29.5481   3
  -7  14   7 45.6309 54.7500   3
   7  14  -6 2698.21 144.798   2
  -7  14   6 2542.20 163.472   3
   7  14  -5 36.8566 39.3763   2
  -7  14   5 99.5814 63.4251   3
  -7  14   4 7535.09 270.302   3
   7  14  -4 7369.10 240.806   2
   7  14  -3 893.524 93.2644   2
  -7  14   3 1096.95 111.840   3
  -7  14   2 267.225 73.0832   3
   7  14  -2 134.939 52.7218   2
  -7  14   1 779.109 98.2118   3
   7  14  -1 660.732 85.3723   2
   7  14   0 3325.54 127.525   1
   7  14   0 3247.97 171.127   2
  -7  14   0 3348.35 178.587   3
   7  14   1 624.601 58.7545   1
  -7  14  -1 749.480 96.1661   3
   7  14   1 747.685 93.7385   2
   7  14   2 1616.47 129.314   2
  -7  14  -2 1672.06 129.874   3
   7  14   2 1706.16 87.1110   1
   7  14   3 306.770 75.5533   2
   7  14   3 450.643 49.9323   1
  -7  14  -3 504.991 80.1694   3
   7  14   4 511.259 90.7106   2
  -7  14  -4 598.449 84.6543   3
  -7  14  -4 600.438 94.0788   1
   7  14   5 131.913 64.2858   2
  -7  14  -5 84.8542 54.0185   3
  -7  14  -5 112.601 64.0155   1
   7  14   6 3795.75 205.680   2
  -7  14  -6 4278.75 199.112   3
  -7  14  -6 4205.15 198.258   1
   7  14   7 4233.55 219.128   2
  -7  14  -7 3878.45 187.371   3
  -7  14  -7 3774.76 188.569   1
   7  14   8 4344.25 225.276   2
  -7  14  -8 3995.39 191.500   3
  -7  14  -8 3945.36 192.837   1
   7  14   9-23.0678 66.4857   2
  -7  14  -9 48.4355 46.7226   3
  -7  14  -9 9.06458 52.1390   1
  -7  14 -10 41.1684 61.7661   1
   7  14  10 20.4292 65.7122   2
  -7  14 -10-32.8762 59.9224   3
   7  14  11 1413.51 143.482   2
  -7  14 -11 1356.15 123.304   1
  -7  14 -11 1415.41 124.122   3
   7  14  12 4028.59 234.054   2
  -7  14 -12 3875.08 195.271   3
  -7  14 -12 3974.64 200.833   1
   7  14  13 1090.78 136.331   2
  -7  14 -13 1017.60 106.570   3
  -7  14 -13 916.430 108.768   1
   7  14  14 3348.54 221.511   2
  -7  14 -14 3373.65 180.869   3
  -7  14 -14 3345.78 189.575   1
   7  14  15 657.525 116.477   2
  -7  14 -15 635.784 87.5771   3
  -7  14 -15 715.007 99.7861   1
   7  14  16 206.006 82.8903   2
  -7  14 -16 354.311 80.0802   1
   7  14  17-24.6518 79.0377   2
  -7  14 -17 47.8176 53.1337   1
  -7  15  21 4.70335 62.5626   2
  -7  15  20 42.8010 72.8090   2
  -7  15  19 3197.31 226.944   2
  -7  15  19 3234.78 217.903   3
  -7  15  18 37.6856 61.6949   2
  -7  15  18-6.80596 61.2464   3
  -7  15  17 33.5514 67.1191   2
  -7  15  17 175.705 76.4208   3
  -7  15  16 44.8656 64.3903   2
  -7  15  16-20.1541 64.0725   3
  -7  15  15 691.590 110.982   2
  -7  15  15 772.307 114.438   3
  -7  15  14 64.3808 66.1868   2
  -7  15  14 84.7563 65.7516   3
  -7  15  13 6668.16 289.702   3
  -7  15  13 6151.54 280.190   2
  -7  15  12 1020.41 122.444   3
  -7  15  12 1004.41 118.011   2
  -7  15  11 1131.07 125.103   3
  -7  15  10 35.1575 60.3362   3
  -7  15   9 3933.17 211.768   3
  -7  15   8 2939.57 183.691   3
  -7 -15   7 2866.10 116.804   3
  -7  15   7 3276.43 189.605   3
   7  15  -6 2727.04 145.191   2
  -7  15   6 2558.74 165.358   3
   7  15  -5-9.39466 45.1480   2
  -7  15   5 38.3160 60.3327   3
   7  15  -4 219.918 54.3745   2
  -7  15   4 82.6603 54.8488   3
  -7  15   3 4635.18 215.990   3
   7  15  -3 4361.52 189.492   2
  -7  15   2 2716.22 167.447   3
   7  15  -2 2871.31 158.874   2
   7  15  -1 3499.33 179.865   2
  -7  15   1 3596.18 187.233   3
   7  15   0 920.344 74.9370   1
  -7  15   0 831.883 99.6866   3
   7  15   0 952.089 101.246   2
   7  15   1 56.2404 37.7114   1
   7  15   1 48.2767 51.8898   2
  -7  15  -1 44.9212 49.4006   3
   7  15   2 523.450 55.7610   1
   7  15   2 451.232 80.6432   2
  -7  15  -2 354.782 72.9455   3
   7  15   3 1257.70 121.734   2
  -7  15  -3 1377.00 120.328   3
   7  15   4 6134.93 252.190   2
  -7  15  -4 6062.57 236.127   3
  -7  15  -4 6154.30 244.227   1
   7  15   5 4535.50 225.983   2
  -7  15  -5 4725.46 207.182   3
  -7  15  -5 4610.18 213.361   1
  -7  15  -6 709.061 96.5999   1
   7  15   6 651.897 97.2783   2
  -7  15  -6 655.505 91.7052   3
  -7  15  -7 66.1358 57.6024   1
   7  15   7-51.3176 64.4047   2
  -7  15  -7-16.5368 47.5302   3
   7  15   8 997.888 121.351   2
  -7  15  -8 1048.39 103.623   3
  -7  15  -8 988.289 111.414   1
   7  15   9 1408.04 139.447   2
  -7  15  -9 1287.48 114.525   3
  -7  15  -9 1453.98 125.827   1
   7  15  10 953.371 126.425   2
  -7  15 -10 1042.66 106.984   3
  -7  15 -10 1012.73 108.709   1
   7  15  11 2458.06 188.258   2
  -7  15 -11 2347.15 159.415   1
  -7  15 -11 2247.15 149.987   3
   7  15  12 813.009 119.140   2
  -7  15 -12 802.923 108.030   1
  -7  15 -12 770.095 96.0571   3
   7  15  13 281.533 87.9988   2
  -7  15 -13 204.962 59.3152   3
  -7  15 -13 134.892 61.6473   1
  -7  15 -14 23.8353 59.1688   1
   7  15  14 169.595 74.8583   2
  -7  15 -14 100.181 61.6750   3
   7  15  15 2709.65 209.823   2
  -7  15 -15 2662.99 175.963   1
   7  15  16 415.464 103.019   2
  -7  15 -16 255.604 71.8771   1
  -7  15 -17 72.8413 59.4766   1
  -7  16  20 77.2085 71.8797   2
  -7  16  19 187.788 85.8767   2
  -7  16  19 54.2247 66.9262   3
  -7  16  18-12.7235 67.0292   2
  -7  16  18-6.66261 73.2161   3
  -7  16  17 339.963 88.4382   2
  -7  16  17 244.402 85.5851   3
  -7  16  16-153.522 73.4353   2
  -7  16  16 81.5188 73.4305   3
  -7  16  15 2382.13 186.914   3
  -7  16  15 2262.58 178.618   2
  -7  16  14 40.7611 57.0151   2
  -7  16  14-50.0909 69.8580   3
  -7  16  13 0.52457 67.4061   2
  -7  16  13 61.9385 65.3872   3
  -7  16  12 465.973 95.6675   2
  -7  16  12 391.571 91.1260   3
  -7  16  11 5772.33 262.687   3
  -7  16  11 5270.46 248.293   2
  -7  16  10-67.9008 60.6333   3
  -7  16   9 1688.82 145.605   3
  -7  16   8 1137.78 123.130   3
  -7  16   7 648.189 98.8195   3
   7  16  -6 177.131 53.0091   2
  -7  16   6 60.0086 60.2896   3
   7  16  -5 5322.49 207.283   2
  -7  16   5 5171.93 234.177   3
   7  16  -4-83.2947 52.8288   2
  -7  16   4 48.8546 55.2951   3
  -7  16   3 1196.63 117.691   3
   7  16  -3 1350.66 110.825   2
  -7  16   2 128.629 60.2591   3
   7  16  -2 6.70340 49.5442   2
   7  16  -1 2062.58 142.544   2
  -7  16   1 2205.47 150.686   3
   7  16  -1 2210.21 118.707   1
   7  16   0 37.8929 36.5356   1
  -7  16   0-8.31705 50.8825   3
   7  16   0 84.5164 56.5471   2
   7  16   1 3737.82 144.021   1
   7  16   1 3572.16 188.688   2
  -7  16  -1 3717.60 191.953   3
   7  16   2 19.4321 49.5593   2
  -7  16  -2 99.6746 60.0822   3
   7  16   3 381.034 83.3929   2
  -7  16  -3 464.551 81.5790   3
   7  16   4 399.949 83.0600   2
  -7  16  -4 596.633 93.3102   1
  -7  16  -4 549.826 83.6051   3
   7  16   5 2549.16 170.438   2
  -7  16  -5 2487.84 157.863   3
  -7  16  -5 2652.86 169.623   1
  -7  16  -6 638.133 92.7554   1
   7  16   6 584.612 97.4786   2
  -7  16  -6 591.418 86.2956   3
   7  16   7 3955.88 216.880   2
  -7  16  -7 4054.74 194.928   3
  -7  16  -7 3914.99 205.248   1
  -7  16  -8 88.1953 62.9598   1
  -7  16  -8 153.657 59.5790   3
   7  16   9 723.153 110.435   2
  -7  16  -9 890.130 101.413   3
  -7  16  -9 785.706 105.280   1
   7  16  10 49.4887 64.9805   2
  -7  16 -10-34.3702 47.3101   3
  -7  16 -10 7.51867 55.1284   1
  -7  16 -11 520.137 93.5451   1
   7  16  11 765.685 116.308   2
  -7  16 -11 669.484 85.7345   3
   7  16  12-21.5450 67.9524   2
  -7  16 -12 39.7757 64.5652   1
  -7  16 -12-29.9579 46.5876   3
   7  16  13 2716.74 206.279   2
  -7  16 -13 2874.69 184.134   1
   7  16  14 137.633 76.9421   2
  -7  16 -14 62.6412 56.7055   1
   7  16  15 2013.03 180.971   2
  -7  16 -15 2236.10 166.556   1
  -7  16 -16 166.005 58.9443   1
  -7  16 -17-40.2862 66.3607   1
  -7  17  19 1297.51 158.523   2
  -7  17  18 489.600 101.208   2
  -7  17  18 329.858 85.0627   3
  -7  17  17 1.86326 68.8125   2
  -7  17  17 63.3283 73.9942   3
  -7  17  16 1059.25 141.392   2
  -7  17  16 1239.92 142.835   3
  -7  17  15 335.825 90.1182   2
  -7  17  15 221.436 81.3018   3
  -7  17  14 778.784 111.500   2
  -7  17  14 953.505 129.012   3
  -7  17  13 1551.84 154.974   3
  -7  17  13 1497.55 144.426   2
  -7  17  12 1066.21 123.488   2
  -7  17  12 898.217 122.747   3
  -7  17  11 80.1957 68.7840   2
  -7  17  11-25.1770 66.3001   3
  -7  17  10 237.812 74.8152   3
  -7  17  10 195.245 67.3485   2
  -7  17   9 816.790 113.893   3
  -7  17   9 686.460 106.939   2
  -7  17   8 9.20480 58.5396   3
  -7  17   7 4421.99 223.432   3
   7  17  -6 207.206 54.0769   2
  -7  17   6 126.185 71.0062   3
   7  17  -5-55.6581 47.8153   2
  -7  17   5 27.9765 63.7058   3
  -7  17   4 3652.61 200.778   3
   7  17  -4 4248.92 187.329   2
  -7  17   3 5174.63 234.009   3
   7  17  -3 5180.56 209.357   2
   7  17  -2 2081.62 139.550   2
  -7  17   2 2229.51 159.000   3
   7  17  -1 965.124 86.6234   1
   7  17  -1 1220.06 119.065   2
  -7  17   1 1135.53 115.421   3
   7  17   0 6851.45 252.086   2
   7  17   0 6613.02 203.646   1
  -7  17   0 6281.79 249.528   3
   7  17   1 1183.58 117.977   2
  -7  17  -1 1146.08 115.192   3
   7  17   2 117.833 61.9706   2
  -7  17  -2 140.641 63.4065   3
   7  17   3 3690.39 199.633   2
  -7  17  -3 3979.17 199.143   3
   7  17   4 2590.51 171.792   2
  -7  17  -4 2527.89 172.551   1
  -7  17  -4 2782.43 165.937   3
   7  17   5 3671.95 208.588   2
  -7  17  -5 3842.31 194.405   3
  -7  17  -5 3903.00 207.365   1
  -7  17  -6 36.4092 66.7937   1
   7  17   6 143.260 66.0875   2
  -7  17  -6 187.930 62.3956   3
  -7  17  -7 79.3850 61.6844   1
   7  17   7-36.7677 69.3350   2
  -7  17  -7 67.4471 51.6773   3
   7  17   8 475.871 93.8738   2
  -7  17  -8 613.584 104.242   1
  -7  17  -8 474.248 76.6400   3
   7  17   9 464.134 93.5183   2
  -7  17  -9 407.049 87.6020   1
  -7  17  -9 439.834 78.9438   3
  -7  17 -10 1332.07 132.624   1
   7  17  10 1352.91 143.378   2
  -7  17 -10 1329.46 117.596   3
   7  17  11 2169.78 184.308   2
  -7  17 -11 2320.57 168.927   1
  -7  17 -11 2009.96 140.802   3
  -7  17 -12 821.092 109.965   1
   7  17  12 799.549 121.295   2
   7  17  13 26.7973 63.4663   2
  -7  17 -13 55.2916 58.6585   1
   7  17  14 324.367 97.0148   2
  -7  17 -14 316.623 82.5796   1
  -7  17 -15 2307.58 167.274   1
  -7  17 -16 2122.77 162.732   1
  -7  17 -17 205.319 73.8231   1
  -7  18  18 784.803 134.627   2
  -7  18  17 11.1363 71.2867   2
  -7  18  17-6.15808 72.8958   3
  -7  18  16 337.252 92.2968   2
  -7  18  16 347.616 91.3253   3
  -7  18  15 84.2149 63.8628   2
  -7  18  15 275.155 86.7124   3
  -7  18  14-69.0066 76.0955   2
  -7  18  14-12.3817 65.3035   3
  -7  18  13 192.211 75.2805   2
  -7  18  13 558.415 106.027   3
  -7  18  12 2229.64 182.124   3
  -7  18  12 2461.27 179.770   2
  -7  18  11 2206.59 181.603   3
  -7  18  11 1992.02 161.859   2
  -7  18  10 1410.19 144.532   3
  -7  18  10 1251.79 129.957   2
  -7  18   9 747.765 105.417   2
  -7  18   9 743.811 107.928   3
  -7  18   8 89.1202 67.0535   3
  -7  18   8-41.7512 51.8711   2
  -7  18   7 80.0302 69.1977   3
  -7  18   7 4.10034 50.0825   2
   7  18  -6 3652.60 169.227   2
  -7  18   6 3465.92 203.708   3
   7  18  -5 189.556 59.2718   2
  -7  18   5 185.361 72.1309   3
   7  18  -4 909.792 93.8511   2
  -7  18   4 936.988 111.618   3
  -7  18   3 509.190 87.3262   3
   7  18  -3 664.723 87.5232   2
  -7  18   2 371.157 80.6323   3
   7  18  -2 318.176 61.0909   1
   7  18  -2 328.311 67.4504   2
   7  18  -1-9.70352 41.6987   1
  -7  18   1-43.2566 56.7919   3
   7  18  -1-29.0566 56.4855   2
   7  18   0 581.788 86.7621   2
  -7  18   0 544.433 85.6938   3
   7  18   1 52.9091 53.8918   2
  -7  18  -1-23.3621 52.7594   3
   7  18   2 4461.18 216.592   2
  -7  18  -2 4542.77 214.869   3
   7  18   3 471.053 88.1308   2
  -7  18  -3 365.452 73.7758   3
   7  18   4 219.450 68.0876   2
  -7  18  -4 386.288 80.3034   3
   7  18   5 300.401 81.4305   2
  -7  18  -5 460.039 82.8181   3
  -7  18  -5 532.235 99.2835   1
  -7  18  -6-8.32597 55.8511   1
   7  18   6 136.196 68.7734   2
  -7  18  -6 125.655 58.8567   3
  -7  18  -7 1038.01 124.719   1
   7  18   7 908.321 116.865   2
  -7  18  -7 843.587 99.7516   3
   7  18   8 1281.42 139.161   2
  -7  18  -8 1150.42 126.417   1
  -7  18  -8 1203.72 112.126   3
   7  18   9 44.1729 61.0725   2
  -7  18  -9 131.298 73.2579   1
  -7  18  -9 34.3104 47.4230   3
   7  18  10 186.064 76.8870   2
  -7  18 -10 141.652 70.3987   1
   7  18  11 166.164 82.8593   2
  -7  18 -11 171.895 70.5785   1
   7  18  12 1975.27 177.985   2
  -7  18 -12 2454.31 178.293   1
  -7  18 -13 312.344 79.3544   1
   7  18  13 330.875 86.5007   2
  -7  18 -14 3904.86 219.098   1
  -7  18 -15 749.757 110.529   1
  -7  18 -16 1223.29 130.725   1
  -7  19  17 96.7465 69.2284   2
  -7  19  16 845.523 123.980   2
  -7  19  16 879.195 130.754   3
  -7  19  15 971.775 130.657   2
  -7  19  15 1117.91 138.131   3
  -7  19  14 1186.42 145.142   2
  -7  19  14 1376.11 150.347   3
  -7  19  13 267.671 83.0531   2
  -7  19  13 338.457 87.3411   3
  -7  19  12 198.526 80.7639   2
  -7  19  12 376.642 96.6983   3
  -7  19  11 24.2564 61.1491   2
  -7  19  11 258.916 87.7391   3
  -7  19  10 512.793 91.4928   2
  -7  19  10 613.148 105.243   3
  -7  19   9 428.273 85.8899   2
  -7  19   9 356.374 83.5007   3
  -7  19   8 2060.53 164.583   3
  -7  19   8 2209.08 160.152   2
  -7  19   7 32.9197 54.1223   2
  -7  19   7 30.7884 64.2646   3
   7  19  -6 1001.49 94.6887   2
  -7  19   6 925.594 115.957   3
  -7  19   6 933.761 105.683   2
   7  19  -5 1458.67 115.098   2
  -7  19   5 1360.91 134.600   3
  -7  19   5 1467.81 129.228   2
   7  19  -4 416.862 71.6457   2
  -7  19   4 440.186 87.8076   3
  -7  19   4 366.675 73.4208   2
  -7  19   3 521.006 90.9296   3
   7  19  -3 632.835 83.8030   1
   7  19  -3 637.310 84.0483   2
   7  19  -2 1092.83 98.6240   1
   7  19  -2 1141.47 113.945   2
  -7  19   2 1028.98 117.884   3
  -7  19   1 926.741 110.202   3
   7  19  -1 772.811 99.3949   2
   7  19   0 299.724 70.7490   2
  -7  19   0 56.3666 53.8459   3
   7  19   1 818.460 99.2901   2
  -7  19  -1 956.379 109.216   3
   7  19   2-98.9989 63.0036   2
  -7  19  -2 28.4919 55.0175   3
   7  19   3 138.611 63.2972   2
  -7  19  -3 216.869 63.2034   3
   7  19   4 30.3221 54.9026   2
  -7  19  -4 67.6440 50.8873   3
   7  19   5 1376.44 136.585   2
  -7  19  -5 1204.23 115.811   3
  -7  19  -5 1432.14 137.761   1
   7  19   6 3279.10 206.853   2
  -7  19  -6 3206.77 179.566   3
  -7  19  -6 3302.83 205.418   1
  -7  19  -7 761.877 110.663   1
   7  19   7 821.773 113.616   2
  -7  19  -7 973.854 106.486   3
  -7  19  -8 3.92635 58.4578   1
   7  19   8 88.3930 63.9770   2
  -7  19  -8 105.675 55.2598   3
   7  19   9 297.437 89.2207   2
  -7  19  -9 469.476 105.539   1
   7  19  10 2461.20 191.649   2
  -7  19 -10 2568.14 182.733   1
   7  19  11 1712.97 166.690   2
  -7  19 -11 1787.37 157.934   1
   7  19  12 652.751 115.748   2
  -7  19 -12 505.160 99.1712   1
  -7  19 -13-48.3749 63.6279   1
  -7  19 -14 145.161 69.5192   1
  -7  19 -15-14.6001 58.2913   1
  -7  20  16 461.486 105.416   2
  -7  20  15 285.741 98.9206   2
  -7  20  14 115.843 69.0871   2
  -7  20  14 147.417 81.7041   3
  -7  20  13 15.6241 61.8393   2
  -7  20  13 169.414 83.3650   3
  -7  20  12 38.4490 68.3111   2
  -7  20  12 145.762 72.2756   3
  -7  20  11 1671.27 156.766   2
  -7  20  11 1815.25 166.703   3
  -7  20  10 44.8591 62.7674   2
  -7  20  10 62.1331 64.1232   3
  -7  20   9 443.316 88.4260   2
  -7  20   9 552.691 102.227   3
  -7  20   8 321.111 79.3382   2
  -7  20   8 127.402 66.1962   3
  -7  20   7 931.921 112.698   2
  -7  20   7 1079.23 129.620   3
  -7  20   6 218.562 66.5952   2
  -7  20   6 212.422 66.9515   3
  -7  20   5 1532.81 144.157   3
  -7  20   5 1413.03 133.342   2
  -7  20   4 146.399 59.5761   2
   7  20  -4 58.7100 47.2915   2
  -7  20   4 99.3200 65.7189   3
   7  20  -3 564.256 84.5010   2
   7  20  -3 494.726 79.0281   1
  -7  20   3 618.795 92.5563   3
  -7  20   3 552.907 82.2990   2
  -7  20   2 185.233 70.5490   3
   7  20  -2 168.720 63.4904   2
  -7  20   2 87.0624 46.1087   2
  -7  20   1 481.372 87.8151   3
   7  20  -1 403.254 73.3367   2
  -7  20   1 404.410 72.0600   2
   7  20   0 116.419 61.4645   2
  -7  20   0 152.712 60.6902   3
   7  20   1 2849.29 178.079   2
  -7  20  -1 3027.10 183.892   3
   7  20   2-39.6981 54.7744   2
  -7  20  -2 17.9474 56.3519   3
   7  20   3 1504.55 138.030   2
  -7  20  -3 1604.18 139.212   3
   7  20   4 237.436 70.4661   2
  -7  20  -4 191.206 62.9482   3
   7  20   5 251.369 72.8267   2
  -7  20  -5 245.710 78.8305   1
  -7  20  -5 253.997 68.7876   3
   7  20   6 355.538 87.8741   2
  -7  20  -6 298.837 68.6895   3
  -7  20  -6 368.909 91.6713   1
   7  20   7 1348.41 145.014   2
  -7  20  -7 1364.76 143.103   1
  -7  20  -8 106.126 75.3686   1
   7  20   8 170.650 79.0072   2
  -7  20  -9 1185.51 136.279   1
   7  20   9 1442.98 152.026   2
   7  20  10 328.961 85.8367   2
  -7  20 -10 435.997 95.6870   1
   7  20  11 71.1951 73.7211   2
  -7  20 -11 91.4405 69.7898   1
  -7  20 -12 227.515 82.2794   1
  -7  21  14 601.792 116.973   2
  -7  21  13 452.451 106.871   2
  -7  21  13 518.556 116.155   3
  -7  21  12 2475.15 187.509   2
  -7  21  12 2848.14 208.814   3
  -7  21  11 52.0612 65.4808   2
  -7  21  11 164.157 78.8541   3
  -7  21  10 340.243 85.8076   2
  -7  21  10 568.852 107.051   3
  -7  21   9 1123.73 128.110   2
  -7  21   9 973.343 124.591   3
  -7  21   8 28.9133 54.4355   2
  -7  21   8-3.77490 64.7882   3
  -7  21   7 822.078 108.487   2
  -7  21   7 755.738 115.362   3
  -7  21   6 561.423 91.9660   2
  -7  21   6 545.254 99.0012   3
  -7  21   5-57.9441 54.9167   2
  -7  21   5-35.4081 59.6737   3
  -7  21   4 1425.17 140.610   3
   7  21  -4 1296.29 117.639   1
  -7  21   4 1372.63 125.100   2
  -7  21   3 329.215 69.0134   2
  -7  21   3 465.801 88.8596   3
   7  21  -2 2969.94 168.372   2
  -7  21   2 2818.40 187.187   3
   7  21  -1 3232.16 183.929   2
  -7  21   1 3493.80 203.892   3
   7  21   0 215.576 62.4368   2
  -7  21   0 104.555 58.0404   3
   7  21   1 155.806 62.0688   2
  -7  21  -1 32.7398 62.0385   3
   7  21   2 53.1728 53.3814   2
  -7  21  -2 85.5555 52.0181   3
   7  21   3 389.374 78.1954   2
  -7  21  -3 414.024 78.7008   3
   7  21   4 21.0645 54.6822   2
  -7  21  -4 33.3793 48.6202   3
   7  21   5 189.829 65.5139   2
  -7  21  -5 416.882 78.3451   3
   7  21   6 445.247 92.7386   2
  -7  21  -6 755.221 115.877   1
   7  21   7 17.1353 55.3016   2
  -7  21  -7 142.024 78.4712   1
  -7  21  -8 869.835 123.795   1
   7  21   8 623.481 108.735   2
   7  21   9 1949.71 175.871   2
  -7  21  -9 2033.83 170.266   1
   7  21  10 465.093 99.8715   2
  -7  21 -10 628.474 106.379   1
  -7  22  13 479.351 99.7621   2
  -7  22  12 622.184 112.699   2
  -7  22  11 140.557 65.4201   2
  -7  22  11 326.188 92.3886   3
  -7  22  10 4054.69 229.579   2
  -7  22  10 3977.02 241.694   3
  -7  22   9-52.4053 61.5704   2
  -7  22   9 144.516 81.6794   3
  -7  22   8 447.169 87.7108   2
  -7  22   8 585.983 107.701   3
  -7  22   7 539.567 91.7642   2
  -7  22   7 509.447 104.905   3
  -7  22   6 908.331 113.106   2
  -7  22   6 948.515 119.392   3
  -7  22   5 426.300 81.5773   2
   7  22  -5 451.002 77.9579   1
  -7  22   5 513.786 100.689   3
  -7  22   4 4856.60 248.975   3
  -7  22   3 347.544 87.5058   3
  -7  22   2 141.495 65.6135   3
  -7  22   1 283.834 69.7522   3
   7  22   0 3482.73 193.047   2
  -7  22   0 3318.39 197.534   3
   7  22   1 103.435 64.6922   2
  -7  22  -1-3.01420 55.1720   3
   7  22   2 5605.96 246.245   2
  -7  22  -2 5622.01 244.544   3
   7  22   3-69.0296 60.3552   2
  -7  22  -3 120.171 62.4191   3
   7  22   4 10.4671 54.6954   2
   7  22   5-58.9675 63.8261   2
   7  22   6 2681.97 187.290   2
  -7  22  -6 2513.82 193.617   1
   7  22   7-5.16557 58.4791   2
   7  22   8 2872.43 202.723   2
   7  22   9 289.222 89.1935   2
  -7  23  12 252.674 82.8379   2
  -7  23  11 681.373 108.198   2
  -7  23  10 554.024 99.2356   2
  -7  23   9 254.502 73.9436   2
  -7  23   9 229.318 82.6561   3
  -7  23   8 919.495 110.863   2
  -7  23   8 1117.93 131.654   3
  -7  23   7 3.84507 54.7004   2
  -7  23   7 160.016 75.1632   3
  -7  23   6 3613.70 222.798   3
  -7  23   5 296.068 84.9895   3
  -7  23   4 1314.94 141.818   3
  -7  23   3 1033.31 126.296   3
  -7  23   2 2028.61 160.497   3
  -7  23   1 2110.64 161.590   3
  -7  23   0 1383.93 132.133   3
  -7  23  -1 80.9832 56.4532   3
   7  23   2 236.998 71.2789   2
   7  23   3 357.369 78.1910   2
   7  23   4 1465.34 138.063   2
   7  23   5 61.4422 62.9189   2
   7  23   6 166.640 66.7879   2
   7  23   7 87.3094 58.0988   2
  -7  24   9 1409.32 126.254   2
  -7  24   7 120.398 72.5912   3
  -7  24   6 68.6109 64.8948   3
  -7  24   5 2674.73 187.625   3
  -7  24   4 2939.28 196.182   3
  -7  24   3 576.180 98.0341   3
  -7  24   2 212.886 80.2761   3
  -7  24   1 68.6197 62.4539   3
  -7  25   5 115.805 60.8756   3
  -7  25   4 383.047 86.8234   3
  -8   0  29-29.6005 54.8153   2
  -8   0  28 462.149 93.1312   2
  -8   0  27-26.2099 66.9563   2
  -8   0  26 28.4511 58.4716   2
  -8   0  25-106.093 68.8784   2
  -8   0  24 1765.90 152.463   2
  -8   0  23-73.8371 60.0994   3
  -8   0  22 3213.72 177.390   3
  -8   0  21 134.635 53.8555   3
  -8   0  20 337.763 68.0779   3
  -8   0  19-7.77328 45.4168   3
  -8   0  18 1708.93 129.914   3
  -8   0  17-2.73839 45.5421   3
  -8   0  16 2226.31 138.580   3
  -8   0  15 47.5819 46.9719   3
  -8   0  14 42.0183 52.1026   3
  -8   0  13 34.7960 51.9230   3
  -8   0  12 15504.9 341.289   3
  -8   0  11 63.9586 46.9667   3
  -8   0  10 1856.43 126.368   3
  -8   0   9-20.6760 45.2696   3
  -8   0   8 77.6887 49.5684   3
  -8   0   7-1.46792 47.8672   3
  -8   0   6 1619.95 115.488   3
  -8   0   5-79.3894 52.8032   3
  -8   0   4 1291.59 104.873   3
  -8   0   3-4.26648 48.7184   3
  -8   0   2 2547.98 143.760   3
  -8   0   1-4.37788 52.9399   3
   8   0  -1 37.3700 25.9349   1
  -8   0   0-1.48917 47.8992   3
   8   0   0-8.66469 21.3002   1
   8   0   1-19.6802 22.6584   1
   8   0   1 35.9349 53.7308   2
   8   0   2 11081.8 304.475   2
   8   0   3 24.6606 47.9143   2
   8   0   4 3044.01 166.599   2
   8   0   5-1.35152 52.4975   2
   8   0   6 87.4830 51.4052   2
   8   0   7 40.2406 57.9275   2
   8   0   8 31.9103 50.6746   2
   8   0   9 12.3359 51.8602   2
   8   0  10 896.576 103.388   2
   8   0  11-34.5136 50.9003   2
   8   0  12 10264.9 322.239   2
   8   0  13 47.1872 54.7983   2
   8   0  14 86.8285 56.7750   2
   8   0  15-50.0170 60.5332   2
   8   0  16 242.236 70.4656   2
   8   0  17 68.0777 64.6844   2
   8   0  18 56.9395 60.1235   2
   8   0  19-50.1302 58.3658   2
   8   0  20 3988.08 227.548   2
   8   0  21-69.5346 58.3555   2
   8   0  22 62.8970 69.7428   2
   8   0  23-10.4620 59.0097   2
  -8   1  29-10.1721 62.2924   2
  -8  -1  28 671.394 103.921   2
  -8   1  28 448.074 92.2355   2
  -8  -1  27 226.761 69.4805   2
  -8   1  27 230.040 81.5465   2
  -8  -1  26 643.660 102.811   2
  -8   1  26 671.856 104.459   2
  -8  -1  25 307.283 80.1871   2
  -8   1  25 209.683 70.8253   2
  -8  -1  24 1401.94 138.159   2
  -8   1  24 1397.72 139.564   2
  -8   1  23 437.228 82.3214   3
  -8  -1  23 463.952 78.2965   3
  -8   1  22 1032.62 114.205   3
  -8  -1  22 897.039 98.9329   3
  -8   1  21 2403.10 156.830   3
  -8  -1  21 2484.55 152.564   3
  -8  -1  20 4354.15 195.996   3
  -8   1  20 4460.85 205.645   3
  -8  -1  19 1481.67 119.543   3
  -8   1  19 1468.14 122.405   3
  -8  -1  18 46.1549 51.3727   3
  -8   1  18 71.4397 54.6227   3
  -8  -1  17 809.345 90.2475   3
  -8   1  17 753.081 92.3541   3
  -8  -1  16 3332.28 169.062   3
  -8   1  16 3309.62 173.379   3
  -8  -1  15 3152.42 159.214   3
  -8   1  15 3029.32 164.149   3
  -8  -1  14 2383.08 138.875   3
  -8   1  14 2559.97 147.002   3
  -8  -1  13 5496.25 203.051   3
  -8   1  13 5540.86 211.537   3
  -8  -1  12 2740.88 145.655   3
  -8   1  12 2462.60 148.032   3
  -8  -1  11 711.163 81.1474   3
  -8   1  11 783.315 90.3613   3
  -8  -1  10 460.054 71.2020   3
  -8   1  10 396.724 71.1973   3
  -8  -1   9 800.274 83.0230   3
  -8   1   9 866.420 93.1512   3
  -8  -1   8 721.614 81.9851   3
  -8   1   8 646.572 79.0905   3
  -8  -1   7 3027.43 152.963   3
  -8   1   7 3121.65 157.840   3
  -8  -1   6-21.8783 46.3666   3
  -8   1   6-0.93798 45.7871   3
  -8  -1   5 51.0962 45.7958   3
  -8   1   5 40.8132 46.3448   3
  -8  -1   4 333.388 64.8320   3
  -8   1   4 259.861 59.2388   3
  -8  -1   3 3469.45 165.078   3
  -8   1   3 3295.36 163.324   3
  -8  -1   2 261.855 61.0973   3
  -8   1   2 312.645 62.0544   3
   8  -1  -2 324.513 40.7812   1
   8  -1  -1 198.497 33.5560   1
  -8  -1   1 147.591 54.8614   3
  -8   1   1 199.171 61.5126   3
   8  -1   0 537.263 45.4333   1
  -8   1   0 721.657 88.2679   3
   8   1   0 489.749 74.3003   2
   8   1   0 585.186 40.0791   1
   8   1   1 3474.42 175.848   2
  -8   1  -1 3297.86 168.210   3
   8   1   1 3308.59 80.4070   1
   8   1   2 54.0377 47.5861   2
   8  -1   2 71.6175 54.6422   2
   8   1   3 200.776 60.4701   2
   8  -1   3 311.381 67.7725   2
   8   1   4 372.784 79.7841   2
   8  -1   4 357.929 66.5164   2
   8   1   5 4481.30 205.524   2
   8  -1   5 4379.83 196.651   2
   8  -1   6 76.5608 59.2131   2
   8   1   6-10.9193 48.4743   2
   8  -1   7 690.594 90.2496   2
   8   1   7 905.072 100.958   2
   8   1   8 3975.19 196.782   2
   8  -1   8 4032.47 195.616   2
   8   1   9 57.7049 60.4920   2
   8  -1   9 174.464 62.6043   2
   8   1  10 46.4753 54.4021   2
   8  -1  10 47.8188 51.5686   2
   8   1  11 24.7222 50.1242   2
   8  -1  11-84.5052 64.3598   2
   8   1  12 248.869 73.8719   2
   8  -1  12 231.518 71.4574   2
   8   1  13 821.275 102.351   2
   8  -1  13 734.458 96.7657   2
   8   1  14 2197.63 159.380   2
   8  -1  14 1976.15 147.611   2
   8   1  15 2332.23 165.378   2
   8  -1  15 1972.21 150.524   2
   8  -1  16 2688.51 174.423   2
   8   1  16 2488.60 178.838   2
   8   1  17 112.069 67.5383   2
   8  -1  17 150.650 67.8918   2
   8   1  18 769.142 106.090   2
   8  -1  18 766.796 107.381   2
   8   1  19-31.2658 56.8526   2
   8  -1  19-6.90200 56.9093   2
   8   1  20 1069.67 125.187   2
   8  -1  20 1230.66 129.552   2
   8   1  21 414.941 93.3555   2
   8  -1  21 451.675 89.0328   2
   8   1  22 1611.06 152.556   2
   8  -1  22 1525.26 145.149   2
   8   1  23 484.434 98.2043   2
   8  -1  23 290.898 80.9676   2
  -8  -2  28 68.0434 64.9112   2
  -8   2  28 11.1937 65.6876   2
  -8   2  27 1244.41 144.811   2
  -8  -2  27 1420.37 139.052   2
  -8  -2  26 111.390 61.5294   2
  -8   2  26 257.043 74.8772   2
  -8  -2  25 2227.27 168.547   2
  -8   2  25 2542.69 191.349   2
  -8  -2  24 189.176 66.7977   2
  -8   2  24 125.334 79.0051   2
  -8   2  23 968.797 112.759   3
  -8  -2  23 840.153 94.2773   3
  -8   2  22 410.793 77.7033   3
  -8  -2  22 467.695 78.2153   3
  -8   2  21 1167.86 117.725   3
  -8  -2  21 1182.43 106.806   3
  -8   2  20 221.316 66.8296   3
  -8  -2  20 97.7428 51.0293   3
  -8  -2  19 126.358 54.1492   3
  -8   2  19-61.2642 52.5910   3
  -8  -2  18 20.4065 43.1488   3
  -8   2  18 171.311 66.0936   3
  -8  -2  17 15616.0 341.251   3
  -8   2  17 15682.7 372.747   3
  -8  -2  16 65.9043 49.2946   3
  -8   2  16 161.209 62.6633   3
  -8  -2  15 8.51896 43.4416   3
  -8   2  15-106.704 57.8091   3
  -8  -2  14 1304.04 105.269   3
  -8   2  14 1352.19 114.482   3
  -8  -2  13 3885.04 168.018   3
  -8   2  13 3548.20 175.047   3
  -8  -2  12 47.7456 46.6647   3
  -8   2  12-24.1925 51.4630   3
  -8  -2  11 4181.43 174.260   3
  -8   2  11 4117.90 185.382   3
  -8  -2  10 652.386 76.9790   3
  -8   2  10 796.953 91.8746   3
  -8  -2   9 7042.02 222.543   3
  -8   2   9 7259.73 239.700   3
  -8  -2   8 982.049 89.8886   3
  -8   2   8 1185.48 105.431   3
  -8  -2   7 634.604 76.6754   3
  -8   2   7 535.688 78.6207   3
  -8  -2   6-31.8303 45.8603   3
  -8   2   6-40.1336 46.1587   3
  -8  -2   5 10346.4 274.153   3
  -8   2   5 10589.3 290.749   3
  -8  -2   4 1020.58 95.1397   3
  -8   2   4 898.965 95.3985   3
  -8  -2   3 624.671 80.6750   3
  -8   2   3 770.415 92.9557   3
   8  -2  -2 95.2609 31.6829   1
  -8  -2   2 177.906 53.3604   3
  -8   2   2 115.806 55.0502   3
  -8   2   1 1991.41 132.356   3
   8   2  -1 1972.76 132.803   2
   8  -2  -1 1826.00 84.6429   1
   8  -2   0 19.2003 23.3658   1
  -8   2   0-5.34567 47.5071   3
   8   2   0-44.8429 56.0619   2
   8   2   0 2.42240 16.7869   1
   8   2   1 7117.70 245.713   2
  -8   2  -1 6972.23 241.661   3
   8   2   1 6197.09 100.393   1
   8   2   2 4.35092 48.3237   2
  -8   2  -2-29.2535 50.8947   3
   8   2   3 465.945 76.7856   2
   8  -2   3 472.167 78.0497   2
   8   2   4 127.805 57.6121   2
   8  -2   4 264.328 72.0741   2
   8  -2   5 167.872 60.6225   2
   8   2   5 81.0813 53.4173   2
   8  -2   6 52.9136 52.3903   2
   8   2   6 64.7538 55.0688   2
   8  -2   7 64.4933 50.7149   2
   8   2   7 36.4888 58.8170   2
   8  -2   8 289.237 75.7465   2
   8   2   8 340.437 74.8183   2
   8  -2   9 298.122 73.4350   2
   8   2   9 109.779 64.5946   2
   8   2  10 6995.75 265.368   2
   8  -2  10 6736.12 252.292   2
   8   2  11 2836.60 174.688   2
   8  -2  11 2784.51 165.785   2
   8   2  12 2544.11 167.651   2
   8  -2  12 2428.67 160.677   2
   8   2  13 6376.42 262.071   2
   8  -2  13 6104.90 246.105   2
   8   2  14 829.349 114.286   2
   8  -2  14 774.792 102.042   2
   8   2  15 341.198 79.4723   2
   8  -2  15 283.070 75.5699   2
   8   2  16 361.889 87.1146   2
   8  -2  16 450.451 87.7169   2
   8   2  17 1658.05 148.846   2
   8  -2  17 1610.26 145.577   2
   8   2  18 761.102 108.161   2
   8  -2  18 697.634 105.852   2
   8  -2  19 1372.66 137.356   2
   8   2  19 1221.03 136.012   2
   8   2  20 7.78452 61.9991   2
   8  -2  20 235.536 69.8363   2
   8   2  21-87.4958 73.0108   2
   8  -2  21-11.9973 54.7382   2
   8   2  22 348.151 85.1374   2
   8  -2  22 398.581 84.7684   2
   8  -2  23 1251.56 128.501   2
  -8   3  28 553.028 107.495   2
  -8   3  27 1548.71 156.383   2
  -8  -3  27 1241.63 126.963   2
  -8  -3  26 391.963 83.0033   2
  -8   3  26 255.154 85.0372   2
  -8  -3  25 1385.55 133.050   2
  -8   3  25 1354.24 145.965   2
  -8   3  24 818.563 119.351   2
  -8   3  23 403.415 81.9220   3
  -8   3  23 393.742 90.3246   2
  -8   3  22 819.164 106.032   3
  -8  -3  22 799.013 89.8920   3
  -8   3  21 251.303 72.1916   3
  -8  -3  21 154.151 49.7348   3
  -8   3  20 1498.66 131.571   3
  -8  -3  20 1464.91 115.584   3
  -8  -3  19 1648.04 117.562   3
  -8   3  19 1618.84 136.994   3
  -8  -3  18 50.7497 49.3669   3
  -8   3  18-12.4705 54.9538   3
  -8  -3  17 1027.98 93.0757   3
  -8   3  17 949.539 107.977   3
  -8  -3  16 3866.00 167.351   3
  -8   3  16 4254.44 199.837   3
  -8  -3  15 4841.61 185.117   3
  -8   3  15 4905.46 210.588   3
  -8  -3  14 782.381 80.9909   3
  -8   3  14 626.103 86.8720   3
  -8  -3  13 4015.71 168.270   3
  -8   3  13 4271.20 192.821   3
  -8  -3  12 6558.43 212.101   3
  -8   3  12 6610.41 236.769   3
  -8  -3  11 515.978 68.9775   3
  -8   3  11 647.552 87.7615   3
  -8  -3  10 61.1587 52.2371   3
  -8   3  10 76.9791 51.7835   3
  -8  -3   9 1269.01 101.432   3
  -8   3   9 1474.04 119.533   3
  -8  -3   8 4734.17 182.435   3
  -8   3   8 4807.60 201.151   3
  -8  -3   7 3402.66 156.593   3
  -8   3   7 3413.84 173.520   3
  -8  -3   6 699.324 76.9183   3
  -8   3   6 694.926 84.0188   3
  -8  -3   5-23.2793 42.6791   3
  -8   3   5 112.042 58.8702   3
  -8  -3   4 185.924 54.9109   3
  -8   3   4 169.720 63.0221   3
  -8  -3   3 910.753 90.3504   3
  -8   3   3 967.147 96.5061   3
   8  -3  -3 790.568 61.5225   1
  -8   3   2 5508.60 211.305   3
   8  -3  -2 5159.87 145.800   1
   8   3  -1 6480.72 231.892   2
   8  -3  -1 6248.75 156.309   1
  -8   3   1 6489.04 231.717   3
   8   3   0 186.050 66.6793   2
  -8   3   0 129.125 54.5040   3
   8  -3   0 91.3962 29.4869   1
   8   3   1 1437.53 44.5252   1
  -8   3  -1 1875.89 132.180   3
   8   3   1 1741.88 130.163   2
  -8   3  -2 9225.71 279.698   3
   8   3   2 9265.97 281.664   2
  -8   3  -3 792.884 97.6258   3
   8   3   3 972.778 104.899   2
   8  -3   4 3525.90 175.132   2
   8   3   4 3305.77 176.472   2
   8  -3   5 62.5938 56.7125   2
   8   3   5 112.202 58.1398   2
   8  -3   6 962.769 100.746   2
   8   3   6 910.876 104.766   2
   8  -3   7 1378.29 117.539   2
   8   3   7 1259.22 121.351   2
   8  -3   8 80.3403 58.5111   2
   8   3   8 91.2473 58.5117   2
   8  -3   9 775.383 98.3795   2
   8   3   9 772.408 100.105   2
   8  -3  10 7.10109 48.1558   2
   8   3  10 41.0465 56.7191   2
   8  -3  11-0.15683 51.5319   2
   8   3  11 89.6381 64.3931   2
   8   3  12 472.633 87.1087   2
   8  -3  12 532.691 84.4971   2
   8   3  13 353.241 81.8676   2
   8  -3  13 561.029 87.5312   2
   8   3  14 581.910 101.884   2
   8  -3  14 681.652 96.8171   2
   8   3  15 4782.66 237.809   2
   8  -3  15 4778.35 222.304   2
   8   3  16 2937.93 193.785   2
   8  -3  16 2796.65 175.671   2
   8   3  17 2834.99 191.871   2
   8  -3  17 2750.37 178.774   2
   8   3  18 1.89162 60.3426   2
   8  -3  18 15.6853 50.8187   2
   8   3  19-48.6845 72.0493   2
   8  -3  19-28.2877 58.0765   2
   8   3  20 772.605 119.180   2
   8  -3  20 657.886 99.5553   2
   8   3  21 164.525 68.5370   2
   8  -3  21 176.776 71.2855   2
   8   3  22 180.556 68.0980   2
   8  -3  22 253.801 68.8204   2
  -8   4  27-29.6097 59.9463   2
  -8  -4  26 341.259 78.4965   2
  -8   4  26 207.977 89.1737   2
  -8  -4  25 64.1686 54.5141   2
  -8   4  25-98.8781 69.5741   2
  -8   4  24 2096.08 178.195   2
  -8   4  23 430.160 87.2632   3
  -8   4  23 485.490 102.960   2
  -8   4  22 1008.71 118.920   3
  -8   4  21 604.487 94.0127   3
  -8  -4  21 531.979 74.9566   3
  -8   4  20 1667.76 143.690   3
  -8  -4  20 1448.17 111.962   3
  -8  -4  19 399.073 67.2186   3
  -8   4  19 289.765 73.0366   3
  -8  -4  18 1417.44 104.909   3
  -8   4  18 1201.40 118.143   3
  -8  -4  17 963.385 87.6077   3
  -8   4  17 856.521 101.778   3
  -8  -4  16 200.771 48.8621   3
  -8   4  16 306.614 72.3684   3
  -8  -4  15 7.83990 39.7325   3
  -8   4  15 117.382 61.0438   3
  -8  -4  14 502.825 66.6600   3
  -8   4  14 590.388 88.7092   3
  -8  -4  13 3.61976 39.6462   3
  -8   4  13 92.7696 56.8085   3
  -8  -4  12 2204.64 125.222   3
  -8   4  12 2479.46 152.333   3
  -8  -4  11 210.211 55.3060   3
  -8   4  11 325.451 75.3934   3
  -8  -4  10 20189.2 359.739   3
  -8   4  10 20388.1 412.323   3
  -8  -4   9 609.900 73.5695   3
  -8   4   9 533.617 79.8716   3
  -8  -4   8 6032.71 201.600   3
  -8   4   8 6295.20 230.983   3
  -8  -4   7 1424.42 102.452   3
  -8   4   7 1596.46 123.204   3
  -8  -4   6 139.185 47.1607   3
  -8   4   6 301.272 72.6859   3
  -8  -4   5 741.208 82.0748   3
  -8   4   5 901.209 97.5143   3
  -8  -4   4 2737.18 144.967   3
  -8   4   4 2991.30 158.435   3
  -8  -4   3 1844.05 120.506   3
  -8   4   3 2018.98 135.685   3
  -8   4   2 45.6874 54.1386   3
   8   4  -2 1.94030 56.2041   2
   8  -4  -2-42.5471 30.9376   1
   8   4  -1 2392.79 149.046   2
  -8   4   1 2303.78 142.816   3
   8  -4  -1 2381.23 100.577   1
   8   4   0 8040.00 263.996   2
  -8   4   0 8552.78 266.465   3
   8  -4   0 8166.82 180.759   1
   8   4   1 641.216 87.4731   2
  -8   4  -1 584.492 85.8888   3
   8   4   1 402.479 22.5375   1
  -8   4  -2 4033.42 188.133   3
   8   4   2 3807.85 184.784   2
  -8   4  -3 42.9496 53.0042   3
   8   4   3 168.333 64.7015   2
  -8   4  -4 937.917 101.439   3
   8   4   4 1137.51 113.802   2
   8  -4   5 464.506 78.1556   2
   8   4   5 342.183 76.4379   2
   8  -4   6 2178.87 143.073   2
   8   4   6 2018.67 145.879   2
   8  -4   7 458.302 76.5250   2
   8   4   7 372.452 81.8793   2
   8  -4   8 728.774 89.6109   2
   8   4   8 932.955 110.223   2
   8  -4   9 756.096 91.4910   2
   8   4   9 715.347 104.099   2
   8  -4  10 813.480 94.8724   2
   8   4  10 755.805 107.743   2
   8   4  11 1381.62 133.355   2
  -8   4 -11 1230.77 71.9925   1
   8  -4  11 1070.81 110.170   2
   8   4  12 1691.10 145.963   2
   8  -4  12 1761.38 134.372   2
   8   4  13 3720.41 210.375   2
   8  -4  13 3509.22 185.912   2
   8  -4  14 450.068 78.4888   2
   8   4  14 410.971 86.2015   2
   8   4  15-43.6439 66.9112   2
   8  -4  15-40.8342 53.6247   2
   8   4  16 1886.25 158.551   2
   8  -4  16 1819.05 142.305   2
   8   4  17-7.04828 63.2737   2
   8  -4  17-8.51747 53.3913   2
   8   4  18 1160.76 132.651   2
   8  -4  18 1202.83 124.501   2
   8   4  19 2.47504 66.8499   2
   8  -4  19-28.8662 54.1844   2
   8   4  20 8.90096 58.4660   2
   8  -4  20-5.93149 56.5610   2
   8   4  21 117.921 75.3170   2
   8  -4  21-1.96926 56.0418   2
  -8   5  26 1840.42 176.837   2
  -8  -5  25 25.3738 51.0088   2
  -8   5  25-99.3910 77.2112   2
  -8   5  24 2717.22 198.502   2
  -8   5  23 649.343 108.746   2
  -8   5  23 479.815 87.1745   3
  -8   5  22 224.576 73.9987   3
  -8   5  22 402.280 94.3675   2
  -8   5  21 908.527 114.226   3
  -8   5  20 2752.29 176.816   3
  -8  -5  20 2808.66 144.017   3
  -8  -5  19 762.929 81.4947   3
  -8   5  19 609.945 94.5142   3
  -8  -5  18 2862.34 143.002   3
  -8   5  18 2557.61 169.639   3
  -8  -5  17 96.3808 40.4807   3
  -8   5  17 178.071 68.4626   3
  -8  -5  16 43.7813 36.8769   3
  -8   5  16 42.6681 57.7266   3
  -8  -5  15 315.049 56.4171   3
  -8   5  15 351.972 79.4036   3
  -8  -5  14 11998.3 274.824   3
  -8   5  14 12231.9 338.189   3
  -8  -5  13 475.530 64.5239   3
  -8   5  13 423.137 72.4935   3
  -8  -5  12 3571.80 152.342   3
  -8   5  12 3624.48 188.382   3
  -8  -5  11 2018.63 117.897   3
  -8   5  11 2073.18 143.493   3
  -8  -5  10-43.0202 41.3971   3
  -8   5  10 44.7260 55.1987   3
  -8  -5   9 41.3919 39.9083   3
  -8   5   9 156.613 60.2529   3
  -8  -5   8 2254.17 125.844   3
  -8   5   8 2579.35 154.975   3
  -8  -5   7 1301.69 98.6832   3
  -8   5   7 1529.18 123.386   3
  -8  -5   6 3950.26 164.401   3
  -8   5   6 4212.79 192.931   3
  -8  -5   5-4.76126 46.1383   3
  -8   5   5-24.7262 54.1535   3
  -8  -5   4 1300.99 102.782   3
  -8   5   4 1561.03 121.642   3
  -8   5   3 2977.91 164.283   3
   8   5  -3 3149.78 166.550   2
   8   5  -2 8739.01 267.670   2
  -8   5   2 8457.57 267.566   3
   8   5  -1 119.857 56.7189   2
  -8   5   1-8.32913 52.1436   3
   8   5   0 27.7957 56.4977   2
  -8   5   0 162.274 58.4770   3
   8  -5   0 112.706 32.6910   1
   8   5   1 203.987 58.2683   2
  -8   5  -1 199.293 56.6300   3
   8   5   1 146.445 14.0068   1
  -8   5  -2 4855.35 206.234   3
   8   5   2 4462.27 205.089   2
  -8   5  -3 389.608 80.9613   3
   8   5   3 397.162 86.1359   2
  -8   5  -4 13654.2 347.472   3
   8   5   4 13361.9 351.318   2
  -8   5  -5 366.237 75.5166   3
   8   5   5 495.435 87.4579   2
   8   5   6 492.970 84.5731   2
   8  -5   7 479.584 74.7144   2
   8   5   7 347.941 74.0659   2
   8  -5   8 481.612 75.8260   2
   8   5   8 377.704 81.2779   2
   8  -5   9 1473.67 121.877   2
   8   5   9 1242.30 126.016   2
   8  -5  10 1445.08 117.883   2
   8   5  10 1443.92 133.115   2
  -8   5 -10 1453.18 85.6172   1
  -8   5 -11-12.1642 30.4539   1
   8  -5  11-53.9973 52.4147   2
   8   5  11-63.0366 60.6934   2
   8   5  12 1155.05 128.228   2
   8  -5  12 1119.51 109.521   2
   8  -5  13 605.232 86.5137   2
   8   5  13 486.178 96.7862   2
   8   5  14 6304.53 277.181   2
   8  -5  14 6111.92 239.616   2
   8  -5  15 756.471 97.0061   2
   8   5  15 704.416 111.954   2
   8  -5  16 391.783 76.4532   2
   8   5  16 258.699 78.2228   2
   8  -5  17 97.4811 55.3605   2
   8   5  17 322.406 88.9426   2
   8   5  18 81.3466 68.7858   2
   8  -5  18 106.277 57.0187   2
   8   5  19 469.028 102.125   2
   8  -5  19 245.487 69.0547   2
   8   5  20 2607.01 199.961   2
   8  -5  20 2926.92 178.620   2
   8   5  21 120.440 66.9093   2
  -8   6  26-24.0214 65.8464   2
  -8   6  25 68.9774 75.8948   2
  -8   6  24 415.392 101.768   2
  -8   6  23 2880.44 195.703   3
  -8   6  23 3109.99 207.798   2
  -8   6  22-45.6762 64.0921   3
  -8   6  22 18.0012 64.8547   2
  -8   6  21 1077.13 121.312   3
  -8   6  20 209.477 70.6997   3
  -8  -6  19 38.1663 36.4220   3
  -8   6  19 32.8483 58.4976   3
  -8  -6  18 591.565 69.0649   3
  -8   6  18 585.509 95.6232   3
  -8  -6  17 1827.83 110.563   3
  -8   6  17 1988.57 150.384   3
  -8  -6  16 5026.97 176.934   3
  -8   6  16 5365.14 235.222   3
  -8  -6  15 418.157 60.4463   3
  -8   6  15 475.245 85.4895   3
  -8  -6  14 257.809 53.0747   3
  -8   6  14 463.388 83.9369   3
  -8  -6  13 5227.77 177.967   3
  -8   6  13 4866.55 222.620   3
  -8  -6  12 296.968 52.3984   3
  -8   6  12 217.464 68.2288   3
  -8  -6  11 1386.22 97.1174   3
  -8   6  11 1272.96 117.843   3
  -8  -6  10 2159.38 119.113   3
  -8   6  10 2429.61 155.452   3
  -8  -6   9 4129.89 162.082   3
  -8   6   9 3661.70 184.670   3
  -8  -6   8 1131.19 92.3885   3
  -8   6   8 1096.71 110.170   3
  -8  -6   7 58.4819 48.2777   3
  -8   6   7 3.10928 55.1907   3
  -8  -6   6 8184.60 230.987   3
  -8   6   6 8045.07 269.681   3
  -8  -6   5 3709.52 160.877   3
  -8   6   5 3684.52 181.570   3
  -8  -6   4-37.9426 47.5758   3
  -8   6   4-0.07045 52.2518   3
   8   6  -3 185.006 57.9162   2
  -8   6   3 253.702 68.3866   3
   8   6  -2 1900.19 134.533   2
  -8   6   2 2068.61 140.160   3
   8   6  -1-31.1540 59.2972   2
  -8   6   1-15.6515 59.2376   3
   8   6   0 808.452 95.4935   2
  -8   6   0 888.059 94.5717   3
  -8   6  -1 3538.65 178.444   3
   8   6   1 3308.65 177.274   2
  -8   6  -2 16920.1 380.886   3
   8   6   2 17109.1 390.058   2
  -8   6  -3 10082.5 300.980   3
   8   6   3 10149.8 303.616   2
  -8   6  -4 7.61241 55.6323   3
   8   6   4 154.943 67.5958   2
  -8   6  -5 2093.43 140.551   3
   8   6   5 1899.22 145.127   2
  -8   6  -6 3915.84 194.891   3
   8   6   6 3825.00 198.242   2
  -8   6  -7-26.6259 54.4511   3
   8   6   7-60.5095 60.7898   2
   8   6   8-54.3692 70.6621   2
   8  -6   9 184.395 60.5556   2
   8   6   9 256.303 78.9480   2
  -8   6  -9 336.805 52.4304   1
   8  -6  10 267.708 65.9917   2
   8   6  10 304.262 79.9556   2
  -8   6 -10 403.660 55.4993   1
   8  -6  11 2426.49 150.247   2
   8   6  11 2328.72 168.760   2
  -8   6 -11 2260.83 109.883   1
   8  -6  12 471.607 77.1340   2
   8   6  12 422.986 89.9054   2
  -8   6 -12 493.063 61.2765   1
   8  -6  13 7326.50 255.592   2
   8   6  13 7012.28 288.288   2
   8  -6  14 484.475 82.7202   2
   8   6  14 477.305 93.5456   2
   8   6  15 1392.09 144.244   2
   8  -6  15 1088.73 109.960   2
   8   6  16 1197.94 139.550   2
   8  -6  16 1304.23 121.163   2
   8   6  17 1540.13 152.642   2
   8  -6  17 1461.11 126.869   2
   8   6  18 1548.22 157.078   2
   8  -6  18 1248.37 120.499   2
   8   6  19 799.751 119.826   2
   8   6  20 39.8428 62.3813   2
  -8   7  25 4043.88 248.287   2
  -8   7  24 269.906 87.4192   2
  -8   7  23 107.429 72.1585   2
  -8   7  23-119.679 72.3608   3
  -8   7  22 281.336 91.6826   2
  -8   7  22 209.827 78.1316   3
  -8   7  21 129.937 65.7733   3
  -8   7  21 59.5384 71.2254   2
  -8   7  20 20.3140 60.3222   3
  -8   7  19 16.9152 57.2978   3
  -8   7  18 631.445 96.3448   3
  -8  -7  17 224.267 45.0251   3
  -8   7  17 168.375 73.0968   3
  -8  -7  16 863.644 75.8171   3
  -8   7  16 800.891 105.439   3
  -8  -7  15 3668.09 145.686   3
  -8   7  15 3508.43 194.990   3
  -8  -7  14 2402.30 120.687   3
  -8   7  14 2505.87 166.429   3
  -8  -7  13 6570.60 193.826   3
  -8   7  13 6540.45 255.138   3
  -8  -7  12 4.96755 37.6976   3
  -8   7  12 126.765 63.1227   3
  -8  -7  11 230.516 52.5084   3
  -8   7  11 233.936 75.2129   3
  -8  -7  10 2939.78 133.682   3
  -8   7  10 3108.21 174.651   3
  -8  -7   9 3851.62 155.662   3
  -8   7   9 3749.57 191.509   3
  -8  -7   8-2.92592 34.8358   3
  -8   7   8 25.6724 58.4879   3
  -8  -7   7 5484.93 186.554   3
  -8   7   7 5647.89 226.887   3
  -8  -7   6 597.327 71.7574   3
  -8   7   6 561.053 88.5256   3
  -8  -7   5 1083.16 91.3575   3
  -8   7   5 1353.53 119.327   3
   8   7  -4-35.0120 56.6460   2
  -8   7   4 41.1379 54.8842   3
   8   7  -3 6826.09 240.516   2
  -8   7   3 6688.20 241.322   3
   8   7  -2 2006.19 138.160   2
  -8   7   2 1941.02 139.571   3
  -8   7   1 9283.13 285.809   3
   8   7  -1 9283.86 285.078   2
   8   7   0 400.702 78.1945   2
  -8   7   0 219.814 63.1739   3
  -8   7  -1 149.076 56.3233   3
   8   7   1 261.387 68.6769   2
  -8   7  -2 828.122 92.5316   3
   8   7   2 791.653 100.505   2
  -8   7  -3 5439.33 221.601   3
   8   7   3 5221.09 225.080   2
  -8   7  -4 126.175 59.2621   3
   8   7   4-57.4714 66.3711   2
  -8   7  -5 184.081 67.2428   3
   8   7   5-11.4086 60.1668   2
  -8   7  -6 248.417 65.5309   3
   8   7   6 147.914 63.3850   2
  -8   7  -7 306.938 67.4954   3
   8   7   7 218.764 68.6889   2
   8   7   8 516.142 91.9924   2
  -8   7  -8 472.144 83.8346   3
  -8   7  -9 836.821 101.746   3
   8   7   9 849.412 108.954   2
  -8   7  -9 830.743 73.7545   1
   8   7  10 3925.95 215.203   2
  -8   7 -10 3753.05 146.653   1
  -8   7 -11 775.440 72.1928   1
   8   7  11 695.825 105.005   2
   8  -7  11 940.215 98.3311   2
   8   7  12 381.822 93.3081   2
   8  -7  12 508.139 76.8025   2
  -8   7 -12 486.113 63.1273   1
   8  -7  13 1216.08 109.894   2
   8   7  13 1430.96 144.489   2
   8  -7  14 481.573 77.4077   2
   8   7  14 503.387 102.761   2
   8  -7  15 5295.21 223.212   2
   8   7  15 5624.92 269.374   2
   8  -7  16 27.6969 48.3242   2
   8   7  16 9.17059 65.1641   2
   8   7  17 1636.53 162.114   2
   8  -7  17 1781.91 138.997   2
   8   7  18 8.60298 69.9168   2
   8   7  19-36.6444 73.0404   2
   8   7  20 121.876 85.3547   2
  -8   8  25 31.2111 71.9770   2
  -8   8  24 889.498 129.661   2
  -8   8  23 106.020 69.5773   2
  -8   8  23 98.2859 68.9411   3
  -8   8  22 2014.64 169.605   3
  -8   8  22 2302.97 183.335   2
  -8   8  21 723.314 111.269   3
  -8   8  21 718.798 112.659   2
  -8   8  20 521.634 97.9955   3
  -8   8  19 1232.47 132.676   3
  -8   8  18 3013.32 191.377   3
  -8   8  17 2002.86 157.132   3
  -8  -8  16 201.559 45.6889   3
  -8   8  16 203.884 71.2505   3
  -8  -8  15 813.862 71.8893   3
  -8   8  15 1037.94 120.407   3
  -8  -8  14 253.970 50.4567   3
  -8   8  14 246.227 70.1709   3
  -8  -8  13 27.7117 33.2975   3
  -8   8  13 85.2693 66.3907   3
  -8  -8  12 849.294 73.0812   3
  -8   8  12 718.031 96.8763   3
  -8  -8  11 2436.64 119.982   3
  -8   8  11 2541.59 165.513   3
  -8  -8  10 6330.67 191.725   3
  -8   8  10 6251.38 249.071   3
  -8  -8   9 11330.7 258.018   3
  -8   8   9 11109.4 326.199   3
  -8  -8   8 42.1833 34.7557   3
  -8   8   8 81.2168 64.6024   3
  -8  -8   7-9.66021 40.2163   3
  -8   8   7 7.71395 53.8982   3
  -8  -8   6 474.025 62.6925   3
  -8   8   6 506.336 86.0662   3
  -8  -8   5-21.3590 40.6045   3
  -8   8   5 78.8626 59.2037   3
   8   8  -4 1337.73 113.396   2
  -8   8   4 1318.20 116.394   3
   8   8  -3 2984.81 162.885   2
  -8   8   3 3277.82 173.311   3
  -8   8   2 1304.47 118.002   3
   8   8  -2 1320.33 113.657   2
  -8   8   1 1381.12 119.972   3
   8   8  -1 1384.44 120.020   2
  -8   8   0 1803.14 134.516   3
   8   8   0 1526.88 126.019   2
  -8   8  -1 5425.45 221.815   3
   8   8   1 5303.04 222.090   2
  -8   8  -2 1513.56 126.947   3
   8   8   2 1073.33 112.022   2
  -8   8  -3 69.9223 54.8746   3
   8   8   3-102.422 62.2538   2
  -8   8  -4 227.097 62.2879   3
   8   8   4 238.141 60.6671   2
  -8   8  -5 528.324 83.5594   3
   8   8   5 348.479 79.8025   2
  -8   8  -6 97.5207 59.9585   3
   8   8   6 80.8022 53.0011   2
  -8   8  -7 718.147 94.6343   3
   8   8   7 526.637 88.7175   2
   8   8   8 733.219 104.592   2
  -8   8  -8 796.384 76.6330   1
  -8   8  -8 921.545 102.547   3
   8   8   9 1508.65 139.686   2
  -8   8  -9 1668.31 134.275   3
  -8   8  -9 1720.02 104.875   1
  -8   8 -10 855.237 105.050   3
   8   8  10 995.245 122.019   2
  -8   8 -10 975.309 84.6308   1
  -8   8 -11 296.388 70.8403   3
  -8   8 -11 453.777 63.8760   1
   8   8  11 463.525 88.0286   2
   8   8  12 128.442 76.7072   2
  -8   8 -12 69.4804 43.2566   1
   8   8  13 1050.78 129.137   2
   8  -8  13 989.139 99.5475   2
  -8   8 -13 884.485 81.3208   1
   8  -8  14 1285.47 114.234   2
   8   8  14 1144.26 132.563   2
   8   8  15 125.030 76.3640   2
   8  -8  15-27.9966 44.8278   2
   8   8  16 116.075 74.8132   2
   8  -8  16 83.6806 54.6451   2
   8   8  17 261.985 83.2807   2
   8   8  18 2097.58 184.978   2
   8   8  19 874.332 132.475   2
  -8   9  24 836.629 127.607   2
  -8   9  23 47.4984 63.9190   2
  -8   9  23 78.9303 61.1407   3
  -8   9  22 495.358 104.345   2
  -8   9  22 585.718 108.664   3
  -8   9  21 440.803 106.903   2
  -8   9  21 541.122 99.1741   3
  -8   9  20 1437.38 145.243   3
  -8   9  20 1304.54 145.552   2
  -8   9  19 88.1572 70.1076   3
  -8   9  18-52.3286 62.6114   3
  -8   9  17 372.730 90.4888   3
  -8   9  16 6826.95 278.644   3
  -8  -9  15 656.923 66.2463   3
  -8   9  15 728.612 106.978   3
  -8  -9  14 1260.14 83.8696   3
  -8   9  14 1271.56 126.878   3
  -8  -9  13 400.991 53.6277   3
  -8   9  13 562.317 91.6674   3
  -8  -9  12 2242.29 111.118   3
  -8   9  12 2163.29 156.263   3
  -8  -9  11 1505.61 93.9088   3
  -8   9  11 1449.94 135.427   3
  -8  -9  10 630.577 66.1146   3
  -8   9  10 675.236 96.9071   3
  -8  -9   9 99.0827 42.8449   3
  -8   9   9 126.925 64.0138   3
  -8  -9   8 3747.70 150.442   3
  -8   9   8 3732.42 192.501   3
  -8  -9   7 139.356 46.1562   3
  -8   9   7 178.793 69.3666   3
  -8  -9   6 2635.84 131.255   3
  -8   9   6 2750.73 167.473   3
  -8   9   5 352.056 72.4486   3
   8   9  -4 12.1658 48.6193   2
  -8   9   4 12.4605 60.5425   3
   8   9  -3 117.909 54.8902   2
  -8   9   3 204.723 64.9013   3
  -8   9   2 6856.94 250.433   3
   8   9  -2 6535.72 239.404   2
   8   9  -1 875.401 100.345   2
  -8   9   1 881.077 103.973   3
  -8   9   0 5.01417 60.6508   3
   8   9   0 102.832 56.4710   2
   8   9   1 791.420 39.5782   1
  -8   9  -1 869.729 96.3949   3
   8   9   1 882.231 102.759   2
  -8   9  -2 4114.94 199.822   3
   8   9   2 3940.88 200.375   2
  -8   9  -3 381.818 79.9053   3
   8   9   3 406.630 79.8889   2
  -8   9  -4 206.891 60.3506   3
   8   9   4 226.311 64.4194   2
  -8   9  -5 119.218 59.1914   3
   8   9   5 33.4700 62.5966   2
  -8   9  -6 2178.57 148.810   3
   8   9   6 2376.30 162.935   2
  -8   9  -7 893.058 100.403   3
   8   9   7 1008.47 114.705   2
  -8   9  -8-37.9463 59.9430   3
   8   9   8-98.0114 71.0185   2
  -8   9  -8 31.3860 39.3339   1
  -8   9  -9 718.638 80.4014   1
  -8   9  -9 600.537 89.0735   3
   8   9   9 759.888 108.796   2
  -8   9 -10 227.336 53.9333   1
   8   9  10 170.555 73.0890   2
  -8   9 -10 178.452 61.4037   3
  -8   9 -11 98.5235 52.5503   3
   8   9  11 98.4786 66.5477   2
  -8   9 -11 127.048 48.9825   1
  -8   9 -12 57.3448 53.6214   3
  -8   9 -12 87.6555 47.9318   1
  -8   9 -13-29.0050 50.0656   3
   8   9  13-6.54464 59.7967   2
  -8   9 -13 111.654 53.0522   1
  -8   9 -14 239.387 73.8259   3
   8   9  14 300.487 90.6624   2
   8   9  15 88.3778 71.0092   2
   8   9  16 5827.94 285.624   2
   8   9  17 1024.81 139.905   2
   8   9  18 164.270 87.1391   2
  -8  10  23 883.322 138.525   2
  -8  10  23 1221.18 144.791   3
  -8  10  22 2380.65 188.866   3
  -8  10  22 2449.16 194.324   2
  -8  10  21 637.747 113.360   2
  -8  10  21 588.511 110.860   3
  -8  10  20 705.175 111.595   3
  -8  10  20 254.111 85.0443   2
  -8  10  19 704.949 113.364   3
  -8  10  19 596.201 107.288   2
  -8  10  18 431.443 86.2630   3
  -8  10  17 2977.55 201.219   3
  -8  10  16 3574.42 210.411   3
  -8  10  15 64.0340 66.2672   3
  -8  10  14 244.306 78.8745   3
  -8 -10  13 44.8659 28.2467   3
  -8  10  13 22.5015 57.7803   3
  -8 -10  12 522.738 57.5625   3
  -8  10  12 544.600 91.2966   3
  -8 -10  11 5755.39 172.665   3
  -8  10  11 5866.34 249.186   3
  -8 -10  10 371.647 55.8289   3
  -8  10  10 476.804 87.0910   3
  -8 -10   9 2785.03 127.130   3
  -8  10   9 2654.00 170.291   3
  -8 -10   8 600.177 62.6458   3
  -8  10   8 672.322 92.2003   3
  -8 -10   7-3.29857 39.6649   3
  -8  10   7-38.6376 58.7409   3
  -8 -10   6 5493.60 184.646   3
  -8  10   6 5719.13 238.572   3
   8  10  -5 121.618 55.5947   2
  -8  10   5 168.448 63.3306   3
   8  10  -4-51.9986 56.7643   2
  -8  10   4 42.7230 54.4043   3
   8  10  -3 911.456 98.7719   2
  -8  10   3 1156.38 118.013   3
   8  10  -2 179.789 59.6109   2
  -8  10   2 154.963 61.1985   3
  -8  10   1 2897.57 169.356   3
   8  10  -1 2578.68 157.597   2
  -8  10   0 133.995 60.9335   3
   8  10   0 164.460 64.9276   2
  -8  10  -1 695.102 91.9966   3
   8  10   1 553.150 38.2337   1
   8  10   1 617.507 89.2672   2
  -8  10  -2 1436.42 123.939   3
   8  10   2 1553.10 130.103   2
  -8  10  -3 2035.34 147.321   3
   8  10   3 2179.38 153.216   2
  -8  10  -4 1072.98 111.750   3
   8  10   4 1061.86 118.177   2
  -8  10  -5 62.9616 51.3217   3
   8  10   5 111.272 63.5390   2
  -8  10  -6 178.363 62.7377   3
   8  10   6 190.306 71.9965   2
  -8  10  -7 137.638 60.0014   3
   8  10   7 143.875 62.7007   2
  -8  10  -7 312.488 64.3009   1
  -8  10  -8 362.348 73.8766   3
   8  10   8 331.818 76.1251   2
  -8  10  -8 506.705 73.2023   1
  -8  10  -9 99.0805 55.4931   1
  -8  10  -9-12.9645 51.2384   3
   8  10   9 49.4259 60.4494   2
  -8  10 -10 247.971 55.3777   1
  -8  10 -10 220.379 64.1070   3
   8  10  10 173.440 81.9057   2
  -8  10 -11 82.7175 55.8907   3
   8  10  11 73.0291 63.7487   2
  -8  10 -11 96.5196 49.6531   1
  -8  10 -12 2162.60 134.748   1
   8  10  12 1970.81 166.890   2
  -8  10 -12 1826.05 142.878   3
   8  10  13 269.902 88.3763   2
  -8  10 -13 147.796 61.9252   3
  -8  10 -13 140.617 53.4714   1
  -8  10 -14 675.834 99.3658   3
   8  10  14 552.533 102.024   2
   8  10  15 661.727 114.686   2
  -8  10 -15 476.969 90.9525   3
   8  10  16 1230.69 146.298   2
  -8  10 -16 1179.06 124.324   3
   8  10  17 1792.19 171.206   2
  -8  10 -17 1678.68 146.021   3
   8  10  18 18.3580 71.5381   2
  -8  10 -18-48.6689 53.9939   3
  -8  10 -19 1215.25 123.532   3
  -8  11  22 1456.69 158.824   2
  -8  11  22 1145.78 142.876   3
  -8  11  21 3414.15 225.051   3
  -8  11  21 3756.88 237.733   2
  -8  11  20 550.591 108.211   2
  -8  11  20 473.256 102.934   3
  -8  11  19 2105.71 175.976   3
  -8  11  19 1845.17 172.144   2
  -8  11  18 40.5528 65.8564   3
  -8  11  17 261.046 83.5707   3
  -8  11  16 32.3503 64.2609   3
  -8  11  15 7680.85 302.632   3
  -8  11  14 4.38394 60.6019   3
  -8  11  13 6298.61 268.184   3
  -8 -11  12 149.707 36.8281   3
  -8  11  12-20.7943 61.5944   3
  -8 -11  11 250.903 45.5633   3
  -8  11  11 234.610 77.0466   3
  -8 -11  10 79.9221 34.5855   3
  -8  11  10 81.9569 53.2162   3
  -8 -11   9 36.0844 31.6504   3
  -8  11   9 52.7904 60.5408   3
  -8 -11   8 116.300 38.7342   3
  -8  11   8 158.646 71.2737   3
  -8 -11   7 624.069 68.2932   3
  -8  11   7 654.076 92.0728   3
  -8 -11   6 335.147 57.7864   3
  -8  11   6 445.419 85.2997   3
   8  11  -5 875.351 94.0593   2
  -8  11   5 974.769 104.076   3
   8  11  -4 172.782 58.8179   2
  -8  11   4 276.811 70.6359   3
   8  11  -3 24.0583 49.7551   2
  -8  11   3 78.4765 52.9976   3
   8  11  -2 96.6797 60.9598   2
  -8  11   2-82.2496 67.5781   3
   8  11  -1 33.1295 48.8559   2
  -8  11   1-31.8623 61.2239   3
  -8  11   0 34.2321 51.9611   3
   8  11   0 92.1888 59.6473   2
   8  11   1 1466.07 64.6301   1
  -8  11  -1 1586.40 128.815   3
   8  11   1 1582.00 129.329   2
  -8  11  -2 72.4715 50.1230   3
   8  11   2 105.176 56.7262   2
  -8  11  -3 363.299 75.5637   3
   8  11   3 354.914 81.6598   2
  -8  11  -4 77.3526 59.9412   3
   8  11   4 75.7011 62.0923   2
   8  11   5 1763.36 141.657   2
  -8  11  -5 1786.54 140.565   3
  -8  11  -6 602.721 88.3674   3
   8  11   6 617.205 96.1497   2
  -8  11  -7 515.088 84.8167   3
   8  11   7 384.124 86.2126   2
  -8  11  -7 591.020 79.5938   1
  -8  11  -8 111.897 60.7341   3
   8  11   8 5.08551 63.2895   2
  -8  11  -8 141.673 53.2289   1
  -8  11  -9 88.6805 52.0568   1
  -8  11  -9 69.1567 58.9885   3
   8  11   9-6.65995 60.0537   2
  -8  11 -10 41.3039 50.3351   1
   8  11  10 10.3161 62.6937   2
  -8  11 -10-22.1549 56.7251   3
   8  11  11 3207.25 206.105   2
  -8  11 -11 3067.17 182.479   3
  -8  11 -11 3145.40 162.434   1
   8  11  12 259.242 91.0084   2
  -8  11 -12 256.563 71.9805   3
  -8  11 -12 366.087 68.9399   1
  -8  11 -13 2131.77 137.958   1
   8  11  13 2159.05 175.638   2
  -8  11 -13 2159.94 156.634   3
  -8  11 -14 723.423 92.1914   1
   8  11  14 427.805 101.688   2
  -8  11 -14 524.560 89.9055   3
   8  11  15 2128.99 181.492   2
  -8  11 -15 2065.34 157.651   3
   8  11  16 652.113 120.479   2
  -8  11 -16 525.899 91.3695   3
   8  11  17 507.089 113.040   2
  -8  11 -17 680.014 97.8194   3
  -8  11 -18 77.8140 53.1421   3
  -8  11 -19 114.091 52.1165   3
  -8  12  22 1437.15 155.372   3
  -8  12  22 1471.06 162.025   2
  -8  12  21 182.687 86.0422   2
  -8  12  21 91.5429 75.6579   3
  -8  12  20 185.527 77.0153   2
  -8  12  20 271.959 92.6620   3
  -8  12  19 576.263 101.655   2
  -8  12  19 559.452 102.305   3
  -8  12  18 82.5051 66.5725   3
  -8  12  18 104.256 85.3494   2
  -8  12  17 1277.95 141.875   3
  -8  12  16 63.1459 59.7073   3
  -8  12  15 768.024 113.395   3
  -8  12  14 133.534 72.8490   3
  -8  12  13 1080.46 127.843   3
  -8  12  12 6678.52 277.123   3
  -8  12  11 5486.20 249.736   3
  -8 -12  10 1713.36 95.6114   3
  -8  12  10 2091.97 158.321   3
  -8 -12   9 1466.28 91.2624   3
  -8  12   9 1483.63 136.961   3
  -8 -12   8 1916.08 105.470   3
  -8  12   8 1920.85 150.017   3
  -8 -12   7 269.152 49.8866   3
  -8  12   7 215.147 72.8465   3
  -8  12   6 258.251 74.2755   3
   8  12  -5 2600.56 153.197   2
  -8  12   5 2792.87 178.661   3
   8  12  -4 5232.54 214.603   2
  -8  12   4 5798.14 243.460   3
   8  12  -3 473.377 78.4509   2
  -8  12   3 583.604 93.2133   3
   8  12  -2 611.152 87.6633   2
  -8  12   2 612.698 93.0421   3
  -8  12   1 489.187 81.9102   3
   8  12  -1 438.911 79.8874   2
  -8  12   0 465.556 83.1062   3
   8  12   0 379.655 73.2305   2
  -8  12  -1 472.435 81.6402   3
   8  12   1 334.339 76.5817   2
  -8  12  -2 381.911 77.0215   3
   8  12   2 319.806 74.8310   2
  -8  12  -3 299.535 75.5521   3
   8  12   3 310.060 77.0313   2
  -8  12  -4 833.331 101.424   3
   8  12   4 916.553 108.440   2
  -8  12  -5 2152.97 150.417   3
   8  12   5 2468.70 169.316   2
  -8  12  -6 523.107 84.8707   3
   8  12   6 349.407 73.5697   2
  -8  12  -7 44.6960 54.7953   3
   8  12   7-119.000 70.3679   2
  -8  12  -7 139.473 55.9903   1
  -8  12  -8 0.94063 48.4050   3
  -8  12  -8 99.3827 57.5116   1
  -8  12  -9 811.369 94.7980   1
   8  12   9 962.666 123.220   2
  -8  12  -9 845.989 101.020   3
  -8  12 -10 923.766 98.9971   1
   8  12  10 967.375 119.308   2
  -8  12 -10 912.303 105.104   3
   8  12  11 160.428 76.4320   2
  -8  12 -11 115.124 53.6228   3
  -8  12 -11 155.363 58.2027   1
   8  12  12 1752.40 162.153   2
  -8  12 -12 1714.12 141.615   3
  -8  12 -12 1664.32 126.797   1
  -8  12 -13 3333.35 174.901   1
   8  12  13 3424.61 219.754   2
  -8  12 -13 3489.30 196.441   3
  -8  12 -14 73.8578 55.6548   1
   8  12  14 33.5107 77.2768   2
  -8  12 -14 4.13747 48.8476   3
   8  12  15 41.7459 67.1760   2
  -8  12 -15-51.4425 55.2328   3
   8  12  16 1200.65 149.629   2
  -8  12 -16 857.814 108.971   3
  -8  12 -17 436.918 82.3805   3
  -8  13  21 880.638 133.975   2
  -8  13  21 986.152 133.092   3
  -8  13  20 1329.98 148.903   2
  -8  13  20 1413.86 157.709   3
  -8  13  19 466.417 103.859   2
  -8  13  19 570.584 107.369   3
  -8  13  18 190.528 78.5344   2
  -8  13  18 338.213 88.1315   3
  -8  13  17 479.855 97.5762   3
  -8  13  17 366.333 95.5240   2
  -8  13  16 3046.00 203.558   3
  -8  13  15 167.260 79.8911   3
  -8  13  14 4733.75 243.723   3
  -8  13  13 61.1878 70.7571   3
  -8  13  12 73.8100 65.6345   3
  -8  13  11 97.4662 63.5967   3
  -8  13  10 217.145 79.3015   3
  -8 -13   9 2197.60 108.624   3
  -8  13   9 2206.58 162.735   3
  -8 -13   8 9374.32 224.880   3
  -8  13   8 9345.24 317.408   3
  -8 -13   7 1301.50 91.8753   3
  -8  13   7 1240.02 126.573   3
  -8  13   6 6977.21 275.734   3
   8  13  -5-6.41132 48.6898   2
  -8  13   5 28.7164 62.4332   3
   8  13  -4 3997.79 189.048   2
  -8  13   4 4010.67 205.887   3
   8  13  -3-35.4914 51.9422   2
  -8  13   3 62.0348 59.4592   3
  -8  13   2 2211.72 154.371   3
   8  13  -2 1905.63 136.576   2
  -8  13   1 348.195 76.2943   3
   8  13  -1 376.687 79.8426   2
  -8  13   0 15.8184 52.2827   3
   8  13   0 73.6184 58.0331   2
  -8  13  -1 204.472 67.0441   3
   8  13   1 227.004 71.9790   2
  -8  13  -2 330.162 62.6780   3
   8  13   2 399.673 87.0721   2
  -8  13  -3 23.9569 53.0091   3
   8  13   3 47.7101 63.0524   2
   8  13   4 7825.28 288.266   2
  -8  13  -4 7997.47 278.284   3
  -8  13  -5 268.862 73.3370   3
   8  13   5 127.880 67.8492   2
  -8  13  -6 1214.22 117.197   3
   8  13   6 915.964 108.899   2
   8  13   7 495.434 93.5159   2
  -8  13  -7 666.745 92.3428   3
  -8  13  -7 730.325 95.2145   1
   8  13   8 481.039 95.7803   2
  -8  13  -8 582.850 87.7011   3
  -8  13  -8 535.172 80.1149   1
  -8  13  -9 969.920 104.131   1
   8  13   9 731.565 112.242   2
  -8  13  -9 809.295 101.478   3
  -8  13 -10 49.0896 49.4688   1
   8  13  10 150.267 78.1804   2
  -8  13 -10 67.2427 56.5200   3
   8  13  11-11.0422 67.5016   2
  -8  13 -11-51.8526 55.5617   3
  -8  13 -11-0.63190 49.6734   1
   8  13  12 194.364 74.2702   2
  -8  13 -12 49.1436 50.8020   3
  -8  13 -12 129.703 62.3365   1
   8  13  13 758.550 120.537   2
  -8  13 -13 608.606 88.1017   3
  -8  13 -13 757.700 97.1430   1
   8  13  14 3549.14 232.550   2
  -8  13 -14 3924.25 192.822   1
  -8  13 -14 3807.60 203.795   3
   8  13  15 103.028 79.2056   2
  -8  13 -15 36.6898 55.8819   3
  -8  13 -16 2120.60 154.924   3
  -8  14  20 2427.22 197.419   3
  -8  14  20 2515.15 207.139   2
  -8  14  19 802.968 120.420   2
  -8  14  19 699.992 120.022   3
  -8  14  18 800.417 122.721   2
  -8  14  18 603.691 107.945   3
  -8  14  17 85.7277 71.4626   2
  -8  14  17-80.1273 63.3430   3
  -8  14  16 1417.84 147.873   3
  -8  14  16 1343.23 146.356   2
  -8  14  15 1057.36 128.403   3
  -8  14  14 471.341 100.306   3
  -8  14  13 42.2756 70.0523   3
  -8  14  12 2989.20 195.899   3
  -8  14  11 5557.83 258.699   3
  -8  14  10 8168.06 311.665   3
  -8  14   9 1643.52 150.616   3
  -8  14   8 990.550 120.212   3
  -8 -14   7 156.730 44.6783   3
  -8  14   7 252.681 80.5277   3
   8  14  -6 2570.25 152.526   2
  -8  14   6 2525.60 167.996   3
   8  14  -5 112.297 56.5656   2
  -8  14   5 92.0147 67.4107   3
   8  14  -4 1086.33 110.800   2
  -8  14   4 1365.48 129.550   3
  -8  14   3 1354.18 130.252   3
   8  14  -3 1393.11 121.404   2
   8  14  -2 505.827 85.2793   2
  -8  14   2 631.982 96.8446   3
  -8  14   1 3367.94 193.173   3
   8  14  -1 3516.87 186.180   2
  -8  14   0 3216.83 189.160   3
   8  14   0 3011.00 180.523   2
  -8  14  -1 8876.57 298.940   3
   8  14   1 8761.55 299.872   2
   8  14   2 2233.37 158.938   2
  -8  14  -2 2063.28 149.922   3
  -8  14  -3 33.8455 55.1223   3
   8  14   3 35.5317 58.5477   2
  -8  14  -4 763.655 95.4777   3
   8  14   4 667.773 100.517   2
  -8  14  -5 197.378 64.2889   3
   8  14   5 180.375 63.9150   2
   8  14   6 37.6335 62.5315   2
  -8  14  -6 115.647 59.9395   3
   8  14   7 307.069 84.0886   2
  -8  14  -7 365.843 74.8409   3
  -8  14  -7 413.496 76.7376   1
   8  14   8 719.789 109.139   2
  -8  14  -8 879.073 102.903   3
  -8  14  -8 756.972 94.8879   1
  -8  14  -9 401.448 84.5138   1
   8  14   9 227.965 71.3483   2
  -8  14  -9 335.993 76.1985   3
   8  14  10 1399.54 148.259   2
  -8  14 -10 1458.13 131.875   3
  -8  14 -10 1513.04 127.805   1
   8  14  11 1967.06 171.249   2
  -8  14 -11 1759.84 142.921   3
  -8  14 -11 1827.99 144.464   1
   8  14  12 752.358 119.161   2
  -8  14 -12 955.431 111.332   3
  -8  14 -12 801.964 98.9290   1
   8  14  13-47.0692 68.5566   2
  -8  14 -13-21.3749 50.4283   3
  -8  14 -13 109.066 62.3737   1
   8  14  14 187.913 87.1375   2
  -8  14 -14 28.5666 50.3989   3
  -8  14 -14 77.1656 58.3310   1
   8  14  15 663.483 123.513   2
  -8  14 -15 835.721 98.6963   3
  -8  15  19 3209.93 222.944   3
  -8  15  19 3179.16 225.960   2
  -8  15  18 26.1305 65.1291   2
  -8  15  18 74.8026 76.7465   3
  -8  15  17 299.817 90.6153   2
  -8  15  17 389.726 96.5394   3
  -8  15  16-78.6934 70.4100   2
  -8  15  16-59.3560 76.8853   3
  -8  15  15 1719.68 166.598   3
  -8  15  15 1647.23 160.986   2
  -8  15  14 1534.44 154.860   3
  -8  15  14 1712.91 160.217   2
  -8  15  13 2397.69 181.295   3
  -8  15  12 285.011 86.0903   3
  -8  15  11 5057.42 251.102   3
  -8  15  10 94.3687 72.9844   3
  -8  15   9 2065.14 164.380   3
  -8  15   8 406.870 89.2481   3
  -8  15   7 3496.98 204.691   3
   8  15  -6-67.6387 54.7807   2
  -8  15   6 44.4473 56.9960   3
   8  15  -5 55.6997 46.3457   2
  -8  15   5-6.73406 58.3487   3
   8  15  -4 632.859 85.2713   2
  -8  15   4 739.339 101.023   3
   8  15  -3 57.4646 51.1046   2
  -8  15   3 71.0922 67.6788   3
   8  15  -2 640.772 90.3957   2
  -8  15   2 699.246 98.8448   3
  -8  15   1 2682.19 168.377   3
   8  15  -1 2428.21 163.500   2
  -8  15   0 622.308 95.8685   3
   8  15   0 633.199 93.5240   2
   8  15   1 1257.74 122.450   2
  -8  15  -1 1189.69 120.192   3
   8  15   2 3156.29 186.305   2
  -8  15  -2 3057.43 181.580   3
  -8  15  -3 7535.77 277.092   3
   8  15   3 7482.25 284.894   2
   8  15   4 2819.07 184.763   2
  -8  15  -4 2857.80 177.802   3
   8  15   5 2134.63 163.344   2
  -8  15  -5 2054.51 151.185   3
   8  15   6 220.017 74.5242   2
  -8  15  -6 371.843 79.3883   3
   8  15   7 28.9327 57.9121   2
  -8  15  -7-36.3469 55.5133   3
  -8  15  -7 58.5154 59.4246   1
   8  15   8 23.2866 56.6228   2
  -8  15  -8 52.2425 53.5512   3
  -8  15  -8 3.01949 60.3497   1
   8  15   9 1464.68 145.201   2
  -8  15  -9 1584.33 136.790   3
  -8  15  -9 1745.24 140.674   1
  -8  15 -10 819.720 102.704   1
   8  15  10 755.982 116.311   2
  -8  15 -10 794.360 102.459   3
   8  15  11 750.960 118.378   2
  -8  15 -11 636.905 94.6204   1
  -8  15 -11 703.996 95.1497   3
   8  15  12 125.172 75.0633   2
  -8  15 -12 0.83940 50.1689   3
  -8  15 -12 45.1928 62.0391   1
   8  15  13 607.703 110.441   2
  -8  15 -13 569.681 87.2230   3
  -8  15 -13 558.591 96.9612   1
   8  15  14 865.054 138.206   2
  -8  15 -14 850.658 99.6471   3
  -8  15 -14 877.052 106.501   1
  -8  16  18 113.036 78.9849   2
  -8  16  18 189.528 74.6979   3
  -8  16  17 647.213 116.801   2
  -8  16  17 352.769 95.5191   3
  -8  16  16 214.879 85.4564   2
  -8  16  16 43.9923 67.1655   3
  -8  16  15 1275.48 150.521   3
  -8  16  15 1845.24 165.642   2
  -8  16  14 973.772 127.437   3
  -8  16  14 863.247 119.809   2
  -8  16  13 2002.69 172.957   3
  -8  16  13 1939.25 169.162   2
  -8  16  12 561.574 107.694   3
  -8  16  11 4266.16 236.567   3
  -8  16  10 407.593 94.5591   3
  -8  16   9 2495.01 179.819   3
  -8  16   8 157.294 71.8585   3
  -8  16   7 603.099 99.1102   3
   8  16  -6 1742.10 127.757   2
  -8  16   6 1972.98 160.364   3
   8  16  -5 2583.52 155.039   2
  -8  16   5 2311.42 171.716   3
   8  16  -4 73.7153 54.1728   2
  -8  16   4 69.7587 59.3425   3
   8  16  -3 607.175 87.7741   2
  -8  16   3 569.956 94.2057   3
   8  16  -2 55.6476 51.0656   2
  -8  16   2 52.0977 61.2815   3
  -8  16   1 63.5269 60.9776   3
   8  16  -1 73.0900 57.7985   2
  -8  16   0 1663.46 141.203   3
   8  16   0 1446.35 129.568   2
   8  16   1 4446.48 218.262   2
  -8  16  -1 4804.44 226.818   3
  -8  16  -2 213.224 68.4236   3
   8  16   2 310.208 81.5423   2
   8  16   3 1717.25 146.888   2
  -8  16  -3 1590.72 132.994   3
   8  16   4 482.765 92.0355   2
  -8  16  -4 329.397 83.3865   3
   8  16   5 1835.15 152.923   2
  -8  16  -5 1590.22 135.147   3
   8  16   6-10.2466 60.8181   2
  -8  16  -6 106.707 59.2798   3
   8  16   7 1486.06 146.377   2
  -8  16  -7 1332.64 126.126   3
  -8  16  -7 1294.08 124.640   1
   8  16   8 29.2515 58.7526   2
  -8  16  -8 163.134 63.9757   3
  -8  16  -8 181.430 75.6606   1
  -8  16  -9 27.7995 55.4629   1
   8  16   9-8.13114 60.1290   2
  -8  16  -9 22.3710 47.1994   3
  -8  16 -10 121.221 66.2054   1
   8  16  10 63.6045 62.1377   2
  -8  16 -10 134.885 60.9444   3
   8  16  11 2412.34 193.106   2
  -8  16 -11 2493.62 164.189   3
  -8  16 -11 2531.46 173.619   1
   8  16  12 131.584 83.8978   2
  -8  16 -12 31.9151 56.4155   1
  -8  16 -12-26.5002 51.9501   3
   8  16  13 3082.25 223.688   2
  -8  16 -13 3117.89 186.069   1
  -8  16 -14 70.7559 64.3163   1
  -8  17  17 1099.33 137.360   2
  -8  17  17 1022.42 142.599   3
  -8  17  16 973.696 133.576   2
  -8  17  16 981.333 135.661   3
  -8  17  15 271.190 88.5998   2
  -8  17  15 263.246 94.3226   3
  -8  17  14 2752.55 211.734   3
  -8  17  14 2100.69 183.417   2
  -8  17  13 3383.00 220.238   3
  -8  17  13 3125.43 218.773   2
  -8  17  12 765.825 120.236   3
  -8  17  12 586.789 107.387   2
  -8  17  11 216.101 81.8014   3
  -8  17  10 266.957 83.8830   3
  -8  17   9 700.723 108.225   3
  -8  17   8 1699.17 152.505   3
  -8  17   7 1721.63 152.487   3
   8  17  -6 583.623 81.6623   2
  -8  17   6 466.693 91.6217   3
   8  17  -5 293.400 66.9743   2
  -8  17   5 435.342 90.2807   3
   8  17  -4 210.232 60.9378   2
  -8  17   4 417.042 90.6190   3
  -8  17   3 2828.59 182.207   3
   8  17  -3 3065.23 173.449   2
   8  17  -2-50.2516 48.3150   2
  -8  17   2-93.3690 62.0107   3
  -8  17   1 1516.44 136.369   3
   8  17  -1 1601.47 136.498   2
  -8  17   0 389.554 82.9025   3
   8  17   0 525.305 88.7120   2
  -8  17  -1 60.6790 52.8425   3
   8  17   1 11.1893 52.4299   2
  -8  17  -2 345.535 79.0344   3
   8  17   2 238.559 73.1809   2
   8  17   3 3253.47 196.686   2
  -8  17  -3 3154.54 189.376   3
   8  17   4 4219.92 226.923   2
  -8  17  -4 4602.74 223.706   3
   8  17   5 443.373 91.6319   2
  -8  17  -5 478.975 84.7867   3
   8  17   6 14.4570 56.8822   2
  -8  17  -6-53.2950 56.2444   3
   8  17   7 207.757 77.3591   2
  -8  17  -7 272.999 65.7779   3
  -8  17  -7 216.245 73.2231   1
   8  17   8 42.4938 60.2446   2
  -8  17  -8 40.0914 48.0710   3
  -8  17  -8 138.658 70.8475   1
   8  17   9 1324.10 145.788   2
  -8  17  -9 1401.26 126.882   3
  -8  17  -9 1299.78 132.023   1
  -8  17 -10 146.548 70.9632   1
   8  17  10 82.8642 74.2890   2
  -8  17 -10 141.663 60.0245   3
  -8  17 -11 1047.91 119.946   1
   8  17  11 1122.64 142.596   2
  -8  17 -11 1028.54 107.905   3
   8  17  12 100.795 80.5269   2
  -8  17 -12 98.6018 66.6091   1
  -8  17 -13 927.568 111.413   1
  -8  17 -14 2703.81 176.738   1
  -8  18  16 76.9252 71.4113   2
  -8  18  15 372.966 86.0715   2
  -8  18  15 218.392 89.1451   3
  -8  18  14 217.214 89.8075   2
  -8  18  14 109.256 81.8299   3
  -8  18  13 16.8448 67.4515   2
  -8  18  13 88.6859 79.8387   3
  -8  18  12 3137.14 218.065   3
  -8  18  12 3230.12 210.983   2
  -8  18  11 116.469 77.5863   3
  -8  18  11 9.33789 57.5246   2
  -8  18  10 2271.16 182.490   3
  -8  18  10 1769.17 159.640   2
  -8  18   9 2866.21 198.990   3
  -8  18   8 506.466 98.2696   3
  -8  18   7 8.76603 57.7835   3
   8  18  -6 453.404 72.2649   2
  -8  18   6 385.310 85.4696   3
   8  18  -5 394.522 76.9783   2
  -8  18   5 383.904 85.3830   3
  -8  18   4 1290.06 129.914   3
   8  18  -4 1215.17 116.226   2
   8  18  -3-78.9401 53.6125   2
  -8  18   3 11.7498 55.6884   3
   8  18  -2 123.161 59.6061   2
  -8  18   2 139.760 59.9315   3
  -8  18   1 345.129 79.3110   3
   8  18  -1 117.330 57.8771   2
  -8  18   0 867.327 108.093   3
   8  18   0 820.172 104.566   2
  -8  18  -1-20.4702 54.5602   3
   8  18   1 143.040 66.4208   2
  -8  18  -2 806.115 103.991   3
   8  18   2 884.363 111.795   2
   8  18   3 35.7036 55.5652   2
  -8  18  -3-26.9436 52.6516   3
   8  18   4 408.705 83.3779   2
  -8  18  -4 549.181 94.1271   3
   8  18   5 2222.28 171.646   2
  -8  18  -5 2083.19 156.503   3
   8  18   6 718.054 112.626   2
  -8  18  -6 716.687 101.868   3
   8  18   7 78.3155 64.8196   2
  -8  18  -7 132.498 70.2993   1
  -8  18  -7 35.9048 53.9114   3
   8  18   8 1384.88 149.142   2
  -8  18  -8 1577.88 133.462   3
  -8  18  -8 1543.55 146.926   1
   8  18   9 7.25859 69.8622   2
  -8  18  -9 69.2220 53.3009   3
  -8  18  -9 56.5276 68.0457   1
  -8  18 -10 63.8052 57.0289   1
   8  18  10 38.3760 68.3909   2
  -8  18 -11 44.8709 61.1058   1
   8  18  11 25.7098 71.3115   2
  -8  18 -12 2115.18 161.069   1
  -8  18 -13 57.2124 57.3723   1
  -8  18 -14 1900.86 152.468   1
  -8  19  15 1124.31 144.171   2
  -8  19  14 38.6678 63.7257   2
  -8  19  14-25.3663 74.9331   3
  -8  19  13 547.113 100.471   2
  -8  19  13 547.601 108.521   3
  -8  19  12 37.5879 63.8301   2
  -8  19  12 343.478 93.5868   3
  -8  19  11 278.025 84.1512   2
  -8  19  11 380.094 88.8013   3
  -8  19  10-148.203 70.7994   2
  -8  19  10 1.70406 65.8342   3
  -8  19   9 263.033 81.4016   3
  -8  19   9 193.169 67.4766   2
  -8  19   8 1679.04 156.218   3
  -8  19   8 1424.89 140.638   2
  -8  19   7 314.588 84.2326   3
  -8  19   6 728.333 110.838   3
   8  19  -5 1051.11 103.131   2
  -8  19   5 960.294 120.412   3
   8  19  -4 202.917 59.1370   2
  -8  19   4 333.085 86.9111   3
   8  19  -3 213.070 61.6651   2
  -8  19   3 340.160 85.1834   3
   8  19  -2 750.955 97.9568   2
  -8  19   2 799.121 105.745   3
  -8  19   1 682.808 98.9433   3
   8  19  -1 618.323 94.9492   2
  -8  19   0 29.8580 54.2029   3
   8  19   0 106.133 59.7320   2
  -8  19  -1 243.103 68.7725   3
   8  19   1 207.858 70.6569   2
  -8  19  -2 551.027 94.2426   3
   8  19   2 572.593 96.0195   2
   8  19   3 190.499 65.3464   2
  -8  19  -3 266.602 72.2494   3
   8  19   4 24.3046 58.4176   2
  -8  19  -4 124.113 63.3147   3
   8  19   5 59.8864 60.2091   2
  -8  19  -5 188.019 61.1686   3
   8  19   6-106.503 73.4551   2
  -8  19  -6 34.2154 53.0236   3
   8  19   7 406.278 94.3982   2
  -8  19  -7 539.065 87.7113   3
   8  19   8-78.7167 65.4500   2
  -8  19  -8-1.64268 53.9415   3
  -8  19  -8 14.6527 57.4102   1
   8  19   9 352.783 95.1262   2
  -8  19  -9 364.711 90.2453   1
  -8  19 -10 839.770 114.211   1
   8  19  10 877.397 129.306   2
  -8  19 -11 159.261 59.1103   1
  -8  19 -12 571.284 99.2178   1
  -8  19 -13 89.9710 68.6331   1
  -8  20  14 381.700 98.0597   2
  -8  20  13 107.479 67.3188   2
  -8  20  12 103.470 68.4056   2
  -8  20  12 100.795 75.2263   3
  -8  20  11 1025.38 129.052   2
  -8  20  11 1004.17 131.503   3
  -8  20  10 9.95035 58.9194   2
  -8  20  10 155.801 84.5341   3
  -8  20   9 1036.68 126.897   2
  -8  20   9 1173.76 134.606   3
  -8  20   8 13.8575 54.0917   2
  -8  20   8 231.898 80.2401   3
  -8  20   7 789.798 109.959   2
  -8  20   7 855.299 116.059   3
  -8  20   6 268.777 85.5779   3
  -8  20   6 41.5320 56.6945   2
  -8  20   5 383.895 86.4739   3
  -8  20   5 319.064 77.3496   2
   8  20  -4 578.412 83.6079   2
  -8  20   4 650.113 103.889   3
   8  20  -3 241.518 62.7094   2
  -8  20   3 176.887 66.5836   3
   8  20  -2 967.072 107.987   2
  -8  20   2 819.810 115.886   3
  -8  20   1 272.787 75.9274   3
   8  20  -1 313.215 73.1254   2
  -8  20   0 39.9069 55.9589   3
   8  20   0 87.6876 60.1070   2
   8  20   1 3118.60 194.817   2
  -8  20  -1 3167.31 199.006   3
  -8  20  -2 345.696 83.2091   3
   8  20   2 128.379 66.0847   2
   8  20   3 305.102 81.1120   2
  -8  20  -3 326.729 78.2101   3
   8  20   4 422.059 87.1370   2
  -8  20  -4 392.477 78.1538   3
   8  20   5 65.1229 60.5892   2
  -8  20  -5 270.314 80.9279   3
   8  20   6-39.2311 69.6269   2
  -8  20  -6 314.168 79.8426   3
   8  20   7 2012.71 175.035   2
   8  20   8-3.66006 64.3200   2
  -8  20  -8 258.494 94.0556   1
   8  20   9 40.3573 70.5174   2
  -8  20  -9 84.5579 68.3008   1
  -8  20 -10 85.1967 66.7370   1
  -8  21  13 645.893 115.652   2
  -8  21  12 2108.02 176.049   2
  -8  21  11-38.4189 57.1337   2
  -8  21  10-12.5279 57.0111   2
  -8  21  10-27.6238 66.2854   3
  -8  21   9 482.455 96.2715   2
  -8  21   9 679.558 118.083   3
  -8  21   8 874.067 114.888   2
  -8  21   8 1105.43 138.529   3
  -8  21   7 1176.75 125.150   2
  -8  21   7 1211.79 141.869   3
  -8  21   6-13.2680 51.5998   2
  -8  21   6 54.0639 62.3632   3
  -8  21   5-116.282 57.3673   2
  -8  21   5 30.7205 61.1059   3
  -8  21   4-1.26103 49.5512   2
  -8  21   4-21.1379 61.0069   3
  -8  21   3 67.7446 61.1864   3
  -8  21   2 1097.78 124.439   3
  -8  21   1 162.718 67.1925   3
   8  21  -1 203.021 64.2711   2
  -8  21   0 15.5987 56.3864   3
   8  21   0 51.4801 56.0841   2
  -8  21  -1 5.75297 53.2643   3
   8  21   1 94.8876 57.8891   2
   8  21   2 1627.86 147.806   2
  -8  21  -2 1765.79 148.145   3
   8  21   3 231.415 73.8431   2
  -8  21  -3 249.920 66.3834   3
   8  21   4 244.226 82.2288   2
  -8  21  -4 185.041 68.0449   3
   8  21   5 1730.64 155.422   2
  -8  21  -5 1751.19 140.283   3
   8  21   6 302.599 81.6617   2
   8  21   7-28.7687 57.8469   2
  -8  22  11 40.1498 60.5814   2
  -8  22  10 3927.48 226.102   2
  -8  22   9 402.548 87.6877   2
  -8  22   8 43.0754 58.3966   2
  -8  22   8-34.3230 60.7004   3
  -8  22   7 27.0258 52.8729   2
  -8  22   7 176.852 73.5174   3
  -8  22   6 1853.73 167.224   3
  -8  22   6 1927.79 152.330   2
  -8  22   5 529.468 99.3401   3
  -8  22   4 1162.78 133.411   3
  -8  22   3 35.7208 59.5604   3
  -8  22   2-17.5451 56.0894   3
  -8  22   1 31.1611 58.2399   3
  -8  22   0 2925.05 188.753   3
  -8  22  -1 56.9776 64.7071   3
   8  22   1-69.4880 52.8459   2
  -8  22  -2 1384.16 136.782   3
   8  22   2 1339.82 128.618   2
   8  22   3 302.339 79.5301   2
  -8  22  -3 316.250 76.3825   3
   8  22   4 144.299 66.5714   2
   8  22   5-55.7947 62.8323   2
   8  22   6 3178.38 208.260   2
  -8  23  10 207.491 75.8265   2
  -8  23   9 55.5016 62.5766   2
  -8  23   8 4045.57 216.133   2
  -8  23   6 1128.81 137.406   3
  -8  23   5 315.942 85.8980   3
  -8  23   4 1185.88 132.180   3
  -8  23   3 850.524 126.457   3
  -8  23   2 237.399 71.3789   3
  -8  23   1 273.302 82.8838   3
  -8  23   0 332.118 74.7843   3
  -8  23  -1 238.961 72.9132   3
   8  23   3 1257.59 122.273   2
   8  23   4 913.007 113.511   2
   8  23   5 1405.63 135.107   2
  -8  24   3 374.080 82.2039   3
  -9   0  27-98.1443 69.3141   2
  -9   0  26 1541.63 155.019   2
  -9   0  25-200.133 77.0134   2
  -9   0  24 3036.04 183.170   3
  -9   0  23 113.442 61.3935   3
  -9   0  22 2580.44 167.933   3
  -9   0  21-13.9213 49.5333   3
  -9   0  20 44.4637 50.2830   3
  -9   0  19-82.0427 61.0364   3
  -9   0  18 199.902 61.5474   3
  -9   0  17-42.8917 52.8423   3
  -9   0  16 133.907 54.3510   3
  -9   0  15-1.74870 49.9474   3
  -9   0  14 127.083 56.8577   3
  -9   0  13 81.3615 54.6417   3
  -9   0  12 25.4921 45.8773   3
  -9   0  11-23.5503 47.4479   3
  -9   0  10 65.1390 52.7210   3
  -9   0   9-6.06850 56.3616   3
  -9   0   8 26.1226 52.4475   3
  -9   0   7 13.5245 51.0701   3
  -9   0   6 7359.32 254.170   3
  -9   0   5-34.6523 58.0928   3
  -9   0   4-4.60267 55.1774   3
  -9   0   3-6.36374 50.2628   3
  -9   0   2 81.5990 51.9863   3
   9   0  -2 22.8571 28.7951   1
  -9   0   1-35.3672 57.9463   3
   9   0  -1 32.5757 23.5714   1
  -9   0   0 380.898 70.6751   3
   9   0   0 476.244 38.4716   1
  -9   0  -1-19.1611 51.0245   3
   9   0   2 1010.87 107.579   2
   9   0   3 32.0139 56.5963   2
   9   0   4 3793.97 194.043   2
   9   0   5-39.3180 57.3998   2
   9   0   6 6279.16 251.922   2
   9   0   7 30.8377 53.3404   2
   9   0   8-86.8472 63.7944   2
   9   0   9-58.8402 57.3734   2
   9   0  10 60.4248 61.0184   2
   9   0  11-42.9304 66.1914   2
   9   0  12 6588.43 273.703   2
   9   0  13 32.6811 56.4134   2
   9   0  14 4566.67 232.648   2
   9   0  15 191.959 88.4387   2
   9   0  16 3770.34 218.232   2
   9   0  17 98.4804 75.5124   2
   9   0  18 4364.48 241.276   2
   9   0  19 19.4109 57.9830   2
   9   0  20 3789.41 226.616   2
   9   0  21-7.86814 61.7887   2
  -9  -1  27 68.3771 58.9194   2
  -9   1  27 373.752 90.6037   2
  -9  -1  26 801.234 112.602   2
  -9   1  26 951.580 123.760   2
  -9   1  25 207.146 78.1621   2
  -9   1  24 193.316 73.2140   3
  -9  -1  24 223.453 70.4844   3
  -9   1  23 378.230 82.1258   3
  -9  -1  23 360.176 71.9653   3
  -9  -1  22 1033.79 116.385   3
  -9   1  22 1106.07 118.625   3
  -9  -1  21 4530.73 214.911   3
  -9   1  21 4628.35 223.723   3
  -9  -1  20 195.223 60.4500   3
  -9   1  20 186.935 59.8418   3
  -9  -1  19 308.177 68.1099   3
  -9   1  19 203.309 60.2709   3
  -9  -1  18-47.9233 49.8230   3
  -9   1  18 44.1387 50.8473   3
  -9  -1  17 264.260 62.8168   3
  -9   1  17 223.357 69.0286   3
  -9  -1  16 95.9459 54.7306   3
  -9   1  16 37.4156 57.8875   3
  -9  -1  15 13.6809 44.5109   3
  -9   1  15 14.7739 49.6194   3
  -9  -1  14 30.0499 54.1368   3
  -9   1  14 0.30836 49.5746   3
  -9  -1  13 1502.61 121.043   3
  -9   1  13 1502.00 123.481   3
  -9  -1  12 2005.50 132.385   3
  -9   1  12 1875.84 133.502   3
  -9  -1  11 2.58362 47.2380   3
  -9   1  11 24.7646 48.5920   3
  -9  -1  10 93.9087 52.7196   3
  -9   1  10 101.394 54.2341   3
  -9  -1   9-40.7282 56.4142   3
  -9   1   9-55.8392 53.5150   3
  -9  -1   8 1211.26 107.705   3
  -9   1   8 1141.62 109.510   3
  -9  -1   7 3197.94 166.384   3
  -9   1   7 3433.78 177.535   3
  -9  -1   6 3820.57 181.326   3
  -9   1   6 3912.56 186.527   3
  -9  -1   5-1.38546 51.8276   3
  -9   1   5 3.31221 56.8465   3
  -9  -1   4-97.1492 59.7659   3
  -9   1   4-34.8393 51.2974   3
  -9  -1   3 8436.95 270.908   3
  -9   1   3 8531.37 274.301   3
  -9  -1   2 2280.06 146.761   3
  -9   1   2 2280.73 151.026   3
   9  -1  -2 2333.96 94.3779   1
   9   1  -1 138.984 29.5277   1
  -9  -1   1-13.7366 53.9706   3
  -9   1   1 57.0945 60.9948   3
   9  -1  -1 163.245 33.9641   1
   9   1   0 5.33497 19.2756   1
  -9  -1   0 35.0974 57.4736   3
  -9   1   0 56.9522 52.3994   3
   9  -1   0 3.69620 22.7958   1
   9   1   1 1717.59 132.671   2
  -9   1  -1 1670.59 130.415   3
   9   1   2 1895.68 143.969   2
   9   1   3 2139.52 151.163   2
   9  -1   3 2030.91 148.313   2
   9   1   4 3654.62 195.264   2
   9  -1   4 3409.47 186.556   2
   9   1   5 259.960 73.3388   2
   9  -1   5 292.140 74.9444   2
   9  -1   6 3322.54 183.543   2
   9   1   6 3475.48 191.991   2
   9   1   7 419.363 88.0217   2
   9  -1   7 378.816 88.0779   2
   9   1   8 2223.31 161.087   2
   9  -1   8 2641.30 169.519   2
   9  -1   9 491.807 89.7297   2
   9   1   9 741.213 104.374   2
   9   1  10 3277.60 193.169   2
   9  -1  10 2988.06 182.720   2
   9  -1  11 93.9511 55.6176   2
   9   1  11 123.522 61.4735   2
   9   1  12-8.11398 64.7290   2
   9  -1  12 142.111 66.3823   2
   9   1  13 262.050 81.2558   2
   9  -1  13 371.590 82.2901   2
   9   1  14 826.057 110.818   2
   9  -1  14 887.786 112.707   2
   9   1  15 1316.09 136.139   2
   9  -1  15 1437.68 139.922   2
   9   1  16 4000.82 228.686   2
   9  -1  16 4125.40 225.424   2
   9   1  17 1214.72 138.564   2
   9  -1  17 1302.79 135.761   2
   9   1  18 0.58264 64.5321   2
   9  -1  18-28.5194 61.4514   2
   9   1  19 308.436 87.3697   2
   9  -1  19 232.683 81.6583   2
   9   1  20 2495.77 191.513   2
   9  -1  20 2327.75 178.328   2
   9   1  21 3332.21 220.550   2
   9  -1  21 2895.65 195.856   2
  -9  -2  27 308.096 81.3309   2
  -9   2  26 1024.07 131.327   2
  -9  -2  26 1234.36 132.396   2
  -9   2  25 962.613 115.092   3
  -9   2  25 1016.61 129.862   2
  -9   2  24 197.988 80.1860   3
  -9   2  23 5182.50 244.729   3
  -9  -2  23 5056.34 219.077   3
  -9   2  22 3375.84 199.652   3
  -9  -2  22 3330.56 182.011   3
  -9  -2  21 1829.68 137.140   3
  -9   2  21 1620.87 144.747   3
  -9  -2  20 279.441 69.2944   3
  -9   2  20 259.555 73.1869   3
  -9  -2  19 305.876 65.6850   3
  -9   2  19 603.090 92.7303   3
  -9  -2  18 92.0837 47.7214   3
  -9   2  18 107.297 60.2451   3
  -9   2  17 1206.19 116.626   3
  -9  -2  17 1036.50 101.860   3
  -9  -2  16 149.059 57.4391   3
  -9   2  16 165.358 61.4828   3
  -9  -2  15 287.481 71.2481   3
  -9   2  15 203.546 65.6105   3
  -9  -2  14 1109.63 103.401   3
  -9   2  14 1073.35 111.778   3
  -9  -2  13 769.433 92.7336   3
  -9   2  13 721.285 95.9654   3
  -9  -2  12 4620.62 192.679   3
  -9   2  12 4460.54 209.858   3
  -9  -2  11 1479.10 114.725   3
  -9   2  11 1493.46 125.325   3
  -9  -2  10 686.215 84.2570   3
  -9   2  10 795.145 93.4487   3
  -9  -2   9 747.417 84.8701   3
  -9   2   9 852.128 96.8526   3
  -9  -2   8 485.197 76.5439   3
  -9   2   8 519.025 81.0711   3
  -9  -2   7 4534.23 193.962   3
  -9   2   7 4700.01 204.573   3
  -9  -2   6 238.900 65.1700   3
  -9   2   6 228.551 68.2542   3
  -9  -2   5 1759.65 124.804   3
  -9   2   5 1774.63 130.983   3
  -9  -2   4 587.498 85.1832   3
  -9   2   4 580.711 83.8184   3
  -9  -2   3 168.308 57.6650   3
  -9   2   3 148.307 63.8337   3
   9  -2  -3 152.043 35.3111   1
  -9  -2   2 4615.21 203.325   3
  -9   2   2 4411.82 203.311   3
   9  -2  -2 4643.09 134.914   1
  -9  -2   1 2134.15 143.417   3
   9  -2  -1 2132.17 90.4806   1
  -9   2   1 2406.58 153.478   3
   9   2  -1 2311.31 77.8545   1
   9   2   0 649.729 39.9792   1
   9  -2   0 806.072 54.3673   1
  -9   2   0 521.562 84.2655   3
   9   2   0 632.681 91.1111   2
   9   2   1 6733.99 257.172   2
  -9   2  -1 7013.05 257.751   3
   9   2   2 1953.04 147.114   2
  -9   2  -2 2100.93 148.728   3
   9   2   3 1136.77 118.183   2
  -9   2  -3 1276.54 121.508   3
   9   2   4 754.923 101.060   2
   9  -2   4 635.051 90.2556   2
   9  -2   5 7185.28 263.995   2
   9   2   5 7006.75 267.228   2
   9   2   6 258.397 74.4088   2
   9  -2   6 335.808 77.1783   2
   9  -2   7 2758.87 169.766   2
   9   2   7 2676.91 173.462   2
   9  -2   8 2714.13 171.497   2
   9   2   8 2706.23 177.394   2
   9  -2   9 85.5024 60.6728   2
   9   2   9 229.580 74.2875   2
   9  -2  10 343.278 80.9946   2
   9   2  10 330.220 80.0078   2
   9   2  11 10874.4 348.674   2
   9  -2  11 9993.27 323.866   2
   9  -2  12 847.844 111.427   2
   9   2  12 661.373 106.737   2
   9   2  13 3234.15 201.646   2
   9  -2  13 3258.54 194.255   2
   9   2  14-26.9906 55.9145   2
   9  -2  14-19.5168 57.3231   2
   9   2  15 93.7239 71.0950   2
   9  -2  15 52.3196 60.0438   2
   9   2  16 39.7361 70.6952   2
   9  -2  16 85.0836 56.9752   2
   9   2  17 4497.94 247.218   2
   9  -2  17 4589.56 240.081   2
   9   2  18 281.064 90.0206   2
   9  -2  18 313.314 81.8980   2
   9   2  19 765.976 120.221   2
   9  -2  19 842.620 115.360   2
   9  -2  20 1469.62 142.562   2
   9   2  20 1219.43 140.550   2
   9  -2  21 6.09164 57.6642   2
  -9  -3  27 235.781 75.9470   2
  -9   3  26 1348.50 146.148   2
  -9  -3  26 1287.32 130.284   2
  -9   3  25 384.451 81.9818   3
  -9   3  25 399.608 100.899   2
  -9   3  24 301.145 81.7200   3
  -9   3  24 259.524 90.1138   2
  -9   3  23 11.5745 53.6034   3
  -9   3  22 264.998 79.1998   3
  -9  -3  21 472.463 76.3425   3
  -9   3  21 206.760 74.7521   3
  -9  -3  20 2415.95 150.337   3
  -9   3  20 2271.18 161.688   3
  -9  -3  19 625.370 85.0118   3
  -9   3  19 547.665 88.5773   3
  -9  -3  18 2448.63 148.624   3
  -9   3  18 2467.12 166.645   3
  -9  -3  17 798.818 91.7551   3
  -9   3  17 628.996 93.0662   3
  -9  -3  16 6947.57 236.361   3
  -9   3  16 6952.10 263.619   3
  -9  -3  15 2531.72 144.659   3
  -9   3  15 2415.83 162.307   3
  -9  -3  14 2108.72 132.530   3
  -9   3  14 2140.41 152.003   3
  -9  -3  13 745.021 85.5858   3
  -9   3  13 812.153 101.410   3
  -9  -3  12 73.7309 46.2956   3
  -9   3  12-15.1045 57.7134   3
  -9  -3  11 395.376 71.6579   3
  -9   3  11 431.577 83.8046   3
  -9  -3  10 18.9106 46.6116   3
  -9   3  10 23.9658 52.1005   3
  -9  -3   9 6705.72 230.321   3
  -9   3   9 7251.52 258.068   3
  -9  -3   8 4257.07 188.636   3
  -9   3   8 4395.18 203.131   3
  -9  -3   7 89.6452 52.4225   3
  -9   3   7 166.331 62.4986   3
  -9  -3   6-10.1421 48.4903   3
  -9   3   6 0.30029 56.9572   3
  -9  -3   5 25.4933 47.1646   3
  -9   3   5 33.4560 57.7611   3
  -9  -3   4 3646.84 175.567   3
  -9   3   4 3452.93 181.091   3
  -9  -3   3-64.8351 54.7542   3
  -9   3   3-50.4574 56.1804   3
  -9  -3   2 123.514 51.7061   3
  -9   3   2 237.281 63.6886   3
  -9   3   1 1294.96 119.713   3
   9   3  -1 1473.97 128.213   2
   9  -3  -1 1277.46 71.4562   1
   9   3   0 2471.28 160.135   2
  -9   3   0 2077.67 146.587   3
   9  -3   0 2205.56 92.9249   1
   9   3   1 8465.51 285.626   2
  -9   3  -1 8110.20 277.658   3
   9   3   2 9777.56 308.316   2
  -9   3  -2 10005.5 309.264   3
  -9   3  -3 11715.7 338.488   3
   9   3   3 12154.2 347.726   2
  -9   3  -4 4774.81 219.464   3
   9   3   4 4935.38 226.003   2
   9  -3   5 1310.44 122.798   2
   9   3   5 1151.01 120.976   2
   9   3   6 225.921 75.9684   2
   9  -3   6 228.284 58.8564   2
   9  -3   7 1141.28 113.363   2
   9   3   7 1365.94 131.429   2
   9  -3   8 2605.55 168.060   2
   9   3   8 2689.63 177.933   2
   9  -3   9 8364.54 288.206   2
   9   3   9 8445.21 306.604   2
   9  -3  10 568.526 89.3577   2
   9   3  10 565.594 100.850   2
   9  -3  11 723.263 95.7888   2
   9   3  11 807.591 110.282   2
   9   3  12 1604.32 147.525   2
   9  -3  12 1681.20 143.515   2
   9  -3  13 1115.41 120.119   2
   9   3  13 1120.60 128.859   2
   9  -3  14 230.187 76.7288   2
   9   3  14 246.033 84.6798   2
   9   3  15 1150.56 132.954   2
   9  -3  15 1256.05 127.112   2
   9  -3  16 71.4822 56.4283   2
   9   3  16-50.9161 69.4286   2
   9   3  17 1101.78 134.957   2
   9  -3  17 992.272 118.042   2
   9   3  18 160.621 70.4365   2
   9  -3  18 317.849 83.9439   2
   9   3  19 461.193 102.022   2
   9  -3  19 510.640 94.0612   2
   9   3  20-57.3881 66.2365   2
   9  -3  20-70.4299 64.7215   2
   9  -3  21 148.222 72.8953   2
  -9  -4  26 711.776 106.503   2
  -9   4  25 113.296 74.6610   2
  -9   4  25 44.8643 62.4666   3
  -9   4  24 1285.67 135.212   3
  -9   4  24 1513.04 161.176   2
  -9   4  23-122.436 67.5829   3
  -9   4  22 2735.15 188.986   3
  -9   4  21 479.696 90.6236   3
  -9  -4  20 4663.14 198.572   3
  -9   4  20 4767.80 238.182   3
  -9  -4  19 152.479 60.1602   3
  -9   4  19 17.8769 56.7777   3
  -9  -4  18 1317.44 109.089   3
  -9   4  18 1336.88 130.099   3
  -9  -4  17 213.998 56.5914   3
  -9   4  17 144.103 64.6616   3
  -9  -4  16 3593.82 168.912   3
  -9   4  16 3879.51 202.225   3
  -9  -4  15 89.9725 44.7383   3
  -9   4  15 67.2408 60.0660   3
  -9  -4  14 3188.52 157.881   3
  -9   4  14 3200.53 182.974   3
  -9  -4  13 71.8765 48.3661   3
  -9   4  13 73.8105 61.6935   3
  -9  -4  12 1848.13 124.631   3
  -9   4  12 2147.51 149.440   3
  -9  -4  11 594.176 79.0103   3
  -9   4  11 558.325 86.2039   3
  -9  -4  10 1635.76 118.495   3
  -9   4  10 1774.72 136.430   3
  -9  -4   9 1950.45 127.268   3
  -9   4   9 1997.30 146.244   3
  -9  -4   8 505.544 75.1673   3
  -9   4   8 492.390 85.7265   3
  -9  -4   7 1422.49 113.265   3
  -9   4   7 1437.41 124.713   3
  -9  -4   6 11447.2 298.611   3
  -9   4   6 11586.0 325.983   3
  -9  -4   5 1342.90 110.460   3
  -9   4   5 1669.00 132.581   3
  -9  -4   4 248.966 63.0161   3
  -9   4   4 360.052 77.5055   3
  -9  -4   3 894.357 94.6635   3
  -9   4   3 1058.08 109.952   3
  -9   4   2 6603.45 249.295   3
   9   4  -1 1893.58 141.736   2
  -9   4   1 1657.95 133.611   3
   9   4   0 5567.80 234.961   2
  -9   4   0 5840.10 236.693   3
   9   4   1 687.645 96.4018   2
  -9   4  -1 512.822 85.9739   3
   9   4   2 1183.45 120.489   2
  -9   4  -2 1053.27 114.083   3
   9   4   3 53.2226 64.3756   2
  -9   4  -3-38.6060 58.8709   3
  -9   4  -4 3323.87 186.029   3
   9   4   4 3311.66 189.165   2
  -9   4  -5 7098.72 270.917   3
   9   4   5 7906.59 286.420   2
   9   4   6 3793.66 204.229   2
   9  -4   7 1034.45 106.336   2
   9   4   7 898.409 112.354   2
   9  -4   8-12.8524 53.0597   2
   9   4   8 197.302 72.9653   2
   9  -4   9 53.1097 54.7337   2
   9   4   9 74.4706 58.4059   2
   9  -4  10 865.781 106.580   2
   9   4  10 741.806 107.261   2
   9  -4  11 39.5113 53.0476   2
   9   4  11 41.2385 55.7664   2
   9   4  12 1188.71 131.870   2
   9  -4  12 1157.53 120.264   2
   9  -4  13 721.501 96.9252   2
   9   4  13 716.065 109.922   2
   9  -4  14-75.1943 59.5593   2
   9   4  14 84.5854 68.6383   2
   9  -4  15 57.2959 58.1730   2
   9   4  15 183.545 82.6117   2
   9  -4  16 1065.39 124.042   2
   9   4  16 1484.82 151.156   2
   9   4  17 938.476 125.816   2
   9  -4  17 1224.39 130.234   2
   9   4  18 2476.26 194.220   2
   9  -4  18 2535.30 177.014   2
   9  -4  19 375.809 83.0061   2
   9   4  19 121.953 75.2204   2
   9  -4  20 771.913 106.551   2
  -9   5  25 414.028 106.426   2
  -9   5  25 484.739 98.0066   3
  -9   5  24 2351.79 181.293   3
  -9   5  24 2554.45 202.925   2
  -9   5  23 1562.81 149.419   3
  -9   5  22 396.571 89.7853   3
  -9   5  21 65.4671 62.2032   3
  -9   5  20 10031.9 341.266   3
  -9  -5  19 174.927 52.5968   3
  -9   5  19 109.640 70.6850   3
  -9  -5  18 1285.96 103.894   3
  -9   5  18 1301.99 129.224   3
  -9  -5  17-36.7374 38.2867   3
  -9   5  17 44.7197 54.8187   3
  -9  -5  16 213.448 59.3528   3
  -9   5  16 98.5428 66.3926   3
  -9  -5  15 146.030 51.7574   3
  -9   5  15-0.80657 57.4740   3
  -9  -5  14 2272.49 132.392   3
  -9   5  14 2080.32 155.443   3
  -9  -5  13 22.6196 43.9486   3
  -9   5  13 21.0550 55.0833   3
  -9  -5  12 644.090 81.3065   3
  -9   5  12 656.523 94.0653   3
  -9  -5  11 901.824 92.5555   3
  -9   5  11 1041.92 115.811   3
  -9  -5  10 13776.4 316.051   3
  -9   5  10 14021.0 365.690   3
  -9  -5   9 1850.47 122.438   3
  -9   5   9 1801.92 139.034   3
  -9  -5   8 3207.70 157.738   3
  -9   5   8 2949.00 171.323   3
  -9  -5   7 13.1274 46.7689   3
  -9   5   7 58.3535 55.3568   3
  -9  -5   6 213.360 52.7801   3
  -9   5   6 328.534 75.7770   3
  -9  -5   5 21.4930 48.3852   3
  -9   5   5-53.2842 56.0997   3
  -9  -5   4 9827.65 284.227   3
  -9   5   4 10274.6 310.410   3
  -9  -5   3 2117.97 138.575   3
  -9   5   3 1824.77 139.263   3
  -9   5   2 4956.95 220.316   3
   9   5  -2 5060.93 222.245   2
   9   5  -1 542.875 91.7251   2
  -9   5   1 591.504 92.7540   3
   9   5   0 4453.50 211.009   2
  -9   5   0 4117.83 202.504   3
   9   5   1 1051.42 116.922   2
  -9   5  -1 940.708 102.051   3
  -9   5  -2 10839.6 323.857   3
   9   5   2 10867.6 327.722   2
   9   5   3 82.9040 65.6905   2
  -9   5  -3-89.7233 70.5165   3
  -9   5  -4 1433.77 126.503   3
   9   5   4 1371.08 128.387   2
  -9   5  -5 37.5714 55.9928   3
   9   5   5 69.2833 56.7274   2
  -9   5  -6 1104.68 117.613   3
   9   5   6 965.558 114.396   2
  -9   5  -7 503.977 89.0548   3
   9   5   7 729.716 106.521   2
   9   5   8 3068.57 191.257   2
   9  -5   9 54.3609 54.6394   2
   9   5   9 54.0044 63.0342   2
   9  -5  10 140.116 59.4143   2
   9   5  10 163.162 71.6812   2
   9  -5  11 37.3525 54.8484   2
   9   5  11 40.5522 62.1441   2
   9  -5  12 46.6977 55.0298   2
   9   5  12-27.6568 59.8642   2
   9  -5  13 222.098 69.5008   2
   9   5  13 143.072 71.4207   2
   9  -5  14 4174.63 215.461   2
   9   5  14 4183.70 234.198   2
   9  -5  15 631.680 98.8105   2
   9   5  15 511.250 98.6833   2
   9   5  16 3094.12 210.474   2
   9  -5  16 3070.94 189.435   2
   9  -5  17-37.2841 51.8745   2
   9   5  17-54.0722 72.8449   2
   9  -5  18 58.4670 61.0514   2
   9   5  18 132.457 85.9787   2
   9  -5  19-27.4295 51.6065   2
   9   5  19 70.9671 73.9163   2
  -9   6  25 1130.68 134.003   3
  -9   6  24 0.12866 68.6323   2
  -9   6  24-0.59306 63.2655   3
  -9   6  23 1075.06 133.094   3
  -9   6  23 1300.08 148.953   2
  -9   6  22 1762.90 158.692   3
  -9   6  21 2706.02 188.564   3
  -9   6  20 855.632 113.778   3
  -9   6  19 227.346 76.9465   3
  -9  -6  18 3116.22 151.911   3
  -9   6  18 2921.99 192.061   3
  -9  -6  17 102.343 43.3839   3
  -9   6  17 83.9120 64.3822   3
  -9  -6  16 598.458 74.4349   3
  -9   6  16 571.566 94.9040   3
  -9  -6  15 594.609 72.8836   3
  -9   6  15 546.495 92.6552   3
  -9  -6  14 1803.62 115.492   3
  -9   6  14 2053.94 154.630   3
  -9  -6  13 3092.24 148.764   3
  -9   6  13 3204.90 187.280   3
  -9  -6  12 179.885 49.9878   3
  -9   6  12 181.939 69.2555   3
  -9  -6  11 8644.90 246.471   3
  -9   6  11 8873.40 301.942   3
  -9  -6  10 1111.01 96.3211   3
  -9   6  10 1161.58 120.801   3
  -9  -6   9 468.373 69.1840   3
  -9   6   9 555.207 90.8006   3
  -9  -6   8 3104.28 154.767   3
  -9   6   8 3162.68 182.889   3
  -9  -6   7 420.420 68.5247   3
  -9   6   7 292.778 72.5191   3
  -9  -6   6 8099.52 250.771   3
  -9   6   6 8034.28 280.045   3
  -9  -6   5 7118.75 235.985   3
  -9   6   5 7074.71 262.563   3
  -9  -6   4 127.026 52.1280   3
  -9   6   4 275.971 75.8025   3
  -9   6   3 463.563 79.0450   3
   9   6  -2 390.449 84.2281   2
  -9   6   2 435.286 83.5438   3
   9   6  -1 7792.65 275.822   2
  -9   6   1 7734.49 273.999   3
   9   6   0 5156.88 230.254   2
  -9   6   0 5381.24 233.108   3
   9   6   1 183.891 72.5357   2
  -9   6  -1 86.5586 63.1222   3
   9   6   2 313.159 82.4557   2
  -9   6  -2 330.696 75.4280   3
   9   6   3 961.765 110.564   2
  -9   6  -3 1181.98 114.539   3
  -9   6  -4 1499.56 132.471   3
   9   6   4 1725.11 145.095   2
  -9   6  -5 2314.03 161.348   3
   9   6   5 2420.02 168.934   2
  -9   6  -6 1518.93 131.963   3
   9   6   6 1461.92 140.774   2
  -9   6  -7 4846.26 229.977   3
   9   6   7 4777.68 235.107   2
  -9   6  -8 1757.97 147.884   3
   9   6   8 1817.02 153.791   2
   9   6   9 110.462 68.9606   2
   9   6  10 1353.50 138.493   2
   9  -6  11 753.905 96.4534   2
   9   6  11 631.687 106.711   2
   9  -6  12 1817.20 140.907   2
   9   6  12 1782.18 159.319   2
   9  -6  13 3493.78 193.811   2
   9   6  13 3230.87 209.050   2
   9  -6  14 111.065 59.9659   2
   9   6  14 80.7960 72.2958   2
   9  -6  15 88.5818 56.7523   2
   9   6  15 52.5464 61.1878   2
   9  -6  16 674.471 96.9353   2
   9   6  16 729.645 122.661   2
   9  -6  17 2732.09 176.528   2
   9   6  17 2572.74 200.584   2
   9  -6  18 380.624 83.2801   2
   9   6  18 210.974 80.8824   2
  -9   7  24 244.489 93.1662   2
  -9   7  24 309.567 86.5345   3
  -9   7  23 758.715 114.742   3
  -9   7  23 877.958 128.666   2
  -9   7  22-55.3236 68.2322   3
  -9   7  21 2215.75 180.054   3
  -9   7  20 217.380 77.3684   3
  -9   7  19 1231.44 135.134   3
  -9   7  18-15.3045 62.7322   3
  -9  -7  17 1305.93 97.8122   3
  -9   7  17 1046.43 124.373   3
  -9  -7  16 65.5298 43.5082   3
  -9   7  16-2.85031 63.9591   3
  -9  -7  15 5750.53 196.403   3
  -9   7  15 5309.93 243.744   3
  -9  -7  14 1155.10 93.1010   3
  -9   7  14 1131.98 121.837   3
  -9  -7  13 186.365 54.6258   3
  -9   7  13 145.088 69.7755   3
  -9  -7  12 502.748 64.3634   3
  -9   7  12 473.030 83.1526   3
  -9  -7  11 1129.23 95.9891   3
  -9   7  11 1007.03 113.818   3
  -9  -7  10 572.718 72.3235   3
  -9   7  10 628.089 93.8269   3
  -9  -7   9 3157.04 152.310   3
  -9   7   9 3097.42 183.485   3
  -9  -7   8 36.6890 45.2487   3
  -9   7   8-23.0802 64.1958   3
  -9  -7   7 1111.61 102.069   3
  -9   7   7 1143.13 117.590   3
  -9  -7   6 464.680 70.8058   3
  -9   7   6 573.379 89.7254   3
  -9  -7   5 90.2626 50.1561   3
  -9   7   5 5.75372 57.2807   3
  -9  -7   4-6.41545 52.0658   3
  -9   7   4 14.6696 53.9215   3
   9   7  -3 3586.80 192.361   2
  -9   7   3 3887.08 198.334   3
   9   7  -2 84.6866 70.7263   2
  -9   7   2-121.944 70.8482   3
   9   7  -1 133.499 67.8522   2
  -9   7   1 72.4859 56.3646   3
   9   7   0 709.502 98.7416   2
  -9   7   0 708.812 101.090   3
  -9   7  -1 15250.8 385.941   3
   9   7   1 15380.6 390.580   2
   9   7   2 962.990 117.473   2
  -9   7  -2 864.178 107.523   3
  -9   7  -3 9277.77 304.273   3
   9   7   3 8699.02 302.986   2
  -9   7  -4 1939.71 147.836   3
   9   7   4 2192.71 161.475   2
  -9   7  -5 1617.63 134.012   3
   9   7   5 1604.72 143.837   2
  -9   7  -6 22.1306 58.5125   3
   9   7   6 156.241 72.0004   2
  -9   7  -7 3314.48 190.563   3
   9   7   7 3006.17 189.763   2
  -9   7  -8 494.823 90.3220   3
   9   7   8 530.237 98.6461   2
  -9   7  -9 862.037 109.427   3
   9   7   9 1017.32 126.699   2
  -9   7 -10 226.550 70.1000   3
   9   7  10 118.572 74.4229   2
  -9   7 -11 92.3447 58.4982   3
   9   7  11 201.006 81.7557   2
   9   7  12 833.206 119.393   2
   9  -7  13 531.672 84.9526   2
   9   7  13 509.339 105.536   2
   9  -7  14 869.768 104.009   2
   9   7  14 1039.12 131.432   2
   9  -7  15 3865.89 203.517   2
   9   7  15 3886.89 233.173   2
   9  -7  16 1076.42 114.511   2
   9   7  16 1038.16 137.001   2
   9   7  17 763.567 125.187   2
  -9   8  24 1644.74 161.328   3
  -9   8  23-43.8100 69.8599   2
  -9   8  23 0.73929 62.9594   3
  -9   8  22 1191.77 137.986   3
  -9   8  22 979.208 139.495   2
  -9   8  21 300.875 87.0911   3
  -9   8  20 154.942 70.9173   3
  -9   8  19-20.8764 59.6693   3
  -9   8  18 648.167 106.525   3
  -9   8  17 6754.14 282.952   3
  -9   8  16 180.011 77.5263   3
  -9  -8  15 32.5072 37.2944   3
  -9   8  15 10.9143 59.0966   3
  -9  -8  14 802.983 80.4351   3
  -9   8  14 1013.90 118.942   3
  -9  -8  13 898.631 81.7966   3
  -9   8  13 970.426 113.655   3
  -9  -8  12 66.0954 39.4610   3
  -9   8  12-20.2217 59.0620   3
  -9  -8  11 2963.86 143.387   3
  -9   8  11 2991.97 181.585   3
  -9  -8  10 34.2684 44.0648   3
  -9   8  10 27.0649 54.0896   3
  -9  -8   9 596.178 73.4462   3
  -9   8   9 502.490 86.3771   3
  -9  -8   8 348.123 61.4294   3
  -9   8   8 227.725 68.2824   3
  -9  -8   7 4722.36 186.841   3
  -9   8   7 4869.15 227.770   3
  -9  -8   6 86.1224 45.2349   3
  -9   8   6 164.286 59.8772   3
  -9  -8   5 335.312 61.8517   3
  -9   8   5 539.393 86.0490   3
  -9   8   4 3549.66 195.094   3
   9   8  -3 7585.37 270.126   2
  -9   8   3 7311.63 272.761   3
   9   8  -2 634.156 94.3994   2
  -9   8   2 810.021 99.5182   3
   9   8  -1 380.113 78.7904   2
  -9   8   1 433.712 77.5719   3
  -9   8   0 3392.51 187.473   3
   9   8   0 3559.09 194.054   2
   9   8   1 893.719 107.691   2
  -9   8  -1 902.664 110.286   3
   9   8   2 23.1277 58.4925   2
  -9   8  -2 8.85863 59.3696   3
  -9   8  -3 71.1170 58.0812   3
   9   8   3 122.096 65.6490   2
  -9   8  -4 385.274 83.8263   3
   9   8   4 185.535 76.4369   2
  -9   8  -5 1016.12 112.570   3
   9   8   5 1220.13 130.615   2
  -9   8  -6 4297.16 217.051   3
   9   8   6 4358.62 227.003   2
  -9   8  -7 435.124 82.9020   3
   9   8   7 519.132 95.7175   2
  -9   8  -8 11733.9 352.071   3
   9   8   8 12122.8 378.225   2
  -9   8  -9 23.4384 63.7980   3
   9   8   9-9.30373 64.8308   2
  -9   8 -10 420.152 79.6061   3
   9   8  10 476.750 99.5923   2
  -9   8 -11 1941.75 154.929   3
   9   8  11 1928.29 164.850   2
  -9   8 -12 1595.26 145.269   3
   9   8  12 1444.16 147.154   2
  -9   8 -13 825.542 115.666   3
   9   8  13 703.891 116.372   2
   9   8  14 250.248 90.9985   2
   9   8  15 283.033 91.4973   2
   9   8  16 375.016 93.2835   2
   9   8  17 1457.92 160.853   2
  -9   9  24 232.591 87.9759   3
  -9   9  23 78.6625 72.5399   3
  -9   9  22 154.135 77.0114   3
  -9   9  22 41.1291 65.2987   2
  -9   9  21 699.008 115.883   3
  -9   9  20 1015.23 130.373   3
  -9   9  19 131.138 69.9187   3
  -9   9  18 51.0928 77.3070   3
  -9   9  17 183.420 80.4335   3
  -9   9  16 339.979 81.6101   3
  -9   9  15 968.019 120.022   3
  -9  -9  14-38.4474 36.5406   3
  -9   9  14-6.01837 59.8037   3
  -9  -9  13 940.107 81.2272   3
  -9   9  13 849.953 114.149   3
  -9  -9  12 159.638 47.4717   3
  -9   9  12 96.2530 65.3376   3
  -9  -9  11 354.350 57.8030   3
  -9   9  11 351.204 81.8205   3
  -9  -9  10 1737.95 112.018   3
  -9   9  10 1599.25 141.842   3
  -9  -9   9 22.6870 36.9814   3
  -9   9   9 42.4847 57.7216   3
  -9  -9   8 3516.17 158.716   3
  -9   9   8 3533.23 200.032   3
  -9  -9   7 777.480 82.1898   3
  -9   9   7 894.432 110.850   3
  -9  -9   6 158.669 51.2055   3
  -9   9   6 231.698 68.8870   3
  -9  -9   5-8.75114 47.2552   3
  -9   9   5 6.17738 57.6345   3
   9   9  -4 71.6470 59.7122   2
  -9   9   4 135.531 60.7280   3
   9   9  -3 1125.03 113.570   2
  -9   9   3 1241.71 121.921   3
   9   9  -2 1070.64 112.066   2
  -9   9   2 986.398 110.070   3
   9   9  -1 249.669 68.0940   2
  -9   9   1 175.704 61.0621   3
   9   9   0 257.202 75.6080   2
  -9   9   0 135.222 55.1939   3
   9   9   1 166.814 76.9361   2
  -9   9  -1 11.0542 61.5293   3
  -9   9  -2 7661.14 280.970   3
   9   9   2 7391.53 279.211   2
  -9   9  -3 826.202 103.602   3
   9   9   3 704.113 101.907   2
  -9   9  -4 4096.88 208.261   3
   9   9   4 4309.18 222.965   2
  -9   9  -5-19.7096 55.8820   3
   9   9   5 13.9049 61.2976   2
  -9   9  -6 141.245 57.7069   3
   9   9   6 226.167 74.7122   2
  -9   9  -7 623.879 91.4548   3
   9   9   7 548.752 92.6864   2
  -9   9  -8 533.707 88.9454   3
   9   9   8 556.121 101.083   2
  -9   9  -9 117.430 67.5354   3
   9   9   9 45.4745 65.7467   2
  -9   9 -10 8625.19 308.854   3
   9   9  10 9301.83 344.085   2
  -9   9 -11 74.6231 65.3326   3
   9   9  11 135.178 68.0537   2
   9   9  12 1559.48 161.818   2
  -9   9 -12 1485.72 136.464   3
  -9   9 -13 0.61500 53.6506   3
   9   9  13 36.7582 69.1854   2
   9   9  14 3984.50 241.363   2
  -9   9 -14 3864.99 222.314   3
  -9   9 -15 202.940 76.4200   3
   9   9  15 219.200 93.1368   2
   9   9  16 2955.49 216.669   2
  -9   9 -16 2508.57 188.160   3
  -9   9 -17-34.9149 57.7331   3
  -9   9 -18 434.515 92.3469   3
  -9  10  23 1783.69 175.185   3
  -9  10  22 739.060 123.183   2
  -9  10  22 831.987 122.469   3
  -9  10  21 114.383 76.5089   3
  -9  10  21 215.873 85.7975   2
  -9  10  20 251.725 83.7780   3
  -9  10  19-14.1860 72.3673   3
  -9  10  18 210.316 80.7416   3
  -9  10  17 327.190 90.6128   3
  -9  10  16 115.853 67.2894   3
  -9  10  15 312.284 84.0555   3
  -9  10  14 93.3859 72.2140   3
  -9  10  13 1829.81 156.512   3
  -9 -10  12 1517.23 100.248   3
  -9  10  12 1357.95 134.351   3
  -9 -10  11 34.1027 34.1530   3
  -9  10  11 46.7149 61.0998   3
  -9 -10  10 208.147 46.7857   3
  -9  10  10 183.295 71.8192   3
  -9 -10   9 2344.23 127.425   3
  -9  10   9 2383.35 168.179   3
  -9 -10   8 657.240 76.9532   3
  -9  10   8 589.388 90.0306   3
  -9 -10   7 177.729 49.8080   3
  -9  10   7 94.5225 60.0057   3
  -9 -10   6 630.407 77.0168   3
  -9  10   6 468.974 91.5767   3
  -9 -10   5 19.9465 41.7243   3
  -9  10   5 56.8705 65.0603   3
   9  10  -4 1458.08 126.637   2
  -9  10   4 1495.03 132.222   3
   9  10  -3 322.084 75.3386   2
  -9  10   3 229.374 67.3514   3
   9  10  -2 0.99921 52.0028   2
  -9  10   2-80.1036 56.8329   3
   9  10  -1 209.040 64.3491   2
  -9  10   1 107.203 60.2326   3
   9  10   0 480.283 86.5254   2
  -9  10   0 384.662 78.6621   3
  -9  10  -1 2485.90 167.847   3
   9  10   1 2571.69 171.088   2
  -9  10  -2 1259.96 123.543   3
   9  10   2 1433.13 134.590   2
  -9  10  -3 230.640 74.7069   3
   9  10   3 447.043 82.4020   2
  -9  10  -4 1597.77 136.339   3
   9  10   4 1945.07 156.132   2
  -9  10  -5 3012.26 183.312   3
   9  10   5 2924.42 191.423   2
  -9  10  -6 3305.02 189.058   3
   9  10   6 3577.43 210.139   2
  -9  10  -7 6496.52 262.192   3
   9  10   7 7129.24 292.776   2
  -9  10  -8 114.711 64.6081   3
   9  10   8 238.883 85.0833   2
  -9  10  -9 270.980 69.0139   3
   9  10   9 242.827 82.9886   2
  -9  10 -10-43.7630 64.2679   3
   9  10  10-31.9116 67.3591   2
  -9  10 -11 782.133 105.202   3
   9  10  11 843.448 122.287   2
   9  10  12 1825.56 164.714   2
  -9  10 -12 1717.25 152.351   3
  -9  10 -13 26.7254 62.4598   3
   9  10  13-9.15832 59.8429   2
  -9  10 -14 1270.61 132.609   3
   9  10  14 1371.32 153.323   2
  -9  10 -15 13.9904 51.9022   3
   9  10  15 115.223 76.1875   2
  -9  10 -16 424.847 85.4933   3
  -9  10 -17 1026.09 120.551   3
  -9  10 -18 2336.67 175.665   3
  -9  10 -19 2161.07 164.778   3
  -9  11  22 82.3073 71.7007   3
  -9  11  21 389.166 102.366   2
  -9  11  21 488.389 106.558   3
  -9  11  20 115.325 76.6212   3
  -9  11  20 117.364 72.7262   2
  -9  11  19 1051.75 135.772   3
  -9  11  18 118.408 73.9705   3
  -9  11  17 305.603 86.0491   3
  -9  11  16 126.737 75.2534   3
  -9  11  15 19.2335 69.2702   3
  -9  11  14 188.620 76.2032   3
  -9  11  13 59.1558 63.2126   3
  -9  11  12 66.9644 64.1725   3
  -9 -11  11 241.679 46.3364   3
  -9  11  11 430.480 85.7568   3
  -9 -11  10 249.746 50.2829   3
  -9  11  10 194.282 66.0952   3
  -9 -11   9 308.591 54.1764   3
  -9  11   9 326.866 84.7883   3
  -9 -11   8 55.0296 41.0859   3
  -9  11   8 76.5930 67.2970   3
  -9 -11   7 2805.94 142.251   3
  -9  11   7 2812.17 181.768   3
  -9 -11   6 354.888 59.9752   3
  -9  11   6 313.693 78.2435   3
  -9  11   5 90.5415 67.2742   3
   9  11  -4 223.828 66.8559   2
  -9  11   4 137.969 64.9294   3
   9  11  -3 296.216 71.8740   2
  -9  11   3 203.157 71.0422   3
   9  11  -2 625.303 91.4071   2
  -9  11   2 638.615 93.9990   3
   9  11  -1 74.7346 57.4471   2
  -9  11   1 64.5548 62.7948   3
   9  11   0-34.0900 52.1723   2
  -9  11   0-59.5225 65.1393   3
  -9  11  -1 552.344 85.8387   3
   9  11   1 575.475 94.1499   2
  -9  11  -2 233.025 71.5602   3
   9  11   2 190.064 69.4008   2
  -9  11  -3 4655.95 224.837   3
   9  11   3 5033.08 239.904   2
  -9  11  -4 767.586 102.604   3
   9  11   4 790.037 112.293   2
  -9  11  -5 3336.89 194.067   3
   9  11   5 3754.26 213.599   2
  -9  11  -6-30.7352 57.1763   3
   9  11   6 71.1049 65.1055   2
  -9  11  -7 1532.26 134.692   3
   9  11   7 2085.66 169.502   2
  -9  11  -8-18.2747 60.4296   3
   9  11   8 170.401 78.3631   2
   9  11   9 1467.86 149.215   2
  -9  11  -9 1312.95 127.668   3
  -9  11 -10 311.336 69.8923   3
   9  11  10 278.958 83.8441   2
  -9  11 -11 791.522 107.944   3
   9  11  11 656.094 108.135   2
  -9  11 -12 158.013 67.0361   3
   9  11  12 43.3415 63.8957   2
  -9  11 -13 101.946 72.2727   3
   9  11  13 36.5448 69.2231   2
  -9  11 -14 138.954 66.6627   3
   9  11  14 204.208 82.9250   2
   9  11  15 7072.93 331.487   2
  -9  11 -15 7256.09 294.836   3
  -9  11 -16 227.371 74.5199   3
  -9  11 -17 599.552 96.9667   3
  -9  11 -18-14.5062 48.4692   3
  -9  12  21 72.0891 74.6544   3
  -9  12  20 577.563 111.837   3
  -9  12  20 670.688 120.507   2
  -9  12  19 713.734 119.598   3
  -9  12  19 822.385 127.021   2
  -9  12  18 166.475 78.4887   3
  -9  12  17 799.517 118.622   3
  -9  12  16 118.592 71.6934   3
  -9  12  15 185.354 79.7665   3
  -9  12  14 191.334 81.3539   3
  -9  12  13 860.332 116.817   3
  -9  12  12 2172.99 171.623   3
  -9  12  11 434.744 91.4910   3
  -9  12  10 1359.77 135.899   3
  -9 -12   9 193.731 45.9717   3
  -9  12   9 84.0016 70.0284   3
  -9 -12   8-21.0597 36.2093   3
  -9  12   8-84.9156 68.9178   3
  -9 -12   7 565.677 69.1059   3
  -9  12   7 438.590 94.1786   3
  -9 -12   6 354.745 61.5474   3
  -9  12   6 380.543 87.4788   3
   9  12  -5 2594.66 162.121   2
  -9  12   5 2995.73 185.700   3
   9  12  -4 154.141 58.8540   2
  -9  12   4 179.172 75.2203   3
   9  12  -3 213.611 67.1423   2
  -9  12   3 330.122 85.1932   3
  -9  12   2 1743.94 144.626   3
   9  12  -2 1424.33 127.102   2
  -9  12   1 2669.09 172.752   3
   9  12  -1 2319.20 160.165   2
   9  12   0 364.166 84.8174   2
  -9  12   0 290.499 75.1384   3
  -9  12  -1 4149.77 213.871   3
   9  12   1 4375.85 220.294   2
  -9  12  -2 845.451 108.284   3
   9  12   2 1180.87 127.861   2
  -9  12  -3 86.7073 58.5308   3
   9  12   3 76.9973 67.5874   2
  -9  12  -4 1116.13 119.079   3
   9  12   4 930.682 119.599   2
  -9  12  -5 4691.80 229.887   3
   9  12   5 4708.64 238.968   2
  -9  12  -6 241.395 71.2559   3
   9  12   6 445.101 93.3971   2
  -9  12  -7 1389.94 134.698   3
   9  12   7 1327.94 141.887   2
  -9  12  -8 224.561 71.5719   3
   9  12   8 197.281 72.3785   2
  -9  12  -9 246.240 76.4704   3
   9  12   9 233.958 77.1934   2
  -9  12 -10 38.1527 58.2590   3
   9  12  10-62.3783 68.2639   2
  -9  12 -11 314.182 76.6621   3
   9  12  11 521.483 104.141   2
  -9  12 -12 246.828 75.3840   3
   9  12  12 16.3076 70.1933   2
   9  12  13 2846.50 212.698   2
  -9  12 -13 2859.29 188.981   3
  -9  12 -14 1.69315 52.9517   3
   9  12  14-40.4968 78.1616   2
  -9  12 -15 15.2112 61.4230   3
  -9  12 -16 407.976 84.7207   3
  -9  12 -17 783.347 102.993   3
  -9  13  19 39.0232 76.3263   3
  -9  13  19-14.4139 68.4635   2
  -9  13  18 23.4740 69.7029   3
  -9  13  18 150.868 81.8267   2
  -9  13  17 445.693 106.506   3
  -9  13  16 3428.28 220.697   3
  -9  13  15 542.703 105.467   3
  -9  13  14 1510.16 149.971   3
  -9  13  13 75.4268 63.5878   3
  -9  13  12 14.1646 62.7991   3
  -9  13  11 363.311 86.4948   3
  -9  13  10 2696.30 190.448   3
  -9  13   9 88.2013 68.0502   3
  -9 -13   8 6537.15 206.198   3
  -9  13   8 6778.40 283.238   3
  -9 -13   7-3.34425 36.2312   3
  -9  13   7 153.720 72.3496   3
  -9 -13   6 1200.94 99.2095   3
  -9  13   6 1202.56 128.045   3
   9  13  -5 159.231 57.9419   2
  -9  13   5 121.089 66.0007   3
   9  13  -4 2198.42 154.228   2
  -9  13   4 2354.28 169.037   3
   9  13  -3 215.611 68.2336   2
  -9  13   3 116.064 68.4055   3
   9  13  -2 139.080 63.2817   2
  -9  13   2 172.446 70.9020   3
   9  13  -1 599.922 96.7665   2
  -9  13   1 485.361 86.9646   3
  -9  13   0 1345.71 130.295   3
   9  13   0 1501.16 138.371   2
  -9  13  -1 587.242 98.1502   3
   9  13   1 562.543 93.7327   2
  -9  13  -2 11292.6 350.808   3
   9  13   2 11136.3 353.647   2
  -9  13  -3 878.153 113.860   3
   9  13   3 874.352 118.156   2
  -9  13  -4 6634.64 272.289   3
   9  13   4 6741.80 283.346   2
  -9  13  -5 584.824 93.3359   3
   9  13   5 713.717 113.055   2
  -9  13  -6 123.864 62.8753   3
   9  13   6 205.307 70.9986   2
  -9  13  -7 446.890 86.3085   3
   9  13   7 380.075 84.9077   2
  -9  13  -8 368.129 83.3312   3
   9  13   8 480.474 94.5522   2
   9  13   9 1639.72 159.162   2
  -9  13  -9 1731.01 148.951   3
  -9  13 -10 866.230 113.174   3
   9  13  10 905.086 123.148   2
  -9  13 -10 833.248 97.1571   1
  -9  13 -11-66.5608 65.4288   3
   9  13  11 22.9234 69.1454   2
  -9  13 -12 9.90655 58.7014   3
   9  13  12-200.029 91.5930   2
  -9  13 -13 83.6951 50.6435   3
   9  13  13 196.037 82.4432   2
  -9  13 -14 1481.25 139.040   3
  -9  13 -15 932.218 108.369   3
  -9  13 -16 1065.73 115.554   3
  -9  14  18 610.074 119.246   3
  -9  14  18 358.577 97.0161   2
  -9  14  17-48.3813 73.0606   3
  -9  14  17-74.4402 73.0273   2
  -9  14  16 146.548 78.2481   3
  -9  14  15 442.693 103.437   3
  -9  14  14 2249.41 184.222   3
  -9  14  13 1885.71 166.414   3
  -9  14  12 2863.30 199.096   3
  -9  14  11 2804.28 195.850   3
  -9  14  10 4954.45 252.398   3
  -9  14   9 57.0470 65.2658   3
  -9  14   8 2093.98 167.249   3
  -9  14   7 831.374 113.345   3
  -9 -14   6 2092.54 126.899   3
  -9  14   6 2045.15 160.936   3
   9  14  -5 646.669 92.3831   2
  -9  14   5 895.061 119.358   3
   9  14  -4 275.078 71.9271   2
  -9  14   4 453.265 88.7426   3
   9  14  -3 883.197 106.446   2
  -9  14   3 1046.88 119.291   3
   9  14  -2 9.33982 55.0611   2
  -9  14   2 13.8698 58.0252   3
  -9  14   1 1839.46 151.789   3
   9  14  -1 1661.82 141.518   2
  -9  14   0 5795.69 254.835   3
   9  14   0 5966.39 254.869   2
  -9  14  -1 236.124 74.0479   3
   9  14   1 246.780 73.3279   2
  -9  14  -2 2.22819 63.2128   3
   9  14   2 29.7118 67.8470   2
  -9  14  -3 450.524 87.4603   3
   9  14   3 386.482 88.1957   2
  -9  14  -4 2951.05 185.769   3
   9  14   4 3004.13 195.240   2
  -9  14  -5 1363.06 131.448   3
   9  14   5 1142.85 132.220   2
   9  14   6 3421.22 212.826   2
  -9  14  -6 3739.62 209.603   3
  -9  14  -7 8.80127 58.7893   3
   9  14   7-66.8640 71.1714   2
  -9  14  -8 1039.26 117.832   3
   9  14   8 918.852 124.735   2
  -9  14  -9 343.996 81.0457   3
   9  14   9 600.946 110.857   2
   9  14  10 2089.90 180.432   2
  -9  14 -10 2223.93 166.784   3
  -9  14 -10 2320.73 151.321   1
  -9  14 -11 40.5630 55.3240   3
   9  14  11 33.4395 70.8005   2
  -9  14 -11 114.952 59.6763   1
   9  14  12 890.564 125.851   2
  -9  14 -12 882.908 112.201   3
  -9  14 -13-41.5603 55.6541   3
  -9  14 -14 401.064 82.8088   3
  -9  14 -15 116.049 62.2291   3
  -9  15  17 67.1555 64.8380   3
  -9  15  17-7.03162 63.0209   2
  -9  15  16 691.230 119.144   3
  -9  15  16 608.885 113.703   2
  -9  15  15 5831.42 289.584   3
  -9  15  14 139.186 80.9009   3
  -9  15  13 14.4691 64.0125   3
  -9  15  12 381.742 91.8125   3
  -9  15  11 48.2413 65.9063   3
  -9  15  10 962.917 125.510   3
  -9  15   9 2817.62 195.571   3
  -9  15   8 1186.95 134.163   3
  -9  15   7 1437.26 145.090   3
  -9  15   6 263.325 81.6584   3
   9  15  -5 1785.64 140.974   2
  -9  15   5 1764.68 154.397   3
   9  15  -4 2794.37 171.838   2
  -9  15   4 2794.31 183.997   3
   9  15  -3 410.996 84.9895   2
  -9  15   3 425.063 92.0048   3
   9  15  -2 624.494 94.8512   2
  -9  15   2 369.440 81.1810   3
   9  15  -1 94.4027 61.9600   2
  -9  15   1 134.200 72.1571   3
  -9  15   0 663.195 101.860   3
   9  15   0 882.769 115.688   2
  -9  15  -1 3935.69 213.857   3
   9  15   1 3960.01 217.835   2
  -9  15  -2 2727.47 184.286   3
   9  15   2 2856.95 188.125   2
  -9  15  -3 10305.4 341.713   3
   9  15   3 10115.2 351.139   2
  -9  15  -4 215.352 73.1020   3
   9  15   4 405.375 96.5471   2
  -9  15  -5 908.804 118.696   3
   9  15   5 732.525 109.924   2
  -9  15  -6 177.993 67.4898   3
   9  15   6 390.712 97.1683   2
  -9  15  -7 681.786 100.986   3
   9  15   7 862.169 125.588   2
  -9  15  -8 23.7458 52.7143   3
   9  15   8 21.1918 66.9563   2
  -9  15  -9 1285.08 131.247   3
   9  15   9 1335.45 152.604   2
  -9  15 -10 219.926 73.5714   3
   9  15  10-24.4521 75.7952   2
  -9  15 -10 359.633 82.8468   1
   9  15  11 163.514 87.2215   2
  -9  15 -11 215.438 61.6461   3
  -9  15 -11 381.153 78.4523   1
  -9  15 -12 83.3581 50.1733   3
  -9  15 -13 1907.32 150.264   3
  -9  16  16 737.653 127.631   3
  -9  16  16 510.987 109.905   2
  -9  16  15 452.866 106.017   3
  -9  16  15 398.411 91.7415   2
  -9  16  14 2.17707 62.3342   3
  -9  16  13 2656.29 199.071   3
  -9  16  12 57.4254 74.9724   3
  -9  16  11 5315.83 269.271   3
  -9  16  10 802.723 120.924   3
  -9  16   9 45.6732 68.2047   3
  -9  16   8 110.325 72.5837   3
  -9  16   7 2912.68 199.065   3
  -9  16   6 855.848 114.400   3
   9  16  -5 3510.60 197.993   2
  -9  16   5 3670.68 214.007   3
   9  16  -4 1437.00 132.068   2
  -9  16   4 1475.80 146.911   3
   9  16  -3 265.686 71.3127   2
  -9  16   3 250.779 78.5308   3
   9  16  -2 430.060 89.6277   2
  -9  16   2 355.921 84.4348   3
  -9  16   1 4841.65 241.571   3
   9  16  -1 4844.98 235.417   2
  -9  16   0 48.3137 58.5282   3
   9  16   0 66.8322 58.2339   2
  -9  16  -1 1453.28 140.026   3
   9  16   1 1386.80 142.089   2
  -9  16  -2 202.002 72.2938   3
   9  16   2 151.899 69.6106   2
  -9  16  -3 193.621 70.6615   3
   9  16   3 204.953 79.3232   2
  -9  16  -4 35.1899 56.2040   3
   9  16   4 0.10959 58.4865   2
   9  16   5 1633.58 153.140   2
  -9  16  -5 2028.02 161.465   3
  -9  16  -6-50.4802 59.9547   3
   9  16   6-40.6341 68.3095   2
  -9  16  -7 816.814 106.771   3
   9  16   7 1092.95 137.580   2
  -9  16  -8 1616.48 142.910   3
   9  16   8 1432.67 153.623   2
   9  16   9-1.26053 67.7315   2
  -9  16  -9 108.692 60.0427   3
   9  16  10 48.9051 73.1162   2
  -9  16 -10 100.454 52.8185   3
  -9  16 -10 85.7091 62.0823   1
  -9  16 -11 2396.45 167.126   3
  -9  16 -11 2470.52 163.285   1
  -9  16 -12 99.3448 59.4603   3
  -9  17  15 1243.86 153.738   2
  -9  17  14 194.993 89.8552   3
  -9  17  14 79.6592 78.3984   2
  -9  17  13 2017.66 183.907   3
  -9  17  12 202.549 77.6053   3
  -9  17  11 668.031 113.675   3
  -9  17  10 1731.85 164.086   3
  -9  17   9 2782.58 201.597   3
  -9  17   8 696.725 111.346   3
  -9  17   7 5.38699 59.4104   3
  -9  17   6 673.649 103.871   3
   9  17  -5 621.879 91.5248   2
  -9  17   5 671.413 108.795   3
   9  17  -4 119.281 61.9348   2
  -9  17   4 97.4861 70.9699   3
  -9  17   3 2997.55 198.414   3
   9  17  -3 2688.62 173.930   2
   9  17  -2 426.320 84.4253   2
  -9  17   2 589.197 100.798   3
   9  17  -1 496.743 96.3932   2
  -9  17   1 401.689 84.2238   3
  -9  17   0 2420.27 179.485   3
   9  17   0 2353.51 171.831   2
  -9  17  -1 3955.17 222.481   3
   9  17   1 3699.30 215.072   2
  -9  17  -2 2286.93 174.326   3
   9  17   2 1804.80 158.013   2
   9  17   3 2716.71 193.360   2
  -9  17  -3 2686.45 187.243   3
   9  17   4 2366.86 183.245   2
  -9  17  -4 2582.70 181.967   3
  -9  17  -5 125.859 63.4439   3
   9  17   5 223.552 91.4199   2
  -9  17  -6 458.744 83.8982   3
   9  17   6 474.536 102.193   2
  -9  17  -7 1022.97 117.860   3
   9  17   7 1204.96 143.573   2
   9  17   8 86.2064 73.5160   2
  -9  17  -8 154.482 59.1242   3
   9  17   9 718.544 121.610   2
  -9  17  -9 735.830 102.506   3
  -9  17 -10 389.826 80.2741   3
  -9  17 -11 376.014 71.6272   3
  -9  17 -11 577.792 92.8826   1
  -9  18  14 233.594 87.6375   2
  -9  18  13 119.070 73.4871   2
  -9  18  12 609.428 114.272   3
  -9  18  12 380.735 96.4641   2
  -9  18  11 284.081 91.3870   3
  -9  18  10 236.828 82.4301   3
  -9  18   9 514.819 107.498   3
  -9  18   8 195.490 82.4995   3
  -9  18   7 878.224 120.622   3
  -9  18   6 422.163 92.0527   3
   9  18  -5-21.0356 50.8065   2
  -9  18   5-137.099 75.0009   3
   9  18  -4 668.895 96.4434   2
  -9  18   4 855.485 114.252   3
   9  18  -3 457.319 87.7358   2
  -9  18   3 502.231 88.6323   3
   9  18  -2 729.450 103.346   2
  -9  18   2 762.073 109.879   3
   9  18  -1-45.0764 52.6030   2
  -9  18   1 8.98812 62.6037   3
  -9  18   0 2224.20 175.757   3
   9  18   0 2222.36 169.717   2
  -9  18  -1 2058.72 167.479   3
   9  18   1 2011.00 166.983   2
  -9  18  -2 492.810 94.1848   3
   9  18   2 407.576 90.6947   2
  -9  18  -3 385.790 88.5414   3
   9  18   3 247.932 77.0212   2
  -9  18  -4 472.776 91.7424   3
   9  18   4 350.838 85.3993   2
  -9  18  -5-37.1075 56.1747   3
   9  18   5-40.8032 58.6841   2
   9  18   6 4411.68 250.261   2
  -9  18  -6 4291.34 225.937   3
   9  18   7 153.213 81.9632   2
  -9  18  -7 208.360 65.0216   3
   9  18   8 536.057 108.692   2
  -9  18  -8 520.114 85.7357   3
  -9  18  -9 448.707 77.5050   3
  -9  18 -11 384.694 81.6787   1
  -9  19  13 78.1296 59.6700   2
  -9  19  12 50.5801 71.0535   2
  -9  19  11 470.856 105.003   3
  -9  19  11 395.807 96.1631   2
  -9  19  10 168.638 78.3274   3
  -9  19  10 80.1021 69.0452   2
  -9  19   9 329.091 91.3408   3
  -9  19   8 1123.12 134.068   3
  -9  19   7 74.1954 62.1697   3
  -9  19   6 80.9106 67.3018   3
   9  19  -5 707.027 94.7365   2
  -9  19   5 544.992 98.0582   3
   9  19  -4 80.3188 52.1261   2
  -9  19   4 39.1333 61.3300   3
   9  19  -3 75.8331 49.2441   2
  -9  19   3 45.1196 61.1924   3
   9  19  -2 47.5847 57.0808   2
  -9  19   2 61.1275 71.9215   3
   9  19  -1 85.6990 62.4073   2
  -9  19   1 65.1935 57.9999   3
  -9  19   0 130.205 70.2133   3
   9  19   0 211.456 65.9380   2
  -9  19  -1-33.9394 56.9809   3
   9  19   1 42.3151 53.3929   2
  -9  19  -2 846.921 115.051   3
   9  19   2 990.436 123.651   2
  -9  19  -3 961.160 121.477   3
   9  19   3 812.633 119.076   2
   9  19   4 1535.74 154.622   2
  -9  19  -4 1517.44 141.629   3
   9  19   5 2154.82 182.213   2
  -9  19  -5 2166.96 164.397   3
  -9  19  -6 47.3533 55.3395   3
   9  19   6 10.5096 59.2758   2
   9  19   7 139.046 72.8822   2
  -9  19  -7 11.4876 48.0647   3
  -9  19  -8 1006.38 115.616   3
  -9  20  12-69.6701 63.6953   2
  -9  20  11 827.170 119.715   2
  -9  20  10 196.913 77.7091   2
  -9  20   9 106.920 72.5120   3
  -9  20   9-38.0583 63.2828   2
  -9  20   8 116.056 63.0021   3
  -9  20   8 64.5638 61.7238   2
  -9  20   7 737.393 115.237   3
  -9  20   6 34.6513 61.8840   3
  -9  20   5-70.1553 69.8559   3
  -9  20   4-14.7548 63.6679   3
   9  20  -3 241.169 61.2495   2
  -9  20   3 311.296 84.9112   3
   9  20  -2 108.002 56.6645   2
  -9  20   2 170.941 68.1083   3
   9  20  -1 456.193 88.3214   2
  -9  20   1 390.394 84.5370   3
  -9  20   0 60.4874 68.1742   3
   9  20   0-41.4641 56.0774   2
  -9  20  -1 2038.54 168.724   3
   9  20   1 1960.82 159.665   2
  -9  20  -2 702.476 104.902   3
   9  20   2 659.633 105.047   2
  -9  20  -3 114.912 64.7252   3
   9  20   3-2.83165 62.6185   2
  -9  20  -4 150.915 67.2303   3
   9  20   4 8.60680 60.3366   2
   9  20   5 1700.91 158.903   2
  -9  20  -5 1854.29 151.742   3
   9  20   6 198.832 76.6930   2
  -9  20  -6 130.223 68.7166   3
  -9  21  10 51.2513 67.1893   2
  -9  21   9 1469.14 143.100   2
  -9  21   8 1419.28 139.485   2
  -9  21   7 941.508 116.706   2
  -9  21   6 119.853 73.5095   3
  -9  21   6 0.66919 50.5593   2
  -9  21   5 79.7982 63.8764   3
  -9  21   5-187.470 67.8424   2
  -9  21   4 19.5984 63.5777   3
  -9  21   3 949.893 126.182   3
  -9  21   2 100.419 73.4692   3
  -9  21   1 1292.42 142.465   3
   9  21  -1 1604.56 139.881   2
   9  21   0 116.108 57.2674   2
  -9  21   0-11.4673 63.1521   3
  -9  21  -1 29.0325 57.3084   3
   9  21   1-33.0553 56.8507   2
   9  21   2 1505.61 144.681   2
  -9  21  -2 1858.87 159.120   3
   9  21   3 2173.63 170.964   2
  -9  21  -3 2381.05 173.612   3
  -9  21  -4 1080.86 120.272   3
   9  21   4 1290.22 139.736   2
  -9  22   9 245.066 77.1582   2
  -9  22   8 61.0877 63.4522   2
  -9  22   7 153.120 70.1977   2
  -9  22   3 145.925 71.2156   3
  -9  22   2 2233.42 175.914   3
  -9  22   1 405.810 89.5621   3
  -9  22   0 705.306 107.550   3
  -9  22  -1 48.6155 60.0979   3
   9  22   1 30.3025 54.7584   2
  -9  22  -2 405.091 87.1968   3
   9  22   2 167.991 64.6183   2
   9  22   3 416.843 86.2879   2
 -10   0  26 1435.60 143.808   2
 -10   0  24 2679.77 175.743   3
 -10   0  23 26.5772 55.0410   3
 -10   0  22 91.5265 55.7361   3
 -10   0  21 29.4913 64.3874   3
 -10   0  20 1446.18 133.805   3
 -10   0  19 4.66768 66.6521   3
 -10   0  18 3940.40 206.309   3
 -10   0  17-21.6650 50.5973   3
 -10   0  16 489.652 87.9001   3
 -10   0  15-39.9275 53.0350   3
 -10   0  14 197.570 64.8563   3
 -10   0  13-24.0120 52.4521   3
 -10   0  12 1066.46 109.830   3
 -10   0  11 70.7323 49.9133   3
 -10   0  10-72.1969 60.8352   3
 -10   0   9 44.6319 55.0170   3
 -10   0   8 7980.32 273.096   3
 -10   0   7 14.9597 55.5325   3
 -10   0   6 5452.41 230.725   3
 -10   0   5 40.4838 57.0696   3
 -10   0   4 5591.93 232.691   3
 -10   0   3 16.2798 55.2832   3
 -10   0   2 231.409 66.3937   3
 -10   0   1-49.0844 66.2277   3
 -10   0   0 391.748 80.9571   3
 -10   0  -1-114.493 71.5519   3
 -10   0  -2-34.8711 63.5872   3
  10   0   3-46.9452 61.9061   2
  10   0   4 797.231 104.699   2
  10   0   5 26.0151 57.4622   2
  10   0   6 3187.01 193.196   2
  10   0   7-60.7543 67.2418   2
  10   0   8 1176.28 129.848   2
  10   0   9-32.1821 63.4232   2
  10   0  10 781.912 107.817   2
  10   0  11 67.9889 66.5127   2
  10   0  12 363.316 81.6056   2
  10   0  13-1.53402 59.7641   2
  10   0  14 412.251 95.6546   2
  10   0  15 9.00225 59.1285   2
  10   0  16 2812.30 200.596   2
  10   0  17-25.9516 67.5881   2
  10   0  18 1390.15 146.683   2
  10   0  19 82.8308 62.8328   2
 -10   1  25 68.6772 58.4346   3
 -10   1  24 69.9881 59.3991   3
 -10   1  23 549.638 94.8468   3
 -10  -1  23 610.306 89.3360   3
 -10  -1  22 816.903 102.922   3
 -10   1  22 794.341 105.675   3
 -10  -1  21 1242.79 124.552   3
 -10   1  21 1272.34 130.738   3
 -10  -1  20 88.4004 51.5765   3
 -10   1  20 227.808 70.7466   3
 -10  -1  19 919.229 103.221   3
 -10   1  19 915.933 110.324   3
 -10  -1  18 162.007 62.1717   3
 -10   1  18 114.860 63.3547   3
 -10  -1  17 310.990 74.1958   3
 -10   1  17 385.933 76.3016   3
 -10  -1  16 212.896 64.0491   3
 -10   1  16 169.262 65.0126   3
 -10  -1  15 942.090 106.283   3
 -10   1  15 990.835 114.391   3
 -10  -1  14 350.587 71.2121   3
 -10   1  14 499.430 88.3600   3
 -10  -1  13-46.6482 52.4152   3
 -10   1  13 52.5200 54.2284   3
 -10  -1  12 899.287 101.069   3
 -10   1  12 786.021 100.490   3
 -10  -1  11 1657.52 130.067   3
 -10   1  11 1444.83 127.893   3
 -10  -1  10 6724.37 250.471   3
 -10   1  10 6439.84 250.984   3
 -10  -1   9 4492.04 206.196   3
 -10   1   9 4297.80 208.503   3
 -10  -1   8 4785.60 213.601   3
 -10   1   8 4952.38 222.640   3
 -10  -1   7 818.942 102.691   3
 -10   1   7 930.941 104.965   3
 -10  -1   6 215.838 70.3217   3
 -10   1   6 294.762 69.4271   3
 -10  -1   5 373.155 75.1909   3
 -10   1   5 231.072 68.2910   3
 -10  -1   4 58.2965 52.7542   3
 -10   1   4 90.5161 59.1498   3
 -10  -1   3 3957.88 197.360   3
 -10   1   3 4078.65 205.302   3
 -10  -1   2 2639.50 165.821   3
 -10   1   2 2548.23 165.499   3
 -10  -1   1 347.393 71.2859   3
 -10   1   1 298.485 73.3138   3
 -10  -1   0-47.7516 63.2610   3
 -10   1   0-18.9966 53.6088   3
 -10  -1  -1 1385.22 125.540   3
 -10   1  -1 1437.58 128.972   3
 -10   1  -2 2507.95 169.607   3
  10   1   2 2456.21 168.211   2
 -10   1  -3 54.0582 56.9221   3
  10   1   3 215.385 65.6613   2
  10   1   4 446.245 82.7412   2
  10  -1   4 587.183 99.2818   2
  10   1   5 410.125 90.5087   2
  10  -1   5 373.935 81.3403   2
  10   1   6 225.484 70.3908   2
  10  -1   6 431.496 89.3196   2
  10  -1   7 2966.68 187.869   2
  10   1   7 3323.33 200.951   2
  10  -1   8 4169.69 218.964   2
  10   1   8 4486.49 233.479   2
  10   1   9 948.019 118.631   2
  10  -1   9 904.716 113.781   2
  10   1  10 1424.27 139.671   2
  10  -1  10 1535.83 144.347   2
  10   1  11-80.3309 59.4185   2
  10  -1  11-2.36752 57.9997   2
  10  -1  12 9.79382 59.7663   2
  10   1  12-24.2337 70.7124   2
  10  -1  13 31.2444 58.3479   2
  10   1  13 203.101 82.6829   2
  10  -1  14-33.8321 56.7945   2
  10   1  14-17.0632 65.3220   2
  10  -1  15 129.231 72.4303   2
  10   1  15 208.672 77.4352   2
  10  -1  16 265.713 81.8567   2
  10   1  16 104.768 73.0043   2
  10   1  17 113.829 63.5921   2
  10  -1  17 120.560 72.1875   2
  10   1  18 285.263 87.6058   2
  10  -1  18 216.035 77.9910   2
  10  -1  19 1865.28 162.175   2
 -10   2  26 30.4874 52.9118   3
 -10   2  25 2084.83 162.179   3
 -10   2  24 21.2476 61.0138   3
 -10   2  23 900.857 115.652   3
 -10  -2  22 1757.28 139.589   3
 -10   2  22 1628.93 151.195   3
 -10  -2  21 41.4033 55.2055   3
 -10   2  21 115.716 74.1692   3
 -10  -2  20 658.620 89.0650   3
 -10   2  20 558.534 95.4690   3
 -10  -2  19 1520.08 127.505   3
 -10   2  19 1616.90 141.451   3
 -10  -2  18 257.548 68.1267   3
 -10   2  18 218.509 76.4554   3
 -10  -2  17 3637.53 185.438   3
 -10   2  17 3700.49 201.213   3
 -10  -2  16 339.853 73.5837   3
 -10   2  16 374.731 83.1213   3
 -10  -2  15 485.849 81.9692   3
 -10   2  15 587.777 92.1447   3
 -10  -2  14 1425.10 120.198   3
 -10   2  14 1512.04 132.244   3
 -10  -2  13 2516.30 153.512   3
 -10   2  13 2575.60 168.087   3
 -10  -2  12 39.0267 57.0845   3
 -10   2  12-77.6057 62.4410   3
 -10  -2  11 430.269 75.7330   3
 -10   2  11 345.542 75.2930   3
 -10  -2  10 890.127 102.130   3
 -10   2  10 1016.14 112.484   3
 -10  -2   9 90.1388 52.7100   3
 -10   2   9 73.8788 61.8025   3
 -10  -2   8 1130.67 112.229   3
 -10   2   8 1536.50 129.935   3
 -10  -2   7 11998.0 332.895   3
 -10   2   7 11777.8 342.140   3
 -10  -2   6 3289.47 178.976   3
 -10   2   6 3580.29 193.724   3
 -10  -2   5 6374.75 246.006   3
 -10   2   5 6766.18 262.003   3
 -10  -2   4 49.6308 54.0457   3
 -10   2   4 180.398 69.2499   3
 -10  -2   3 359.831 66.2540   3
 -10   2   3 435.874 83.2903   3
 -10  -2   2 62.5249 55.6071   3
 -10   2   2 1.09989 56.7342   3
 -10  -2   1 1968.44 145.050   3
 -10   2   1 1987.45 150.078   3
 -10  -2   0 230.385 63.6423   3
 -10   2   0 250.838 71.8405   3
 -10   2  -1 1206.07 123.581   3
  10   2   1 1199.05 128.702   2
 -10   2  -2 150.556 57.2052   3
  10   2   2 117.556 59.6427   2
 -10   2  -3-43.7913 64.5976   3
  10   2   3 25.9095 59.5134   2
 -10   2  -4 19.2237 59.6034   3
  10   2   4 73.4599 60.2150   2
  10   2   5 2576.60 175.578   2
  10   2   6 24.7012 59.3982   2
  10  -2   6 151.688 71.9371   2
  10  -2   7 2573.90 175.169   2
  10   2   7 2373.78 173.536   2
  10  -2   8 1204.50 125.600   2
  10   2   8 1338.81 135.456   2
  10   2   9-68.4983 70.2471   2
  10  -2   9 65.7040 59.3232   2
  10   2  10 21.1266 64.8072   2
  10  -2  10 37.3075 65.2332   2
  10  -2  11 227.191 76.2489   2
  10   2  11 128.224 67.3828   2
  10  -2  12 254.433 73.8675   2
  10   2  12 158.514 77.5117   2
  10  -2  13 632.482 102.256   2
  10   2  13 580.245 101.935   2
  10  -2  14 819.681 115.097   2
  10   2  14 854.128 120.807   2
  10  -2  15 694.371 107.838   2
  10   2  15 606.763 111.099   2
  10  -2  16 258.418 81.7609   2
  10   2  16 214.529 84.0948   2
  10   2  17 2564.18 194.996   2
  10  -2  17 2523.72 186.164   2
  10  -2  18 855.132 117.052   2
  10   2  18 927.380 130.352   2
  10  -2  19 282.384 87.2887   2
 -10   3  26 356.428 80.0091   3
 -10   3  25 223.186 79.4814   3
 -10   3  24 49.1143 59.6157   3
 -10   3  23 1058.29 125.355   3
 -10   3  22 3312.86 209.987   3
 -10  -3  21 5492.25 229.927   3
 -10   3  21 5297.80 254.710   3
 -10  -3  20 546.401 86.0605   3
 -10   3  20 634.435 103.726   3
 -10  -3  19 121.909 51.9982   3
 -10   3  19 174.793 69.9952   3
 -10  -3  18 60.2744 50.4991   3
 -10   3  18-104.468 67.6069   3
 -10  -3  17 464.590 81.4081   3
 -10   3  17 323.094 78.5066   3
 -10  -3  16 975.659 103.003   3
 -10   3  16 767.911 101.356   3
 -10  -3  15 1426.42 122.644   3
 -10   3  15 1628.46 140.087   3
 -10  -3  14 962.404 102.887   3
 -10   3  14 906.659 107.872   3
 -10  -3  13 9.61975 45.9689   3
 -10   3  13 80.3435 58.7609   3
 -10  -3  12 120.303 56.9194   3
 -10   3  12-13.1317 58.6740   3
 -10  -3  11 1998.11 138.599   3
 -10   3  11 1752.42 143.212   3
 -10  -3  10 2183.31 145.369   3
 -10   3  10 2200.10 154.271   3
 -10  -3   9 3593.30 184.320   3
 -10   3   9 3772.96 198.793   3
 -10  -3   8 2277.20 151.420   3
 -10   3   8 2380.63 163.608   3
 -10  -3   7 102.867 51.4704   3
 -10   3   7 300.093 77.6924   3
 -10  -3   6 86.6683 58.4406   3
 -10   3   6 67.6755 63.9942   3
 -10  -3   5 583.612 86.0388   3
 -10   3   5 640.078 97.2147   3
 -10  -3   4 2374.01 154.486   3
 -10   3   4 2422.47 162.406   3
 -10  -3   3 5109.29 220.774   3
 -10   3   3 6007.00 249.099   3
 -10  -3   2 1723.63 133.779   3
 -10   3   2 1688.00 140.321   3
 -10  -3   1 135.933 62.6162   3
 -10   3   1 169.731 62.6182   3
 -10   3   0 653.343 99.7460   3
  10   3   1 2576.20 172.415   2
 -10   3  -1 2603.50 172.776   3
  10   3   2 1765.09 149.508   2
 -10   3  -2 1662.21 137.012   3
  10   3   3 1892.14 151.392   2
 -10   3  -3 2083.04 156.505   3
  10   3   4 12.1508 56.3116   2
 -10   3  -4-17.9046 61.4764   3
 -10   3  -5 3011.97 192.174   3
  10   3   5 3012.30 190.936   2
  10   3   6 74.6311 64.4326   2
  10   3   7-59.4325 66.6498   2
  10  -3   7-19.0222 60.4207   2
  10   3   8 177.537 76.0701   2
  10  -3   8 285.982 76.8738   2
  10  -3   9 543.277 91.3039   2
  10   3   9 832.090 113.316   2
  10  -3  10 875.813 112.066   2
  10   3  10 624.706 102.602   2
  10  -3  11 662.725 98.1665   2
  10   3  11 517.529 95.2394   2
  10  -3  12-11.2745 58.0751   2
  10   3  12-19.4053 67.2826   2
  10  -3  13 637.377 101.889   2
  10   3  13 453.410 95.8004   2
  10  -3  14 30.4716 54.4456   2
  10   3  14 136.765 69.6362   2
  10  -3  15 62.2844 54.8646   2
  10   3  15 47.5859 71.7697   2
  10  -3  16 213.941 75.4584   2
  10   3  16 174.258 82.5566   2
  10  -3  17 130.473 58.1084   2
  10   3  17 25.3411 67.8431   2
  10  -3  18 27.7425 56.7810   2
  10  -3  19 1149.43 130.449   2
 -10   4  26 316.684 79.9294   3
 -10   4  25 207.515 72.5607   3
 -10   4  24 3611.32 218.708   3
 -10   4  23 102.092 60.7206   3
 -10   4  22 757.819 109.614   3
 -10   4  21 1479.25 150.666   3
 -10   4  20 1501.17 144.752   3
 -10  -4  19-22.9334 45.7241   3
 -10   4  19 1.04348 64.1602   3
 -10  -4  18 1397.91 117.007   3
 -10   4  18 1199.50 128.164   3
 -10  -4  17 163.906 55.0886   3
 -10   4  17 37.7313 57.4949   3
 -10  -4  16 20.6799 42.4944   3
 -10   4  16 10.6972 60.5238   3
 -10  -4  15 796.817 92.4930   3
 -10   4  15 719.494 101.371   3
 -10  -4  14 2535.73 150.711   3
 -10   4  14 2573.82 175.270   3
 -10  -4  13 366.998 75.0455   3
 -10   4  13 474.156 90.1232   3
 -10  -4  12 775.822 91.8948   3
 -10   4  12 756.036 100.295   3
 -10  -4  11 115.888 59.3540   3
 -10   4  11 164.698 71.5329   3
 -10  -4  10 4.22246 48.7459   3
 -10   4  10 19.9739 56.1733   3
 -10  -4   9 1311.03 113.572   3
 -10   4   9 1429.42 130.898   3
 -10  -4   8 4732.32 205.877   3
 -10   4   8 4644.90 222.101   3
 -10  -4   7-2.94732 51.2840   3
 -10   4   7 52.0612 55.9599   3
 -10  -4   6 13377.6 343.561   3
 -10   4   6 13771.5 374.340   3
 -10  -4   5 566.924 85.3716   3
 -10   4   5 681.202 99.1882   3
 -10  -4   4 464.126 76.5127   3
 -10   4   4 524.127 90.1038   3
 -10  -4   3 6.50051 60.1504   3
 -10   4   3 43.9968 63.3972   3
 -10  -4   2 117.073 61.0771   3
 -10   4   2 146.133 60.4709   3
 -10   4   1 2141.20 155.513   3
 -10   4   0 966.226 114.388   3
  10   4   0 1013.97 119.023   2
 -10   4  -1 4.83547 54.0954   3
  10   4   1 8.66857 64.2208   2
  10   4   2 248.028 70.5744   2
 -10   4  -2 265.368 68.8541   3
  10   4   3 7.59561 58.1815   2
 -10   4  -3 69.5560 58.3957   3
 -10   4  -4 1588.19 144.843   3
  10   4   4 1605.68 144.553   2
 -10   4  -5 1388.39 135.004   3
  10   4   5 1245.88 131.867   2
 -10   4  -6 1853.67 154.549   3
  10   4   6 1726.57 153.297   2
 -10   4  -7 2513.11 179.241   3
  10   4   7 2830.52 190.229   2
  10   4   8 78.8593 70.1215   2
  10  -4   9 91.7248 55.4159   2
  10   4   9 70.7462 57.8671   2
  10  -4  10-57.7113 62.2647   2
  10   4  10-10.4544 60.7400   2
  10  -4  11 23.3667 57.6636   2
  10   4  11 71.9574 67.2154   2
  10  -4  12 428.891 86.5068   2
  10   4  12 285.334 82.0100   2
  10  -4  13 39.9203 53.6616   2
  10   4  13 21.7180 71.5852   2
  10  -4  14 81.0407 68.6810   2
  10   4  14 279.268 82.4922   2
  10  -4  15 152.352 65.2854   2
  10   4  15 122.170 74.8001   2
  10  -4  16 100.748 61.1778   2
  10   4  16 138.066 73.3315   2
  10  -4  17 132.432 62.7883   2
  10   4  17 289.764 89.5652   2
  10  -4  18 304.925 80.0064   2
 -10   5  25 71.1691 64.2202   3
 -10   5  24-69.6639 72.4469   3
 -10   5  23 204.141 74.4257   3
 -10   5  22 1609.34 152.629   3
 -10   5  21 252.041 82.3491   3
 -10   5  20 4271.92 236.493   3
 -10   5  19 85.4793 60.9449   3
 -10  -5  18 1303.20 111.627   3
 -10   5  18 1324.22 136.036   3
 -10  -5  17 254.946 67.7779   3
 -10   5  17 257.181 81.0202   3
 -10  -5  16 2334.85 145.347   3
 -10   5  16 2107.37 164.573   3
 -10  -5  15 2199.27 141.538   3
 -10   5  15 2388.03 172.064   3
 -10  -5  14 257.454 63.5723   3
 -10   5  14 357.024 83.3323   3
 -10  -5  13 60.8617 47.3920   3
 -10   5  13-0.18983 58.6605   3
 -10  -5  12 2096.81 137.424   3
 -10   5  12 2136.03 157.700   3
 -10  -5  11 1048.46 101.505   3
 -10   5  11 984.711 116.240   3
 -10  -5  10 14606.4 349.203   3
 -10   5  10 14824.1 393.128   3
 -10  -5   9 37.9157 49.3614   3
 -10   5   9 25.6207 61.8724   3
 -10  -5   8 1138.27 105.481   3
 -10   5   8 1173.00 124.771   3
 -10  -5   7 975.852 99.6741   3
 -10   5   7 1107.61 121.510   3
 -10  -5   6-35.1095 56.0176   3
 -10   5   6 79.1805 68.3612   3
 -10  -5   5-69.1119 59.2617   3
 -10   5   5 64.7074 60.0356   3
 -10  -5   4 1216.57 112.344   3
 -10   5   4 1105.51 120.376   3
 -10  -5   3 1051.14 109.434   3
 -10   5   3 1213.47 123.469   3
 -10  -5   2 1190.50 114.709   3
 -10   5   2 1202.25 125.403   3
 -10   5   1 753.032 99.5661   3
  10   5  -1 838.590 105.968   2
 -10   5   0 213.506 67.8639   3
  10   5   0 180.360 65.3756   2
  10   5   1 124.586 73.7671   2
 -10   5  -1 38.3358 56.0601   3
  10   5   2 1418.70 138.511   2
 -10   5  -2 1443.60 137.900   3
  10   5   3 402.694 79.4024   2
 -10   5  -3 366.943 85.3066   3
 -10   5  -4 1846.56 149.427   3
  10   5   4 1995.27 158.549   2
  10   5   5 336.167 93.5429   2
 -10   5  -5 286.470 80.8356   3
 -10   5  -6 2369.47 169.945   3
  10   5   6 2276.47 173.266   2
 -10   5  -7-5.86387 59.3365   3
  10   5   7 71.8877 59.1416   2
 -10   5  -8 7149.58 291.554   3
  10   5   8 7094.13 298.652   2
 -10   5  -9 445.424 94.0317   3
  10   5   9 533.479 104.271   2
  10   5  10 88.3213 61.9468   2
  10  -5  11 81.7524 58.0584   2
  10   5  11-3.53253 65.5286   2
  10  -5  12-83.9699 68.3272   2
  10   5  12-0.35125 62.8623   2
  10  -5  13 183.679 65.2741   2
  10   5  13 82.3079 72.2689   2
  10  -5  14 154.596 66.5422   2
  10   5  14-6.91690 66.6810   2
  10  -5  15 0.31938 54.3726   2
  10   5  15 29.0696 61.0599   2
  10  -5  16 126.736 69.0160   2
  10   5  16 62.0278 67.3720   2
  10  -5  17-6.22762 55.2193   2
  10  -5  18 690.247 101.949   2
 -10   6  24 224.787 79.1491   3
 -10   6  23 1116.48 136.709   3
 -10   6  22 278.666 85.0138   3
 -10   6  21 4.59401 66.8172   3
 -10   6  20 286.507 85.0842   3
 -10   6  19 2905.58 197.884   3
 -10   6  18 3542.49 213.230   3
 -10  -6  17 1163.18 105.537   3
 -10   6  17 1087.67 126.929   3
 -10  -6  16 79.6849 49.7131   3
 -10   6  16 86.0157 66.2635   3
 -10  -6  15 483.159 75.4682   3
 -10   6  15 479.949 92.3023   3
 -10  -6  14 2463.47 143.915   3
 -10   6  14 2593.06 179.229   3
 -10  -6  13 1730.05 122.643   3
 -10   6  13 1796.82 151.590   3
 -10  -6  12 1413.17 112.599   3
 -10   6  12 1392.92 134.053   3
 -10  -6  11 876.799 92.3612   3
 -10   6  11 1094.57 124.377   3
 -10  -6  10 22.1090 45.4990   3
 -10   6  10 170.748 69.6586   3
 -10  -6   9 129.115 51.2228   3
 -10   6   9 344.593 82.6104   3
 -10  -6   8 280.908 66.6202   3
 -10   6   8 330.196 79.4456   3
 -10  -6   7 1345.25 114.259   3
 -10   6   7 1588.27 139.102   3
 -10  -6   6 3934.10 187.022   3
 -10   6   6 4519.59 222.902   3
 -10  -6   5 6532.09 243.268   3
 -10   6   5 6734.75 270.443   3
 -10  -6   4 964.191 101.614   3
 -10   6   4 1006.29 118.942   3
 -10  -6   3 160.241 62.3429   3
 -10   6   3 162.024 64.8850   3
 -10   6   2 2482.46 170.572   3
  10   6  -1 4907.53 234.193   2
 -10   6   1 4911.36 230.691   3
  10   6   0 304.290 74.2025   2
 -10   6   0 437.817 87.2759   3
  10   6   1 387.882 89.8778   2
 -10   6  -1 378.016 80.0451   3
  10   6   2-10.6141 61.9006   2
 -10   6  -2-4.45693 59.2440   3
  10   6   3 76.8963 75.3171   2
 -10   6  -3 51.8784 60.7588   3
  10   6   4 151.781 73.8410   2
 -10   6  -4 142.561 67.8750   3
 -10   6  -5 6583.97 275.633   3
  10   6   5 6419.72 277.270   2
 -10   6  -6 335.382 82.1097   3
  10   6   6 310.732 89.4881   2
 -10   6  -7 2490.57 176.444   3
  10   6   7 2845.09 191.999   2
 -10   6  -8 153.353 70.7105   3
  10   6   8 230.763 87.2957   2
 -10   6  -9 440.067 85.1638   3
  10   6   9 532.438 102.641   2
 -10   6 -10 374.487 84.3174   3
  10   6  10 359.425 97.1673   2
 -10   6 -11-24.5295 64.4334   3
  10   6  11-77.3006 66.6845   2
  10   6  12 287.052 82.8351   2
  10  -6  13-16.7142 54.6851   2
  10   6  13-31.1120 69.6638   2
  10  -6  14 293.449 75.8295   2
  10   6  14 104.409 75.0116   2
  10  -6  15 467.116 87.2575   2
  10   6  15 400.415 103.808   2
  10  -6  16 229.499 74.9703   2
  10  -6  17 1150.27 121.668   2
 -10   7  23 1584.36 160.817   3
 -10   7  22 195.673 82.9596   3
 -10   7  21 5694.45 280.990   3
 -10   7  20 656.354 116.240   3
 -10   7  19 335.275 89.4888   3
 -10   7  18 101.566 73.2668   3
 -10   7  17 2739.18 189.001   3
 -10  -7  16 743.905 86.3131   3
 -10   7  16 618.864 104.861   3
 -10  -7  15 145.751 51.4001   3
 -10   7  15 135.255 67.8990   3
 -10  -7  14 893.061 89.9893   3
 -10   7  14 917.803 117.506   3
 -10  -7  13 22.6552 38.5531   3
 -10   7  13-111.517 61.5974   3
 -10  -7  12 72.1259 44.8385   3
 -10   7  12 40.2651 64.1455   3
 -10  -7  11 4245.71 186.327   3
 -10   7  11 4480.21 229.542   3
 -10  -7  10 1175.56 103.538   3
 -10   7  10 1259.41 131.101   3
 -10  -7   9 6246.06 227.195   3
 -10   7   9 6265.67 266.047   3
 -10  -7   8 131.979 54.3912   3
 -10   7   8 273.670 84.8154   3
 -10  -7   7 891.167 93.6972   3
 -10   7   7 1026.46 117.645   3
 -10  -7   6 408.890 70.4948   3
 -10   7   6 485.055 93.8065   3
 -10  -7   5 1411.08 120.591   3
 -10   7   5 1506.15 138.641   3
 -10  -7   4-44.8912 52.4949   3
 -10   7   4 87.5231 72.5398   3
 -10  -7   3 4936.13 215.023   3
 -10   7   3 5266.01 242.178   3
  10   7  -2 1716.59 144.850   2
 -10   7   2 1796.28 148.020   3
  10   7  -1 75.4768 58.8484   2
 -10   7   1 52.8281 56.0255   3
  10   7   0 440.758 87.4924   2
 -10   7   0 606.383 98.0318   3
  10   7   1 2800.04 180.807   2
 -10   7  -1 2829.59 184.544   3
  10   7   2 61.3774 61.8454   2
 -10   7  -2-4.34312 60.2756   3
 -10   7  -3 1427.86 132.018   3
  10   7   3 1424.24 138.266   2
 -10   7  -4 1970.20 157.565   3
  10   7   4 1846.41 154.567   2
  10   7   5 626.138 105.458   2
 -10   7  -5 544.837 88.1880   3
 -10   7  -6 830.487 111.740   3
  10   7   6 956.963 122.323   2
 -10   7  -7-18.6329 57.2912   3
  10   7   7 121.989 63.1301   2
 -10   7  -8 1380.74 134.468   3
  10   7   8 1174.82 134.519   2
 -10   7  -9 2465.23 178.806   3
  10   7   9 2410.31 183.601   2
 -10   7 -10 125.764 74.6391   3
  10   7  10 20.9040 64.6879   2
 -10   7 -11 228.231 76.5854   3
  10   7  11 432.797 90.9906   2
 -10   7 -12-59.5578 70.8614   3
  10   7  12-26.6352 61.0170   2
 -10   7 -13 103.989 66.1128   3
  10   7  13-64.1224 74.9929   2
  10   7  14 224.542 83.3701   2
  10   7  15 83.5835 73.9969   2
 -10   8  22 205.971 87.1983   3
 -10   8  21 761.242 121.776   3
 -10   8  20 510.650 101.648   3
 -10   8  19 1050.58 131.903   3
 -10   8  18 20.6715 64.3069   3
 -10   8  17 1593.87 150.789   3
 -10   8  16 164.422 77.7996   3
 -10   8  15 215.520 78.0138   3
 -10  -8  14 1139.94 98.9980   3
 -10   8  14 1230.90 132.500   3
 -10  -8  13 2122.59 131.894   3
 -10   8  13 2041.69 165.245   3
 -10  -8  12 1331.37 105.143   3
 -10   8  12 1365.42 137.779   3
 -10  -8  11 626.468 78.9771   3
 -10   8  11 683.445 101.861   3
 -10  -8  10 242.635 58.0127   3
 -10   8  10 316.055 85.2018   3
 -10  -8   9 1.81871 45.3592   3
 -10   8   9 5.97610 65.3427   3
 -10  -8   8 301.246 63.4122   3
 -10   8   8 370.824 83.1917   3
 -10  -8   7 1300.73 111.905   3
 -10   8   7 1476.34 136.927   3
 -10  -8   6 5014.83 208.928   3
 -10   8   6 5019.62 239.667   3
 -10  -8   5 1247.02 113.843   3
 -10   8   5 1167.61 128.597   3
 -10  -8   4 5012.92 213.471   3
 -10   8   4 4835.27 234.062   3
 -10   8   3 199.064 80.2195   3
  10   8  -2 2880.41 180.722   2
 -10   8   2 2858.55 183.245   3
  10   8  -1 134.940 65.7488   2
 -10   8   1-52.6543 60.1934   3
  10   8   0 1045.09 121.265   2
 -10   8   0 927.468 112.235   3
 -10   8  -1 1878.23 152.386   3
  10   8   1 1844.09 151.971   2
  10   8   2 259.283 79.2434   2
 -10   8  -2 237.574 72.6949   3
  10   8   3 613.307 102.008   2
 -10   8  -3 526.220 93.4030   3
  10   8   4 173.062 68.7536   2
 -10   8  -4 187.437 73.9805   3
 -10   8  -5 461.429 87.6286   3
  10   8   5 498.441 98.1074   2
 -10   8  -6 4351.11 230.439   3
  10   8   6 4326.18 237.076   2
 -10   8  -7 107.038 59.8000   3
  10   8   7 322.074 85.6270   2
 -10   8  -8 2497.50 177.310   3
  10   8   8 2537.58 190.036   2
 -10   8  -9 454.578 90.6021   3
  10   8   9 531.703 103.023   2
 -10   8 -10-24.9841 64.0460   3
  10   8  10 69.9299 61.9523   2
 -10   8 -11 974.062 127.903   3
  10   8  11 1184.92 139.241   2
 -10   8 -12 2290.35 177.231   3
  10   8  12 2556.09 196.989   2
 -10   8 -13 191.446 77.5842   3
  10   8  13 164.786 91.5809   2
 -10   8 -14 25.7405 63.0137   3
  10   8  14 9.96394 62.8593   2
 -10   8 -15 34.5705 56.9839   3
 -10   8 -16 1000.17 132.979   3
 -10   8 -17 766.954 111.023   3
 -10   9  21-12.7125 77.1830   3
 -10   9  20 569.036 105.727   3
 -10   9  19 58.4645 70.4214   3
 -10   9  18 54.8781 65.9905   3
 -10   9  17 114.013 68.5765   3
 -10   9  16 648.674 106.321   3
 -10   9  15-114.865 69.5264   3
 -10   9  14 2065.38 168.871   3
 -10  -9  13 2520.74 141.678   3
 -10   9  13 2719.87 192.821   3
 -10  -9  12 1386.63 106.784   3
 -10   9  12 1406.29 142.829   3
 -10  -9  11 478.733 68.4440   3
 -10   9  11 576.822 100.998   3
 -10  -9  10 1701.45 119.723   3
 -10   9  10 1749.56 155.205   3
 -10  -9   9 273.425 59.5962   3
 -10   9   9 150.399 72.0551   3
 -10  -9   8 5096.64 204.689   3
 -10   9   8 5276.10 248.465   3
 -10  -9   7 1370.90 114.527   3
 -10   9   7 1347.56 134.767   3
 -10  -9   6 448.723 74.1024   3
 -10   9   6 483.241 98.0352   3
 -10  -9   5 1175.35 109.380   3
 -10   9   5 1434.72 138.238   3
 -10  -9   4 4900.32 209.841   3
 -10   9   4 5935.87 262.006   3
  10   9  -3 302.617 76.3930   2
 -10   9   3 381.616 88.0123   3
  10   9  -2 2868.17 183.461   2
 -10   9   2 2900.27 186.251   3
  10   9  -1 1247.16 127.062   2
 -10   9   1 1075.35 121.753   3
  10   9   0 472.476 82.1460   2
 -10   9   0 592.682 97.3544   3
  10   9   1 209.988 73.5065   2
 -10   9  -1-94.1260 67.3190   3
 -10   9  -2 2635.21 176.066   3
  10   9   2 2860.06 190.154   2
  10   9   3 577.078 106.136   2
 -10   9  -3 614.012 98.4947   3
 -10   9  -4 2648.71 178.658   3
  10   9   4 2821.41 191.352   2
 -10   9  -5-16.9699 62.7052   3
  10   9   5 73.4870 62.6107   2
 -10   9  -6-67.9623 62.5962   3
  10   9   6 10.2259 64.9917   2
 -10   9  -7 15.6374 58.9669   3
  10   9   7 120.525 71.0510   2
 -10   9  -8 1761.15 154.456   3
  10   9   8 1792.30 161.890   2
 -10   9  -9 151.527 80.2603   3
  10   9   9 136.312 75.4579   2
 -10   9 -10 1277.53 138.566   3
  10   9  10 1468.14 150.050   2
 -10   9 -11 189.785 68.6231   3
  10   9  11 206.601 87.3822   2
 -10   9 -12 40.2207 62.5209   3
  10   9  12-7.23026 71.4225   2
 -10   9 -13-12.0559 56.4471   3
  10   9  13 191.472 83.6734   2
 -10   9 -14 927.999 123.114   3
 -10   9 -15 22.3361 65.5462   3
 -10   9 -16 1012.59 122.706   3
 -10   9 -17 103.698 64.1141   3
 -10  10  20-93.6015 78.0819   3
 -10  10  19 163.385 81.7634   3
 -10  10  18 1526.80 156.177   3
 -10  10  17 952.703 130.971   3
 -10  10  16 85.0213 68.5356   3
 -10  10  15 17.7848 66.7203   3
 -10  10  14 168.826 70.8536   3
 -10  10  13 2614.82 189.545   3
 -10  10  12 431.718 91.9332   3
 -10 -10  11 1397.65 106.473   3
 -10  10  11 1483.95 146.239   3
 -10 -10  10 349.597 62.3107   3
 -10  10  10 250.568 83.6453   3
 -10 -10   9 51.2013 43.6486   3
 -10  10   9 142.875 78.1372   3
 -10 -10   8 473.519 74.5798   3
 -10  10   8 635.290 106.772   3
 -10 -10   7 2787.51 153.276   3
 -10  10   7 3058.67 195.267   3
 -10 -10   6 861.771 92.8067   3
 -10  10   6 845.335 112.852   3
 -10 -10   5 1749.06 127.159   3
 -10  10   5 1644.43 147.905   3
 -10 -10   4 3621.44 183.983   3
 -10  10   4 3669.28 211.112   3
  10  10  -3 21.3151 58.1191   2
 -10  10   3 154.542 68.2124   3
  10  10  -2 0.37849 61.0494   2
 -10  10   2 38.3791 62.9665   3
  10  10  -1 404.927 86.0967   2
 -10  10   1 326.581 81.3629   3
  10  10   0 308.830 74.9076   2
 -10  10   0 320.248 78.4459   3
  10  10   1 1086.14 121.190   2
 -10  10  -1 1175.13 126.155   3
  10  10   2 557.162 103.895   2
 -10  10  -2 406.394 86.9773   3
  10  10   3 961.954 121.897   2
 -10  10  -3 994.624 120.118   3
 -10  10  -4 1115.49 124.535   3
  10  10   4 1129.63 132.843   2
 -10  10  -5 458.993 91.7325   3
  10  10   5 359.834 86.9157   2
 -10  10  -6 5175.15 251.089   3
  10  10   6 5515.73 269.063   2
 -10  10  -7 3121.44 201.148   3
  10  10   7 3419.84 218.134   2
 -10  10  -8 181.755 71.1743   3
  10  10   8 243.346 92.3665   2
 -10  10  -9 1053.48 124.388   3
  10  10   9 1106.47 137.753   2
 -10  10 -10 258.895 81.1356   3
  10  10  10 80.6711 75.3057   2
 -10  10 -11 418.379 89.1093   3
  10  10  11 501.184 109.198   2
 -10  10 -12 337.302 84.3922   3
  10  10  12 84.9489 64.8037   2
 -10  10 -13-50.5249 59.7965   3
  10  10  13 49.1410 71.3671   2
 -10  10 -14 182.357 72.0286   3
 -10  10 -15 492.341 96.2834   3
 -10  10 -16 712.789 110.542   3
 -10  11  19 1319.65 150.991   3
 -10  11  18 155.111 80.9097   3
 -10  11  17 51.5193 70.5096   3
 -10  11  16 97.4029 77.6753   3
 -10  11  15 196.246 81.4048   3
 -10  11  14 790.879 115.074   3
 -10  11  13 78.7757 59.5872   3
 -10  11  12 369.573 87.4166   3
 -10  11  11 2979.84 201.428   3
 -10 -11  10 713.809 82.8181   3
 -10  11  10 818.458 120.305   3
 -10 -11   9 7206.10 236.607   3
 -10  11   9 7873.64 309.019   3
 -10 -11   8 410.842 67.5347   3
 -10  11   8 327.486 88.5425   3
 -10 -11   7 435.112 71.6996   3
 -10  11   7 482.861 100.310   3
 -10 -11   6 1683.33 124.084   3
 -10  11   6 1628.82 151.322   3
 -10 -11   5 1073.93 103.866   3
 -10  11   5 1280.20 134.974   3
 -10  11   4 129.054 74.8327   3
  10  11  -3 1839.38 147.460   2
 -10  11   3 1841.63 155.901   3
  10  11  -2 727.990 104.576   2
 -10  11   2 836.167 115.529   3
  10  11  -1 576.526 100.943   2
 -10  11   1 570.209 97.6899   3
  10  11   0 70.2796 59.8795   2
 -10  11   0 123.918 70.5781   3
 -10  11  -1 2434.12 178.912   3
  10  11   1 2596.80 179.822   2
  10  11   2 46.2155 62.5758   2
 -10  11  -2 46.8721 63.7714   3
 -10  11  -3 5103.33 247.149   3
  10  11   3 5055.34 252.218   2
 -10  11  -4 505.990 87.8738   3
  10  11   4 503.720 101.381   2
 -10  11  -5 738.029 109.874   3
  10  11   5 856.893 122.309   2
 -10  11  -6 956.369 119.437   3
  10  11   6 865.311 123.936   2
 -10  11  -7 1318.74 134.441   3
  10  11   7 1301.51 146.241   2
 -10  11  -8 539.018 91.4619   3
  10  11   8 641.587 113.829   2
 -10  11  -9 949.045 123.687   3
  10  11   9 1119.05 134.531   2
 -10  11 -10 30.3333 63.9288   3
  10  11  10 58.0023 61.1668   2
 -10  11 -11 51.3591 67.8116   3
  10  11  11 84.3866 71.1525   2
 -10  11 -12-18.9728 55.5956   3
  10  11  12 71.8710 79.0348   2
 -10  11 -13 26.9531 57.8803   3
 -10  11 -14 68.8067 57.2370   3
 -10  11 -15 200.445 73.8141   3
 -10  11 -16 129.779 67.6938   3
 -10  12  18 1599.67 164.446   3
 -10  12  17 692.422 116.514   3
 -10  12  16 45.6767 71.0453   3
 -10  12  15 142.519 76.0220   3
 -10  12  14 375.542 94.3674   3
 -10  12  13 2155.80 177.064   3
 -10  12  12 357.921 92.2858   3
 -10  12  11 2872.37 201.747   3
 -10  12  10 237.731 81.4239   3
 -10  12   9 231.414 76.0320   3
 -10 -12   8 1878.13 125.490   3
 -10  12   8 1939.83 165.214   3
 -10 -12   7 4753.26 197.290   3
 -10  12   7 4918.02 251.822   3
 -10 -12   6 1082.10 105.874   3
 -10  12   6 1111.74 131.218   3
 -10 -12   5 1163.11 105.942   3
 -10  12   5 1201.23 134.667   3
  10  12  -4 79.6100 54.6650   2
 -10  12   4 31.9660 59.6206   3
  10  12  -3 56.0545 57.9944   2
 -10  12   3 193.748 67.1174   3
  10  12  -2 152.830 71.2484   2
 -10  12   2-60.2620 62.8098   3
  10  12  -1 56.5313 56.4112   2
 -10  12   1 170.282 77.3567   3
  10  12   0 167.959 67.9746   2
 -10  12   0 72.6613 59.1049   3
 -10  12  -1 3004.80 192.083   3
  10  12   1 3217.78 202.869   2
  10  12   2 340.474 87.3343   2
 -10  12  -2 394.085 85.9938   3
 -10  12  -3 47.6611 63.5795   3
  10  12   3 14.4179 66.6533   2
 -10  12  -4 213.274 71.6172   3
  10  12   4 201.000 76.5507   2
 -10  12  -5 1277.72 135.186   3
  10  12   5 1309.69 144.244   2
 -10  12  -6 886.195 117.516   3
  10  12   6 788.501 117.244   2
 -10  12  -7 2483.34 181.074   3
  10  12   7 2116.57 178.300   2
 -10  12  -8 55.0043 63.6534   3
  10  12   8 78.6969 76.4439   2
 -10  12  -9 137.385 69.7533   3
  10  12   9-16.7549 70.9871   2
 -10  12 -10 55.6631 61.4175   3
  10  12  10 136.320 83.9783   2
 -10  12 -11 279.665 84.3512   3
  10  12  11 219.211 87.7861   2
 -10  12 -12 586.531 99.6783   3
 -10  12 -13 583.989 95.7935   3
 -10  12 -14-34.2790 57.2652   3
 -10  12 -15 133.451 64.3229   3
 -10  13  17 195.004 90.0299   3
 -10  13  16 5660.43 292.481   3
 -10  13  15 840.445 128.484   3
 -10  13  14 2180.23 185.286   3
 -10  13  13 42.2872 64.6770   3
 -10  13  12 1797.93 168.829   3
 -10  13  11 38.2617 65.3906   3
 -10  13  10 5067.91 257.744   3
 -10  13   9 65.5711 69.4771   3
 -10  13   8 3937.88 228.770   3
 -10 -13   7 1184.15 107.006   3
 -10  13   7 1316.55 140.183   3
 -10 -13   6-34.6639 41.5030   3
 -10  13   6 57.8311 72.3582   3
 -10 -13   5 45.6288 49.6095   3
 -10  13   5 49.2087 60.7407   3
  10  13  -4 1073.11 120.354   2
 -10  13   4 1036.02 124.418   3
  10  13  -3 1131.03 122.589   2
 -10  13   3 971.300 124.744   3
  10  13  -2 970.286 116.976   2
 -10  13   2 1084.75 127.264   3
  10  13  -1 147.567 64.2213   2
 -10  13   1 486.162 97.5405   3
  10  13   0 534.418 96.3718   2
 -10  13   0 468.856 96.5161   3
 -10  13  -1 2105.37 166.556   3
  10  13   1 1816.50 155.988   2
 -10  13  -2 1456.59 145.971   3
  10  13   2 1334.05 143.477   2
 -10  13  -3 1313.82 136.680   3
  10  13   3 1252.65 133.396   2
 -10  13  -4 293.726 70.6569   3
  10  13   4 384.580 88.1481   2
 -10  13  -5 351.106 81.5821   3
  10  13   5 530.409 105.190   2
 -10  13  -6-69.8432 63.3667   3
  10  13   6 12.4532 62.3999   2
 -10  13  -7 805.684 109.916   3
  10  13   7 640.417 107.046   2
 -10  13  -8 1502.14 149.668   3
  10  13   8 1259.92 145.399   2
 -10  13  -9 214.772 71.5565   3
  10  13   9 179.018 84.8668   2
 -10  13 -10 429.695 87.1626   3
  10  13  10 414.589 109.878   2
 -10  13 -11 378.135 81.2726   3
 -10  13 -12 174.950 70.4341   3
 -10  13 -13-16.3042 51.2789   3
 -10  13 -14 178.311 68.0636   3
 -10  14  15 315.910 96.0413   3
 -10  14  14 2109.01 185.399   3
 -10  14  13 466.954 105.488   3
 -10  14  12 2287.49 185.660   3
 -10  14  11 1261.20 145.085   3
 -10  14  10 157.365 75.8101   3
 -10  14   9 724.208 117.943   3
 -10  14   8 1731.56 160.516   3
 -10  14   7 1228.66 140.920   3
 -10  14   6 8054.83 321.008   3
 -10 -14   5 490.030 74.8535   3
 -10  14   5 426.574 91.5407   3
  10  14  -4 77.0449 59.6460   2
 -10  14   4 136.325 68.8076   3
  10  14  -3 353.433 79.4366   2
 -10  14   3 404.414 92.6707   3
  10  14  -2 2301.77 174.124   2
 -10  14   2 2506.48 180.578   3
  10  14  -1 577.907 97.8987   2
 -10  14   1 486.850 88.7710   3
 -10  14   0 2375.03 182.749   3
  10  14   0 2062.76 165.128   2
  10  14   1-12.6622 56.8927   2
 -10  14  -1 20.8760 56.5737   3
  10  14   2 54.4219 69.3653   2
 -10  14  -2-109.264 67.8233   3
 -10  14  -3 271.709 80.2379   3
  10  14   3 358.554 88.9890   2
 -10  14  -4 2055.77 165.218   3
  10  14   4 2082.35 179.133   2
 -10  14  -5 174.929 75.7522   3
  10  14   5-33.8251 60.1162   2
 -10  14  -6 40.4982 60.8902   3
  10  14   6-36.0419 59.0174   2
 -10  14  -7 419.645 90.0540   3
  10  14   7 449.519 101.008   2
 -10  14  -8 23.0309 56.9074   3
  10  14   8 84.0963 74.1782   2
 -10  14  -9 57.5813 58.0059   3
  10  14   9 179.343 80.6578   2
 -10  14 -10-95.0220 65.7996   3
 -10  14 -11 101.609 64.3153   3
 -10  14 -12 682.179 104.216   3
 -10  14 -13 294.499 77.5518   3
 -10  15  14 527.429 109.762   3
 -10  15  13 50.0571 72.2765   3
 -10  15  12 230.182 82.1143   3
 -10  15  11 1741.05 164.257   3
 -10  15  10 1786.20 167.709   3
 -10  15   9 2135.31 181.452   3
 -10  15   8 278.988 78.1117   3
 -10  15   7 1651.37 154.499   3
 -10  15   6-46.5071 75.6661   3
 -10  15   5 391.866 91.2823   3
  10  15  -4-72.3590 56.3736   2
 -10  15   4 10.7977 60.5453   3
  10  15  -3 486.318 94.6637   2
 -10  15   3 690.217 110.974   3
  10  15  -2 1303.39 133.897   2
 -10  15   2 1571.04 150.790   3
  10  15  -1 181.560 78.4383   2
 -10  15   1 144.410 67.9586   3
  10  15   0 1010.35 125.986   2
 -10  15   0 987.850 126.055   3
 -10  15  -1 4351.07 239.680   3
  10  15   1 3958.46 233.273   2
 -10  15  -2 302.766 83.6121   3
  10  15   2 165.081 69.8661   2
 -10  15  -3 3260.21 206.028   3
  10  15   3 3394.68 214.377   2
 -10  15  -4-68.0119 62.1485   3
  10  15   4-10.3924 68.0429   2
 -10  15  -5 218.292 76.2682   3
  10  15   5 210.705 82.9630   2
 -10  15  -6 108.191 62.8164   3
  10  15   6 38.2576 65.5485   2
 -10  15  -7 575.969 98.2132   3
  10  15   7 280.384 90.7372   2
 -10  15  -8 1021.58 121.409   3
  10  15   8 1172.80 148.242   2
 -10  15  -9 268.909 75.5200   3
 -10  15 -10 58.8562 58.6904   3
 -10  15 -11 341.977 80.0111   3
 -10  15 -12 156.243 61.5790   3
 -10  16  12 660.408 123.168   3
 -10  16  11 1480.16 164.040   3
 -10  16  10 16.1773 64.0442   3
 -10  16   9 1840.71 171.672   3
 -10  16   8 477.967 100.050   3
 -10  16   7 1441.07 149.375   3
 -10  16   6 622.943 109.207   3
 -10  16   5 3102.48 210.099   3
  10  16  -4 239.083 78.0370   2
 -10  16   4 73.3901 64.3609   3
  10  16  -3 16.0335 55.1634   2
 -10  16   3-48.6420 62.6910   3
  10  16  -2 22.0023 57.9756   2
 -10  16   2 108.471 73.2927   3
 -10  16   1 3508.46 218.261   3
  10  16  -1 3784.91 220.390   2
  10  16   0 52.8933 64.1915   2
 -10  16   0-40.4631 63.9156   3
 -10  16  -1 2389.68 181.878   3
  10  16   1 2021.67 168.992   2
 -10  16  -2 383.475 87.4340   3
  10  16   2 256.791 82.9873   2
 -10  16  -3 52.7888 65.8973   3
  10  16   3 6.11915 63.7899   2
 -10  16  -4 152.923 66.6394   3
  10  16   4 356.349 85.8955   2
 -10  16  -5 2580.71 190.876   3
  10  16   5 3113.91 213.625   2
 -10  16  -6 61.7109 58.7373   3
  10  16   6-14.8546 67.8659   2
  10  16   7 2054.05 185.125   2
 -10  16  -7 2238.25 174.821   3
 -10  16  -8 68.4959 56.9338   3
 -10  16  -9 162.123 70.7318   3
 -10  16 -10-55.8926 65.7349   3
 -10  16 -11 383.104 84.1872   3
 -10  17  10 1140.61 144.576   3
 -10  17   9 670.615 123.323   3
 -10  17   8 1011.50 134.909   3
 -10  17   7-60.0647 63.4329   3
 -10  17   6 2217.01 185.209   3
 -10  17   5 667.071 117.029   3
  10  17  -4 1036.88 119.187   2
 -10  17   4 1258.23 142.572   3
  10  17  -3 511.719 92.5597   2
 -10  17   3 570.141 102.485   3
  10  17  -2 625.218 105.000   2
 -10  17   2 748.125 109.110   3
  10  17  -1 177.204 73.4151   2
 -10  17   1 345.793 90.4948   3
  10  17   0 149.186 72.9766   2
 -10  17   0 27.1339 57.6709   3
  10  17   1 150.537 75.5332   2
 -10  17  -1 93.6833 63.9596   3
 -10  17  -2 899.138 120.632   3
  10  17   2 807.775 115.540   2
 -10  17  -3 993.757 121.350   3
  10  17   3 646.398 108.726   2
 -10  17  -4 1644.59 150.138   3
  10  17   4 1565.55 158.734   2
 -10  17  -5 615.029 98.2077   3
  10  17   5 759.869 118.954   2
 -10  17  -6 6.38067 64.2695   3
  10  17   6 55.5111 68.3239   2
 -10  17  -7 2164.27 171.821   3
 -10  17  -8 1195.09 128.935   3
 -10  17  -9 501.469 92.0990   3
 -10  18   8 812.040 123.585   3
 -10  18   7 114.034 73.6942   3
 -10  18   6 2542.13 193.653   3
 -10  18   5 119.372 74.7927   3
  10  18  -4 3019.83 192.629   2
 -10  18   4 3098.29 209.638   3
  10  18  -3 664.088 100.886   2
 -10  18   3 431.756 100.357   3
  10  18  -2 332.902 87.0566   2
 -10  18   2 390.169 92.0376   3
  10  18  -1 261.334 77.6012   2
 -10  18   1 283.164 83.7803   3
 -10  18   0 2198.61 181.308   3
  10  18   0 2151.11 172.451   2
  10  18   1 138.852 76.1122   2
 -10  18  -1 190.111 78.6490   3
 -10  18  -2 383.595 92.9441   3
  10  18   2 355.651 83.8879   2
 -10  18  -3 332.037 91.8939   3
  10  18   3 202.552 78.2710   2
 -10  18  -4 634.400 100.708   3
  10  18   4 521.263 106.193   2
 -10  18  -5 287.288 76.8695   3
  10  18   5 435.414 95.9936   2
 -10  18  -6 2694.88 182.640   3
 -10  18  -7 443.532 87.9380   3
 -10  18  -8 1681.25 142.398   3
 -10  19   5 80.0529 72.0328   3
  10  19  -4 726.147 102.823   2
 -10  19   4 580.735 106.336   3
  10  19  -3 235.111 73.6777   2
 -10  19   3 452.499 101.203   3
  10  19  -2 1261.00 129.918   2
 -10  19   2 1154.89 136.427   3
  10  19  -1 318.456 80.4602   2
 -10  19   1 250.598 77.2810   3
  10  19   0 15.0009 55.7335   2
 -10  19   0 27.3983 59.6763   3
  10  19   1 38.6854 53.2086   2
 -10  19  -1 184.508 76.0344   3
 -10  19  -2 2281.90 182.265   3
  10  19   2 2269.13 179.160   2
 -10  19  -3 1514.25 146.188   3
  10  19   3 1525.76 151.801   2
 -10  19  -4 362.640 93.3133   3
 -10  19  -5 593.638 93.4671   3
 -10  19  -6 99.2865 55.1688   3
  10  20  -2 197.822 68.5050   2
  10  20  -1 957.741 117.492   2
 -10  20   1 758.327 118.145   3
  10  20   0 1066.61 123.397   2
 -10  20   0 871.981 122.277   3
  10  20   1 233.979 66.9428   2
 -10  20  -1 70.5504 55.4346   3
 -10  20  -2 248.489 79.7445   3
  10  20   2 284.127 81.6573   2
 -10  20  -3 1337.76 139.506   3
 -10  20  -4 97.9407 63.6968   3
 -11   0  23-47.9016 58.9607   3
 -11   0  22 701.977 104.577   3
 -11   0  21 10.9747 54.1717   3
 -11   0  20 65.1193 53.5041   3
 -11   0  19 28.9054 61.5034   3
 -11   0  18 6159.77 266.735   3
 -11   0  17 86.8928 58.1271   3
 -11   0  16 1604.91 139.047   3
 -11   0  15 18.5340 52.9354   3
 -11   0  14 29.0262 55.9056   3
 -11   0  13 14.7370 51.5599   3
 -11   0  12 699.325 101.796   3
 -11   0  11 21.8534 55.8760   3
 -11   0  10-51.3629 56.3095   3
 -11   0   9-59.6403 59.7796   3
 -11   0   8 41.0723 59.8765   3
 -11   0   7-65.0225 58.9361   3
 -11   0   6 2602.83 170.636   3
 -11   0   5-21.1350 55.0717   3
 -11   0   4 3135.22 188.672   3
 -11   0   3 17.1796 61.1029   3
 -11   0   2-22.9147 64.3748   3
 -11   0   1-65.4507 72.4614   3
 -11   0   0 245.380 74.7418   3
 -11   0  -1 49.8590 62.4424   3
 -11   0  -2 116.100 61.3798   3
 -11   0  -3-6.59787 62.8284   3
  11   0   5-30.1375 59.9662   2
  11   0   6 3900.91 222.056   2
  11   0   7-24.3492 65.4556   2
  11   0   8 3245.71 211.210   2
  11   0   9 52.7469 72.7781   2
  11   0  10 4937.90 256.139   2
  11   0  11-44.0844 63.8070   2
  11   0  12 1367.21 145.623   2
  11   0  13-59.6971 64.8241   2
  11   0  14 84.8770 60.0168   2
  11   0  15-64.2665 73.6787   2
 -11   1  24 778.542 107.492   3
 -11   1  23 1313.06 136.445   3
 -11  -1  22 969.499 113.932   3
 -11   1  22 917.367 115.446   3
 -11  -1  21 942.691 109.690   3
 -11   1  21 1005.23 119.735   3
 -11  -1  20 242.261 69.9924   3
 -11   1  20 82.2502 60.0276   3
 -11  -1  19 374.950 81.4137   3
 -11   1  19 353.550 84.1157   3
 -11  -1  18 9.17547 53.1997   3
 -11   1  18-41.9444 60.1133   3
 -11  -1  17 127.747 64.3582   3
 -11   1  17 3.19082 63.1279   3
 -11  -1  16 257.467 69.1102   3
 -11   1  16 348.297 79.9353   3
 -11  -1  15 77.9266 56.5371   3
 -11   1  15 177.200 67.6020   3
 -11  -1  14 799.865 98.8376   3
 -11   1  14 634.852 98.1034   3
 -11  -1  13 1603.76 134.408   3
 -11   1  13 1799.84 147.880   3
 -11  -1  12 119.050 58.3483   3
 -11   1  12 5.54076 55.6073   3
 -11  -1  11 2861.94 174.482   3
 -11   1  11 2874.60 181.938   3
 -11  -1  10 645.924 99.8518   3
 -11   1  10 747.803 106.558   3
 -11  -1   9 3277.83 187.739   3
 -11   1   9 3436.20 194.183   3
 -11  -1   8-30.9655 54.9351   3
 -11   1   8-62.8750 59.2181   3
 -11  -1   7 831.512 103.180   3
 -11   1   7 724.368 101.712   3
 -11  -1   6 7.48145 53.7399   3
 -11   1   6 53.2816 61.0600   3
 -11  -1   5 226.364 68.8930   3
 -11   1   5 344.007 82.4240   3
 -11  -1   4 1635.55 140.991   3
 -11   1   4 1825.16 152.467   3
 -11  -1   3 958.414 111.430   3
 -11   1   3 1180.09 124.969   3
 -11  -1   2 523.019 91.5863   3
 -11   1   2 571.546 90.5083   3
 -11  -1   1-52.5926 55.6524   3
 -11   1   1 12.4619 65.1987   3
 -11  -1   0 162.309 71.3387   3
 -11   1   0 36.7718 65.2896   3
 -11  -1  -1 3536.58 209.228   3
 -11   1  -1 3518.16 207.335   3
 -11  -1  -2 1159.46 132.707   3
 -11   1  -2 1110.62 128.765   3
 -11   1  -3 1040.42 123.401   3
 -11   1  -4 818.572 117.193   3
  11   1   4 1018.16 123.182   2
  11   1   5 1130.06 129.034   2
  11   1   6 1698.76 152.733   2
  11  -1   6 1943.19 160.692   2
  11   1   7 2037.00 171.380   2
  11  -1   7 1710.86 153.665   2
  11   1   8 5266.49 260.975   2
  11  -1   8 4678.33 246.033   2
  11   1   9 3362.64 217.846   2
  11  -1   9 3337.47 211.429   2
  11  -1  10 1756.80 160.589   2
  11   1  10 1618.88 157.733   2
  11   1  11 170.337 86.5337   2
  11  -1  11 77.3688 67.7222   2
  11   1  12 473.183 100.891   2
  11  -1  12 404.260 98.4513   2
  11   1  13 260.460 77.9055   2
  11  -1  13 281.961 88.7678   2
  11   1  14 1710.91 167.211   2
  11  -1  14 1579.29 157.517   2
  11   1  15 828.226 123.863   2
  11  -1  15 899.926 126.956   2
  11  -1  16 227.806 77.5112   2
 -11   2  24 112.803 67.3839   3
 -11   2  23 878.864 116.107   3
 -11   2  22 192.971 74.1563   3
 -11  -2  21 263.296 67.5303   3
 -11   2  21 269.135 82.4655   3
 -11  -2  20 326.227 74.3498   3
 -11   2  20 580.852 105.676   3
 -11  -2  19 3985.10 206.441   3
 -11   2  19 3741.30 216.243   3
 -11  -2  18 156.686 62.4015   3
 -11   2  18 152.487 61.0334   3
 -11  -2  17 2842.06 174.532   3
 -11   2  17 3167.75 195.592   3
 -11  -2  16 147.523 60.3696   3
 -11   2  16 97.6023 58.8203   3
 -11  -2  15 14.6431 49.7184   3
 -11   2  15 43.6603 58.3455   3
 -11  -2  14 115.456 58.1548   3
 -11   2  14 162.170 71.0689   3
 -11  -2  13 118.629 59.8129   3
 -11   2  13 166.754 65.7804   3
 -11  -2  12 148.613 63.1727   3
 -11   2  12 151.140 72.2389   3
 -11  -2  11-8.33508 49.7623   3
 -11   2  11 16.0231 55.9776   3
 -11  -2  10 178.479 68.0365   3
 -11   2  10 158.008 68.3130   3
 -11  -2   9 369.962 77.1431   3
 -11   2   9 380.319 85.5078   3
 -11  -2   8 1524.32 132.861   3
 -11   2   8 1363.76 132.670   3
 -11  -2   7 2491.45 168.853   3
 -11   2   7 2779.52 179.320   3
 -11  -2   6 61.4467 62.2316   3
 -11   2   6 43.7990 68.0144   3
 -11  -2   5 3641.06 200.650   3
 -11   2   5 3731.37 206.055   3
 -11  -2   4 230.135 67.5774   3
 -11   2   4 334.755 83.9712   3
 -11  -2   3 250.742 74.5877   3
 -11   2   3 165.250 74.0668   3
 -11  -2   2 52.2832 62.6912   3
 -11   2   2 135.625 61.7429   3
 -11  -2   1 1056.05 120.694   3
 -11   2   1 855.615 109.198   3
 -11  -2   0-87.4855 73.9553   3
 -11   2   0 16.7419 68.0201   3
 -11  -2  -1 156.413 74.3435   3
 -11   2  -1-5.26776 58.4858   3
 -11   2  -2 2079.18 160.314   3
  11   2   3 1338.80 138.888   2
 -11   2  -3 1360.55 138.482   3
 -11   2  -4 748.922 111.455   3
  11   2   4 645.558 101.651   2
  11   2   5 4714.81 248.016   2
 -11   2  -5 4941.57 250.396   3
 -11   2  -6 578.344 109.684   3
  11   2   6 734.721 116.455   2
  11   2   7 133.354 76.9115   2
  11   2   8 399.281 96.0912   2
  11  -2   8 565.532 100.946   2
  11  -2   9 2325.98 175.311   2
  11   2   9 2270.51 182.104   2
  11   2  10 97.9300 73.4711   2
  11  -2  10 45.2079 70.3999   2
  11  -2  11 1568.29 151.413   2
  11   2  11 1886.60 168.645   2
  11   2  12 1012.10 134.993   2
  11  -2  12 807.165 118.362   2
  11   2  13 343.215 92.1032   2
  11  -2  13 270.607 82.0365   2
  11   2  14 4.62269 60.7702   2
  11  -2  14 41.9880 69.2471   2
  11  -2  15 1445.53 148.709   2
  11  -2  16-83.1401 68.1440   2
 -11   3  24 138.294 69.5804   3
 -11   3  23 828.205 113.137   3
 -11   3  22 2002.54 166.751   3
 -11   3  21 2936.09 198.344   3
 -11  -3  20 610.067 90.6838   3
 -11   3  20 727.551 110.483   3
 -11  -3  19 126.610 58.6810   3
 -11   3  19 62.2926 66.1930   3
 -11  -3  18 108.473 56.5793   3
 -11   3  18-0.53857 60.2587   3
 -11  -3  17 46.3984 55.2931   3
 -11   3  17 68.3638 62.0725   3
 -11  -3  16 769.467 98.6331   3
 -11   3  16 578.820 99.6058   3
 -11  -3  15 283.299 73.3252   3
 -11   3  15 222.723 72.6438   3
 -11  -3  14 3597.23 190.676   3
 -11   3  14 3401.91 202.033   3
 -11  -3  13 64.1067 56.0872   3
 -11   3  13 155.988 69.5488   3
 -11  -3  12 1145.15 114.875   3
 -11   3  12 1083.85 119.686   3
 -11  -3  11 5050.77 225.650   3
 -11   3  11 5277.47 245.312   3
 -11  -3  10 2737.05 169.238   3
 -11   3  10 2742.35 180.581   3
 -11  -3   9 16.0818 51.0947   3
 -11   3   9 56.6847 58.5036   3
 -11  -3   8-40.8939 55.0085   3
 -11   3   8 88.8613 54.8192   3
 -11  -3   7 346.547 77.9494   3
 -11   3   7 466.693 87.0592   3
 -11  -3   6 408.462 84.4687   3
 -11   3   6 575.552 98.5857   3
 -11  -3   5 771.425 101.747   3
 -11   3   5 778.581 107.974   3
 -11  -3   4 2265.99 159.252   3
 -11   3   4 2263.97 166.736   3
 -11  -3   3 3841.95 206.356   3
 -11   3   3 3960.84 219.492   3
 -11  -3   2 372.185 86.7811   3
 -11   3   2 160.640 71.9614   3
 -11  -3   1 73.1684 55.0878   3
 -11   3   1 152.857 69.9110   3
 -11  -3   0-19.9093 62.2115   3
 -11   3   0-11.3695 64.3329   3
 -11   3  -1-19.4114 61.9864   3
 -11   3  -2 10.6695 57.3605   3
  11   3   2-21.4536 67.4510   2
 -11   3  -3 702.889 107.713   3
  11   3   3 483.926 96.0955   2
 -11   3  -4 423.921 93.6518   3
  11   3   4 439.061 91.8710   2
 -11   3  -5 216.386 87.0045   3
  11   3   5 94.5575 72.2126   2
  11   3   6 5393.39 261.207   2
 -11   3  -6 5221.90 259.237   3
 -11   3  -7 8133.82 326.968   3
  11   3   7 7147.32 304.870   2
  11   3   8 224.618 73.3466   2
  11  -3   9 3621.73 216.880   2
  11   3   9 3734.91 225.023   2
  11   3  10 87.0343 74.2384   2
  11  -3  10-59.3005 62.3545   2
  11   3  11 435.727 103.246   2
  11  -3  11 510.595 101.539   2
  11   3  12 71.9074 77.0810   2
  11  -3  12-0.68965 68.7007   2
  11   3  13 134.429 76.0350   2
  11  -3  13 294.391 82.6886   2
  11  -3  14-111.782 75.3415   2
  11   3  14-42.0611 66.3768   2
  11  -3  15-16.3443 61.9931   2
  11  -3  16 20.1778 57.5746   2
 -11   4  24 1083.92 128.115   3
 -11   4  23 343.228 86.7902   3
 -11   4  22 289.771 87.1457   3
 -11   4  21 245.053 80.7756   3
 -11   4  20 1946.95 168.371   3
 -11   4  19 48.6089 59.9340   3
 -11  -4  18 4766.50 216.535   3
 -11   4  18 4701.25 246.903   3
 -11  -4  17 23.7151 52.5875   3
 -11   4  17 83.2980 56.4748   3
 -11  -4  16 2170.70 149.745   3
 -11   4  16 2193.83 170.181   3
 -11  -4  15 574.643 86.2645   3
 -11   4  15 529.153 91.6677   3
 -11  -4  14 712.716 94.3960   3
 -11   4  14 402.148 85.2128   3
 -11  -4  13 190.563 66.3816   3
 -11   4  13 262.367 74.6548   3
 -11  -4  12 532.527 88.7970   3
 -11   4  12 432.142 86.2131   3
 -11  -4  11-26.4567 50.3058   3
 -11   4  11 36.2060 59.2762   3
 -11  -4  10 709.160 93.3733   3
 -11   4  10 753.318 103.969   3
 -11  -4   9-74.5502 62.5017   3
 -11   4   9 23.1625 61.6233   3
 -11  -4   8 1783.37 138.947   3
 -11   4   8 2060.83 160.565   3
 -11  -4   7 1219.70 118.269   3
 -11   4   7 1173.44 128.772   3
 -11  -4   6 3579.79 194.327   3
 -11   4   6 3527.87 209.346   3
 -11  -4   5 44.3850 55.4847   3
 -11   4   5 262.181 82.4076   3
 -11  -4   4 875.966 109.330   3
 -11   4   4 901.878 110.120   3
 -11  -4   3 157.250 57.7322   3
 -11   4   3 353.477 84.6332   3
 -11  -4   2 3120.05 186.688   3
 -11   4   2 3092.91 193.803   3
 -11  -4   1 1043.01 121.270   3
 -11   4   1 807.401 109.280   3
 -11  -4   0 173.107 66.5235   3
 -11   4   0 127.489 65.6598   3
 -11   4  -1-100.660 73.6671   3
  11   4   1 93.1652 69.5570   2
 -11   4  -2-15.7581 68.9077   3
  11   4   2 125.251 69.2015   2
  11   4   3 1731.62 154.865   2
 -11   4  -3 1866.35 160.539   3
  11   4   4 4146.66 233.638   2
 -11   4  -4 3811.65 222.093   3
  11   4   5 194.544 82.0167   2
 -11   4  -5 146.081 79.0741   3
  11   4   6 84.0825 68.9694   2
 -11   4  -6-9.78306 61.6191   3
  11   4   7 233.918 81.5296   2
 -11   4  -7 206.931 79.3873   3
 -11   4  -8 1499.77 149.082   3
  11   4   8 1562.75 158.142   2
  11   4   9 269.726 92.9251   2
 -11   4  -9 17.5965 60.8600   3
  11   4  10 1423.43 151.315   2
  11   4  11 281.341 85.2220   2
  11  -4  11 199.224 81.2522   2
  11  -4  12-61.7361 66.0737   2
  11   4  12 111.215 80.8704   2
  11  -4  13 807.309 114.995   2
  11   4  13 662.173 120.515   2
  11  -4  14-51.3534 55.0469   2
  11  -4  15 819.979 114.205   2
  11  -4  16 387.875 86.5658   2
 -11   5  23 583.157 105.755   3
 -11   5  22 1695.90 162.019   3
 -11   5  21 251.792 82.3532   3
 -11   5  20 1227.27 143.952   3
 -11   5  19 187.433 78.6562   3
 -11   5  18 360.416 87.8514   3
 -11  -5  17 211.411 65.1740   3
 -11   5  17 133.817 82.2132   3
 -11  -5  16 3311.52 178.350   3
 -11   5  16 3461.54 211.799   3
 -11  -5  15 552.753 87.0984   3
 -11   5  15 569.729 105.920   3
 -11  -5  14 1023.15 109.542   3
 -11   5  14 1288.05 133.267   3
 -11  -5  13 55.8378 46.5288   3
 -11   5  13-74.9791 62.9746   3
 -11  -5  12 66.4163 52.5617   3
 -11   5  12 40.1498 60.9077   3
 -11  -5  11 13.6506 48.3634   3
 -11   5  11 196.499 80.2692   3
 -11  -5  10 2099.41 147.583   3
 -11   5  10 2302.48 168.953   3
 -11  -5   9-96.0770 59.4528   3
 -11   5   9 29.0327 60.5655   3
 -11  -5   8 162.287 58.0037   3
 -11   5   8 227.592 71.4060   3
 -11  -5   7 23.6825 51.9789   3
 -11   5   7 136.663 70.4725   3
 -11  -5   6 2467.84 160.847   3
 -11   5   6 2782.56 186.004   3
 -11  -5   5-12.2822 56.0828   3
 -11   5   5 83.3546 70.6169   3
 -11  -5   4 1266.57 124.161   3
 -11   5   4 1277.58 130.658   3
 -11  -5   3 428.472 79.9503   3
 -11   5   3 399.494 89.7139   3
 -11  -5   2 594.191 94.3495   3
 -11   5   2 346.319 89.4948   3
 -11  -5   1 53.8601 59.9254   3
 -11   5   1 26.5661 61.3549   3
 -11   5   0 4343.59 230.778   3
  11   5   0 3839.27 220.630   2
 -11   5  -1 74.8384 64.3534   3
  11   5   1 37.1002 64.2873   2
 -11   5  -2 682.508 111.163   3
  11   5   2 742.535 112.973   2
  11   5   3 325.570 86.9778   2
 -11   5  -3 310.458 90.5099   3
  11   5   4 431.090 96.5106   2
 -11   5  -4 475.191 100.847   3
 -11   5  -5 3356.65 209.220   3
  11   5   5 3208.03 210.163   2
 -11   5  -6 2326.72 182.845   3
  11   5   6 2187.26 177.311   2
  11   5   7 267.641 90.4913   2
 -11   5  -7 172.743 76.8286   3
 -11   5  -8 4718.28 250.590   3
  11   5   8 5121.67 264.420   2
  11   5   9 115.472 78.6621   2
 -11   5  -9 201.561 82.1794   3
  11   5  10 119.002 75.1573   2
 -11   5 -10-45.8244 69.8040   3
 -11   5 -11-30.1662 62.2395   3
  11   5  11-32.1643 69.9995   2
  11   5  12 925.998 124.953   2
  11   5  13 671.390 119.800   2
  11  -5  14 229.949 75.3302   2
  11  -5  15 434.887 89.9340   2
  11  -5  16 296.788 77.9379   2
 -11   6  22 49.7986 64.4251   3
 -11   6  21 137.973 73.0056   3
 -11   6  20 1066.09 135.800   3
 -11   6  19 2011.61 173.305   3
 -11   6  18 1432.48 147.749   3
 -11   6  17 2353.44 181.246   3
 -11  -6  16 1247.21 111.950   3
 -11   6  16 1349.13 141.401   3
 -11  -6  15 223.935 64.6003   3
 -11   6  15 322.356 87.8885   3
 -11  -6  14 237.561 58.4230   3
 -11   6  14 327.246 85.5493   3
 -11  -6  13 1663.94 133.034   3
 -11   6  13 1523.81 146.640   3
 -11  -6  12 2577.38 158.370   3
 -11   6  12 2763.86 190.067   3
 -11  -6  11 216.876 61.7698   3
 -11   6  11 353.875 86.2790   3
 -11  -6  10 173.033 58.4378   3
 -11   6  10 220.747 76.6390   3
 -11  -6   9 3169.30 174.994   3
 -11   6   9 3369.92 203.908   3
 -11  -6   8 3003.40 174.527   3
 -11   6   8 3094.96 197.301   3
 -11  -6   7 6261.44 245.234   3
 -11   6   7 6793.43 283.543   3
 -11  -6   6 804.704 98.8644   3
 -11   6   6 949.140 121.829   3
 -11  -6   5 692.509 95.2123   3
 -11   6   5 547.086 97.8660   3
 -11  -6   4 211.563 66.0075   3
 -11   6   4 46.4603 65.8198   3
 -11  -6   3 473.186 84.6739   3
 -11   6   3 495.586 93.9830   3
 -11  -6   2 797.346 102.216   3
 -11   6   2 730.233 108.447   3
 -11   6   1 937.456 118.267   3
 -11   6   0 43.8821 57.5093   3
  11   6   0 191.160 76.7980   2
 -11   6  -1 680.095 102.142   3
  11   6   1 628.299 101.845   2
  11   6   2 252.582 77.8734   2
 -11   6  -2 356.652 84.8396   3
  11   6   3 2550.10 182.880   2
 -11   6  -3 2729.48 191.341   3
  11   6   4 1275.72 140.988   2
 -11   6  -4 1395.82 144.328   3
  11   6   5 1226.81 140.925   2
 -11   6  -5 1118.49 129.190   3
  11   6   6 205.961 79.9119   2
 -11   6  -6 30.7603 59.7472   3
  11   6   7 539.805 104.628   2
 -11   6  -7 190.454 77.9731   3
  11   6   8-44.1145 70.2923   2
 -11   6  -8 156.644 87.1462   3
  11   6   9 630.318 114.297   2
 -11   6  -9 677.112 112.718   3
 -11   6 -10 204.917 80.1766   3
  11   6  10 103.865 75.1818   2
 -11   6 -11 2467.76 196.391   3
  11   6  11 2450.50 195.509   2
 -11   6 -12 446.744 99.1127   3
  11   6  12 215.006 79.3148   2
 -11   6 -13 247.696 80.2033   3
 -11   7  21 2422.36 193.127   3
 -11   7  20 11.0211 69.8838   3
 -11   7  19 850.345 124.827   3
 -11   7  18 228.163 84.4759   3
 -11   7  17 479.628 102.825   3
 -11   7  16 162.751 78.8066   3
 -11  -7  15 990.540 99.6483   3
 -11   7  15 1020.06 128.397   3
 -11  -7  14 332.579 70.4635   3
 -11   7  14 441.043 92.9515   3
 -11  -7  13-21.5853 45.6504   3
 -11   7  13 42.7639 65.5148   3
 -11  -7  12 852.411 99.2946   3
 -11   7  12 790.757 113.338   3
 -11  -7  11 841.749 100.691   3
 -11   7  11 1091.84 129.863   3
 -11  -7  10 50.1586 50.9848   3
 -11   7  10 3.95005 60.2699   3
 -11  -7   9 2466.26 156.054   3
 -11   7   9 2574.63 184.206   3
 -11  -7   8 447.456 78.8684   3
 -11   7   8 612.969 101.514   3
 -11  -7   7-61.2299 55.6447   3
 -11   7   7 36.7030 63.1036   3
 -11  -7   6 85.8290 59.2500   3
 -11   7   6 230.424 77.1463   3
 -11  -7   5 5117.60 227.647   3
 -11   7   5 5592.93 261.406   3
 -11  -7   4 277.975 70.9492   3
 -11   7   4 319.255 83.6630   3
 -11  -7   3 2230.46 154.802   3
 -11   7   3 2042.01 168.877   3
 -11  -7   2 72.3757 68.6252   3
 -11   7   2-1.87118 64.4439   3
 -11   7   1 491.361 98.2830   3
  11   7  -1 666.315 105.914   2
  11   7   0-94.6946 76.0393   2
 -11   7   0-46.5516 73.8182   3
  11   7   1 23.4726 56.8942   2
 -11   7  -1 50.5870 65.0005   3
  11   7   2 111.118 74.8334   2
 -11   7  -2 188.591 75.9279   3
  11   7   3 278.218 82.8834   2
 -11   7  -3 229.882 76.3239   3
  11   7   4 935.887 123.698   2
 -11   7  -4 1044.25 126.776   3
 -11   7  -5 3602.17 217.312   3
  11   7   5 3314.17 215.713   2
  11   7   6 543.425 108.120   2
 -11   7  -6 384.832 92.3302   3
 -11   7  -7 4319.46 238.796   3
  11   7   7 4475.38 252.733   2
  11   7   8 1066.32 136.182   2
 -11   7  -8 1235.33 139.918   3
 -11   7  -9 1087.53 133.831   3
  11   7   9 1288.77 146.426   2
 -11   7 -10-46.7724 68.9088   3
  11   7  10 105.088 87.2107   2
 -11   7 -11 89.2689 72.3964   3
  11   7  11 157.474 84.7337   2
 -11   7 -12-8.05367 59.3993   3
  11   7  12 91.9657 79.2553   2
 -11   7 -13 562.553 101.770   3
 -11   8  20 1615.48 157.767   3
 -11   8  19 591.993 112.521   3
 -11   8  18 348.142 98.0308   3
 -11   8  17 3757.17 232.133   3
 -11   8  16 492.386 99.3389   3
 -11   8  15-31.8786 69.0300   3
 -11   8  14 395.745 99.5839   3
 -11  -8  13 2620.41 154.934   3
 -11   8  13 2552.91 191.195   3
 -11  -8  12 1491.57 123.218   3
 -11   8  12 1710.34 152.758   3
 -11  -8  11 3325.60 176.838   3
 -11   8  11 3219.37 204.708   3
 -11  -8  10 187.580 62.5939   3
 -11   8  10 190.744 78.6841   3
 -11  -8   9 52.5135 51.0522   3
 -11   8   9-18.3067 65.1428   3
 -11  -8   8 145.667 56.9384   3
 -11   8   8 130.761 69.5407   3
 -11  -8   7 1032.71 108.735   3
 -11   8   7 1162.70 130.775   3
 -11  -8   6 1365.78 121.797   3
 -11   8   6 1442.35 142.982   3
 -11  -8   5 1878.62 141.281   3
 -11   8   5 1843.92 157.425   3
 -11  -8   4 55.1346 55.6232   3
 -11   8   4 36.1360 60.8041   3
 -11  -8   3 469.509 84.4657   3
 -11   8   3 559.696 98.3843   3
 -11   8   2 1114.97 129.140   3
  11   8  -1-0.73419 65.3080   2
 -11   8   1-147.140 80.0509   3
  11   8   0 1877.60 158.990   2
 -11   8   0 1668.52 152.293   3
  11   8   1 17.2844 55.8635   2
 -11   8  -1-23.2740 61.7739   3
  11   8   2-1.53495 64.4868   2
 -11   8  -2 25.6153 63.7651   3
  11   8   3 380.041 93.9608   2
 -11   8  -3 543.959 103.014   3
 -11   8  -4 1612.09 149.830   3
  11   8   4 1664.87 158.696   2
 -11   8  -5 1732.14 155.790   3
  11   8   5 1754.73 162.994   2
 -11   8  -6 2595.23 189.716   3
  11   8   6 2539.07 192.911   2
  11   8   7 193.190 74.4200   2
 -11   8  -7 212.444 73.6158   3
 -11   8  -8 7.30321 61.6742   3
  11   8   8 69.4198 79.1181   2
 -11   8  -9 1025.30 130.002   3
  11   8   9 1438.31 157.300   2
 -11   8 -10 3246.39 214.341   3
  11   8  10 3303.24 227.985   2
 -11   8 -11 220.926 82.2107   3
  11   8  11 127.757 84.4086   2
 -11   8 -12 1019.48 136.901   3
 -11   8 -13 222.286 81.5950   3
 -11   9  19 8.02128 63.4931   3
 -11   9  18 142.358 76.5153   3
 -11   9  17-18.1771 66.8154   3
 -11   9  16 613.403 111.672   3
 -11   9  15 326.154 87.8063   3
 -11   9  14 3557.85 219.972   3
 -11   9  13 17.6115 60.9031   3
 -11  -9  12 73.1997 44.3607   3
 -11   9  12 97.7745 65.1587   3
 -11  -9  11 869.240 95.1542   3
 -11   9  11 889.442 118.931   3
 -11  -9  10 165.427 55.7849   3
 -11   9  10 68.0053 63.6334   3
 -11  -9   9 35.1568 48.9544   3
 -11   9   9 19.2578 60.2700   3
 -11  -9   8 43.0612 46.5667   3
 -11   9   8-6.27987 62.8071   3
 -11  -9   7 29.1463 58.3317   3
 -11   9   7-87.7671 69.6300   3
 -11  -9   6 351.061 75.6758   3
 -11   9   6 371.365 93.1878   3
 -11  -9   5 412.713 79.2260   3
 -11   9   5 479.772 97.2488   3
 -11  -9   4 2371.82 160.309   3
 -11   9   4 2509.64 183.953   3
 -11  -9   3 363.771 77.7475   3
 -11   9   3 418.906 92.4301   3
 -11   9   2 3458.73 211.562   3
  11   9  -2 3476.46 208.156   2
  11   9  -1 389.602 92.7502   2
 -11   9   1 405.864 89.0639   3
  11   9   0 20.3187 66.0735   2
 -11   9   0 18.2373 68.2951   3
  11   9   1 160.995 69.1923   2
 -11   9  -1 283.137 81.6231   3
  11   9   2 2454.72 185.531   2
 -11   9  -2 2526.87 188.783   3
  11   9   3 1074.52 125.310   2
 -11   9  -3 1109.66 129.639   3
  11   9   4 482.988 102.961   2
 -11   9  -4 396.017 97.5653   3
  11   9   5 85.8851 81.5536   2
 -11   9  -5 154.370 75.1021   3
 -11   9  -6 2918.27 202.982   3
  11   9   6 3013.27 209.537   2
 -11   9  -7 126.974 65.1654   3
  11   9   7 152.410 73.8448   2
 -11   9  -8 5268.94 270.901   3
  11   9   8 5450.61 285.372   2
 -11   9  -9 17.8115 62.1324   3
  11   9   9 1.03198 67.9690   2
 -11   9 -10 106.992 75.0139   3
  11   9  10 152.247 77.3328   2
 -11   9 -11-7.98833 59.0846   3
 -11   9 -12 1026.49 132.515   3
 -11  10  17 1018.20 133.417   3
 -11  10  16 451.441 103.232   3
 -11  10  15 332.892 93.4844   3
 -11  10  14 115.100 74.5538   3
 -11  10  13-61.0928 73.3120   3
 -11  10  12 570.298 108.670   3
 -11  10  11-35.4669 68.6473   3
 -11 -10  10 73.3660 48.8947   3
 -11  10  10 87.0879 71.7279   3
 -11 -10   9 648.767 83.3159   3
 -11  10   9 1006.17 130.578   3
 -11 -10   8-4.87677 44.9226   3
 -11  10   8 92.6968 76.3093   3
 -11 -10   7 211.448 61.5962   3
 -11  10   7 115.806 73.6574   3
 -11 -10   6 833.874 101.103   3
 -11  10   6 820.767 116.402   3
 -11 -10   5 2367.07 158.744   3
 -11  10   5 2388.15 177.087   3
 -11 -10   4 533.581 86.6383   3
 -11  10   4 396.236 92.6320   3
 -11 -10   3 394.889 74.1056   3
 -11  10   3 261.830 77.0104   3
  11  10  -2 269.096 71.4790   2
 -11  10   2 185.578 72.4661   3
  11  10  -1 145.251 68.5893   2
 -11  10   1 86.2778 72.9318   3
  11  10   0 1135.09 132.282   2
 -11  10   0 987.217 119.565   3
  11  10   1 203.755 76.6104   2
 -11  10  -1 215.551 66.5731   3
  11  10   2 198.189 80.2002   2
 -11  10  -2 272.153 83.8462   3
  11  10   3 251.527 83.9571   2
 -11  10  -3 374.773 95.1200   3
  11  10   4 166.587 71.8298   2
 -11  10  -4 128.178 78.5974   3
 -11  10  -5 3970.00 233.358   3
  11  10   5 3827.15 234.044   2
 -11  10  -6 2202.07 179.444   3
  11  10   6 2245.47 188.359   2
 -11  10  -7-26.4052 64.9886   3
  11  10   7-54.0948 74.4810   2
 -11  10  -8-8.51965 58.5818   3
  11  10   8 162.760 86.8723   2
 -11  10  -9 649.949 110.010   3
  11  10   9 1010.46 138.531   2
 -11  10 -10 2637.52 195.443   3
 -11  10 -11 1875.55 165.176   3
 -11  10 -12 1115.87 135.220   3
 -11  11  16 168.245 85.1195   3
 -11  11  15 858.104 124.880   3
 -11  11  14 7.04082 66.5330   3
 -11  11  13 88.1679 68.4044   3
 -11  11  12-8.75590 62.8909   3
 -11  11  11 884.900 122.405   3
 -11  11  10 278.537 93.6303   3
 -11 -11   9 1334.91 112.926   3
 -11  11   9 1213.88 138.438   3
 -11 -11   8 219.205 67.4975   3
 -11  11   8 247.825 89.4346   3
 -11 -11   7 29.9660 45.1748   3
 -11  11   7 63.5288 70.5454   3
 -11 -11   6 242.340 69.5313   3
 -11  11   6 214.056 83.9019   3
 -11 -11   5 105.019 60.0117   3
 -11  11   5 302.960 87.7690   3
 -11 -11   4 204.714 67.6908   3
 -11  11   4 137.364 62.4421   3
 -11  11   3 251.545 82.1816   3
  11  11  -2 1194.31 137.072   2
 -11  11   2 1457.17 144.319   3
  11  11  -1 30.3807 73.8410   2
 -11  11   1-64.6324 79.0352   3
  11  11   0 155.734 76.1272   2
 -11  11   0 233.613 77.4793   3
  11  11   1 409.864 89.1057   2
 -11  11  -1 529.302 99.8488   3
  11  11   2 362.307 102.172   2
 -11  11  -2 298.497 76.7750   3
  11  11   3 491.953 104.546   2
 -11  11  -3 383.600 90.2879   3
  11  11   4 181.460 85.6251   2
 -11  11  -4 56.9015 60.8821   3
  11  11   5 78.9552 72.1707   2
 -11  11  -5-33.9076 71.1475   3
 -11  11  -6 12.6618 68.4334   3
  11  11   6 101.355 77.4807   2
 -11  11  -7 3154.33 213.559   3
  11  11   7 2988.65 220.087   2
 -11  11  -8 1377.75 149.495   3
  11  11   8 1241.98 149.258   2
 -11  11  -9 1779.46 165.603   3
 -11  11 -10 27.1605 59.9209   3
 -11  11 -11 116.035 70.1544   3
 -11  11 -12 78.7773 68.4717   3
 -11  12  15 366.273 90.9456   3
 -11  12  14 63.1008 74.4934   3
 -11  12  13 287.941 101.698   3
 -11  12  12 251.323 91.7721   3
 -11  12  11 100.074 79.9598   3
 -11  12  10 236.519 86.5890   3
 -11  12   9 200.389 75.5857   3
 -11  12   8 1307.68 144.801   3
 -11 -12   7 815.933 96.4084   3
 -11  12   7 751.202 115.045   3
 -11 -12   6 709.689 92.1119   3
 -11  12   6 776.795 115.521   3
 -11 -12   5 3243.46 180.176   3
 -11  12   5 3023.92 208.649   3
 -11 -12   4 120.536 54.7843   3
 -11  12   4 217.802 79.5225   3
  11  12  -3 369.590 88.0915   2
 -11  12   3 504.228 97.0769   3
  11  12  -2 772.917 113.926   2
 -11  12   2 480.408 98.8019   3
  11  12  -1 4403.74 240.794   2
 -11  12   1 4200.39 237.054   3
  11  12   0-17.5225 58.8724   2
 -11  12   0-11.5926 60.3960   3
  11  12   1 395.982 87.9419   2
 -11  12  -1 434.498 92.3169   3
 -11  12  -2 2935.95 201.961   3
  11  12   2 3253.42 217.044   2
  11  12   3 153.755 82.1460   2
 -11  12  -3 142.191 77.5855   3
  11  12   4 61.7327 78.5747   2
 -11  12  -4 86.1470 70.9776   3
  11  12   5 1562.54 159.463   2
 -11  12  -5 1656.72 156.869   3
 -11  12  -6 19.5102 60.8935   3
  11  12   6 235.616 89.6726   2
 -11  12  -7 283.266 81.1762   3
  11  12   7 173.208 82.1331   2
 -11  12  -8 52.6744 62.6467   3
 -11  12  -9 827.000 119.656   3
 -11  12 -10 197.948 71.5088   3
 -11  12 -11 392.432 90.5034   3
 -11  13  13 60.1298 72.4441   3
 -11  13  12 342.918 93.4812   3
 -11  13  11 154.540 85.4564   3
 -11  13  10 2666.21 204.881   3
 -11  13   9 120.046 78.9391   3
 -11  13   8 503.046 102.552   3
 -11  13   7 31.6223 66.9287   3
 -11 -13   6 504.944 84.7366   3
 -11  13   6 699.458 115.012   3
 -11 -13   5 77.7746 53.2591   3
 -11  13   5-117.721 73.6050   3
 -11 -13   4 593.290 92.1199   3
 -11  13   4 829.700 119.224   3
  11  13  -3-95.8304 66.4004   2
 -11  13   3-94.7775 73.3886   3
  11  13  -2 512.911 95.0170   2
 -11  13   2 543.888 101.542   3
  11  13  -1-93.7740 65.4665   2
 -11  13   1 65.2079 70.9659   3
  11  13   0 504.635 98.0047   2
 -11  13   0 584.849 106.407   3
  11  13   1 790.805 118.714   2
 -11  13  -1 639.413 110.086   3
  11  13   2 364.590 97.6070   2
 -11  13  -2 471.546 100.659   3
 -11  13  -3 2922.15 203.896   3
  11  13   3 3226.84 218.546   2
 -11  13  -4 1768.68 164.315   3
  11  13   4 1862.84 177.608   2
 -11  13  -5 67.7189 67.4314   3
  11  13   5 145.379 79.4416   2
 -11  13  -6 1811.15 162.021   3
  11  13   6 2113.78 188.627   2
 -11  13  -7-33.8608 61.3116   3
 -11  13  -8 1797.62 161.346   3
 -11  13  -9 20.9897 65.2843   3
 -11  13 -10 108.922 69.7339   3
 -11  14  11 112.272 80.4340   3
 -11  14  10 1325.07 153.138   3
 -11  14   9 202.319 79.4082   3
 -11  14   8 587.583 110.865   3
 -11  14   7 1488.88 154.721   3
 -11  14   6 704.122 115.627   3
 -11  14   5 187.680 82.9889   3
 -11 -14   4 130.519 56.2081   3
 -11  14   4 152.554 74.3194   3
  11  14  -3 64.1992 65.6577   2
 -11  14   3-2.17838 65.7092   3
  11  14  -2 2596.80 190.589   2
 -11  14   2 2939.46 205.852   3
  11  14  -1 213.097 76.7950   2
 -11  14   1 160.241 76.6097   3
  11  14   0 610.113 110.021   2
 -11  14   0 380.669 92.8738   3
  11  14   1 88.5721 62.1531   2
 -11  14  -1 19.0917 70.0746   3
  11  14   2 506.300 104.743   2
 -11  14  -2 326.391 79.5810   3
  11  14   3 616.837 111.386   2
 -11  14  -3 435.070 100.603   3
 -11  14  -4 3519.66 222.118   3
  11  14   4 3462.83 232.163   2
 -11  14  -5 221.275 81.8040   3
  11  14   5 271.978 88.9360   2
 -11  14  -6 128.214 70.0653   3
 -11  14  -7 75.4675 71.9353   3
 -11  14  -8 1449.30 149.635   3
 -11  14  -9 475.052 94.4189   3
 -11  15   9-4.05504 63.4833   3
 -11  15   8 214.570 83.2918   3
 -11  15   7-1.15067 68.2974   3
 -11  15   6-25.4418 64.0515   3
 -11  15   5 2712.20 208.782   3
 -11  15   4 122.184 73.6888   3
  11  15  -3 1152.85 132.617   2
 -11  15   3 1404.92 152.494   3
  11  15  -2-86.8792 68.6653   2
 -11  15   2 53.1602 61.3910   3
  11  15  -1 448.694 96.8916   2
 -11  15   1 517.738 107.088   3
  11  15   0 459.261 100.779   2
 -11  15   0 489.675 104.262   3
  11  15   1 603.249 107.780   2
 -11  15  -1 858.800 120.619   3
  11  15   2-27.4145 70.0933   2
 -11  15  -2 161.624 76.5479   3
  11  15   3 169.324 75.8854   2
 -11  15  -3 177.495 73.2984   3
  11  15   4 408.043 96.3871   2
 -11  15  -4 371.358 89.4424   3
 -11  15  -5 1098.85 127.543   3
 -11  15  -6 304.672 85.6331   3
 -11  15  -7 2192.01 178.525   3
 -11  15  -8 367.136 93.4296   3
 -11  16   6 201.631 78.8234   3
 -11  16   5 62.3879 69.3769   3
 -11  16   4 258.489 76.7455   3
  11  16  -3 939.439 122.811   2
 -11  16   3 1311.69 146.814   3
  11  16  -2 15.6885 61.5522   2
 -11  16   2 55.6393 75.9818   3
  11  16  -1 2979.40 205.590   2
 -11  16   1 3102.21 215.901   3
  11  16   0-25.7341 61.7981   2
 -11  16   0-7.41443 77.6026   3
  11  16   1-36.5817 69.6150   2
 -11  16  -1 31.2135 71.5195   3
  11  16   2-51.1901 62.7092   2
 -11  16  -2-38.0531 59.4878   3
  11  16   3 321.663 90.3826   2
 -11  16  -3 263.179 81.4346   3
 -11  16  -4 144.679 69.8141   3
 -11  16  -5 1733.24 159.725   3
 -11  16  -6 112.119 67.2727   3
  11  17  -3 1352.75 139.235   2
  11  17  -2 402.615 90.9435   2
  11  17  -1 54.5391 61.9011   2
 -11  17   1 57.5147 63.8877   3
  11  17   0 44.2721 65.8196   2
 -11  17   0 99.4402 76.7213   3
 -11  17  -1 1615.80 157.585   3
  11  17   1 1805.46 166.829   2
  11  17   2 915.587 129.660   2
 -11  17  -2 856.804 123.275   3
  11  18  -3 162.864 63.2460   2
  11  18  -2 1248.85 135.348   2
  11  18  -1 1008.19 126.601   2
  11  18   0 1263.56 137.768   2
  11  19  -3 417.456 81.5464   2
  11  19  -2 216.580 68.7501   2
  11  19  -1 231.209 75.6401   2
 -12   0  21 12.2910 60.9850   3
 -12   0  20 39.6508 58.0476   3
 -12   0  19-60.6305 59.5214   3
 -12   0  18 2170.60 166.876   3
 -12   0  17 140.005 73.8685   3
 -12   0  16 243.223 74.0132   3
 -12   0  15 81.7987 67.4942   3
 -12   0  14 2260.52 171.501   3
 -12   0  13 48.9310 57.5764   3
 -12   0  12 571.087 93.6295   3
 -12   0  11-76.9495 60.6933   3
 -12   0  10-37.0399 59.1220   3
 -12   0   9 28.0493 57.7290   3
 -12   0   8 2621.00 180.290   3
 -12   0   7-65.2291 70.9038   3
 -12   0   6 3641.03 213.276   3
 -12   0   5-70.1287 69.6598   3
 -12   0   4 1639.91 150.785   3
 -12   0   3-38.6256 62.0882   3
 -12   0   2 2346.90 176.630   3
 -12   0   1-57.2989 63.2232   3
 -12   0   0 5992.36 275.249   3
 -12   0  -1-35.0227 63.8873   3
 -12   0  -2 771.643 114.031   3
 -12   0  -3 16.7912 62.7569   3
 -12   0  -4 2879.83 204.089   3
 -12   0  -5-18.0792 72.8455   3
  12   0   7 346.621 99.7928   2
  12   0   8 1595.35 160.818   2
  12   0   9 104.699 76.3293   2
  12   0  10 4289.39 251.988   2
  12   0  11 78.0169 74.0464   2
 -12   1  22 635.560 102.149   3
 -12  -1  21 193.762 69.0065   3
 -12   1  21 75.1094 57.3015   3
 -12  -1  20-63.1511 56.4259   3
 -12   1  20-46.7634 62.5970   3
 -12  -1  19 36.0533 54.4511   3
 -12   1  19-35.2256 62.6489   3
 -12  -1  18 427.595 86.4828   3
 -12   1  18 215.856 77.3603   3
 -12  -1  17 825.036 109.697   3
 -12   1  17 582.058 98.6602   3
 -12  -1  16 117.194 66.1123   3
 -12   1  16 119.422 75.4665   3
 -12  -1  15 169.527 69.8065   3
 -12   1  15 211.379 78.7802   3
 -12  -1  14 1683.52 148.935   3
 -12   1  14 1383.94 143.632   3
 -12  -1  13 442.374 89.3119   3
 -12   1  13 484.250 92.8633   3
 -12  -1  12 167.430 74.6034   3
 -12   1  12 87.4030 65.0775   3
 -12  -1  11 695.276 101.382   3
 -12   1  11 782.723 114.288   3
 -12  -1  10 1907.86 154.950   3
 -12   1  10 2240.80 170.116   3
 -12  -1   9 813.694 104.988   3
 -12   1   9 811.454 106.995   3
 -12  -1   8 217.132 76.3238   3
 -12   1   8 103.208 59.5049   3
 -12  -1   7 393.626 83.8616   3
 -12   1   7 400.358 88.4918   3
 -12  -1   6 1917.46 155.391   3
 -12   1   6 1890.07 158.636   3
 -12  -1   5 2179.43 168.059   3
 -12   1   5 2018.73 163.438   3
 -12  -1   4 3357.60 203.090   3
 -12   1   4 3450.52 213.446   3
 -12  -1   3 27.1918 62.6954   3
 -12   1   3 127.290 74.4341   3
 -12  -1   2 713.108 109.871   3
 -12   1   2 731.098 109.602   3
 -12  -1   1 20.3287 59.3219   3
 -12   1   1-65.7916 69.7191   3
 -12  -1   0 1401.52 139.358   3
 -12   1   0 1240.19 134.748   3
 -12  -1  -1 2172.10 172.850   3
 -12   1  -1 2118.72 171.676   3
 -12  -1  -2 1968.57 166.035   3
 -12   1  -2 1901.50 168.358   3
 -12  -1  -3 1.58923 68.9003   3
 -12   1  -3-65.5680 71.4434   3
 -12  -1  -4 106.627 75.4786   3
 -12   1  -4 116.869 68.8606   3
 -12   1  -5 2895.28 206.944   3
 -12   1  -6 6173.37 294.897   3
  12   1   6 5955.91 286.356   2
  12   1   7 1840.46 171.259   2
 -12   1  -7 1970.34 178.514   3
  12   1   8 2640.95 200.177   2
  12   1   9 1144.44 139.287   2
  12  -1   9 1204.11 140.255   2
  12   1  10 115.059 77.5742   2
  12  -1  10 98.7508 78.3438   2
  12   1  11 356.750 86.2522   2
  12  -1  11 218.859 86.6078   2
  12  -1  12 1686.89 163.647   2
 -12   2  22 213.828 69.0085   3
 -12   2  21 1488.43 143.811   3
 -12  -2  20-64.5610 56.2374   3
 -12   2  20-108.609 68.9478   3
 -12  -2  19 1194.02 122.928   3
 -12   2  19 1257.54 138.145   3
 -12  -2  18-25.5498 56.8432   3
 -12   2  18 20.3375 60.9865   3
 -12  -2  17 1596.50 141.357   3
 -12   2  17 1785.67 158.573   3
 -12  -2  16 14.4307 55.8826   3
 -12   2  16-33.7003 66.6775   3
 -12  -2  15 364.141 82.9943   3
 -12   2  15 419.719 91.8079   3
 -12  -2  14 26.2275 53.5055   3
 -12   2  14 21.4890 67.9763   3
 -12  -2  13 4259.04 224.297   3
 -12   2  13 4620.06 241.512   3
 -12  -2  12 1136.35 122.860   3
 -12   2  12 1348.18 138.104   3
 -12  -2  11 1047.87 119.870   3
 -12   2  11 838.836 113.601   3
 -12  -2  10 53.8702 66.8064   3
 -12   2  10 9.75144 60.0529   3
 -12   2   9 1375.40 138.366   3
 -12  -2   9 1213.82 122.963   3
 -12  -2   8 48.0941 54.2277   3
 -12   2   8 153.855 73.0399   3
 -12  -2   7 1975.52 159.683   3
 -12   2   7 2045.03 164.153   3
 -12  -2   6 1630.79 146.578   3
 -12   2   6 1325.12 137.080   3
 -12  -2   5 580.639 100.457   3
 -12   2   5 642.426 103.590   3
 -12  -2   4 91.7265 74.3852   3
 -12   2   4 173.676 80.6127   3
 -12  -2   3 7482.54 297.696   3
 -12   2   3 7619.10 304.910   3
 -12  -2   2 307.335 87.0216   3
 -12   2   2 307.305 84.1664   3
 -12  -2   1 2541.29 182.455   3
 -12   2   1 2575.80 184.169   3
 -12  -2   0 100.885 76.7856   3
 -12   2   0 97.3047 72.5515   3
 -12  -2  -1 1019.15 129.490   3
 -12   2  -1 1191.65 133.781   3
 -12  -2  -2 192.648 82.7382   3
 -12   2  -2 252.291 83.9457   3
 -12  -2  -3 156.050 67.9743   3
 -12   2  -3 144.009 68.0665   3
 -12   2  -4 212.519 77.5625   3
 -12   2  -5 5228.45 268.511   3
  12   2   5 5410.96 272.822   2
 -12   2  -6 352.687 92.2325   3
  12   2   6 585.542 113.272   2
 -12   2  -7-10.5897 61.7963   3
  12   2   7 209.656 91.2275   2
 -12   2  -8 434.806 102.630   3
  12   2   8 345.575 99.3972   2
  12   2   9 998.255 136.006   2
  12   2  10 165.375 80.8305   2
  12  -2  10 59.4190 59.6705   2
  12  -2  11 1374.47 149.911   2
  12  -2  12 1194.95 144.791   2
 -12   3  22 1599.05 150.319   3
 -12   3  21 283.864 81.3108   3
 -12   3  20 155.285 73.4634   3
 -12   3  19 747.625 111.711   3
 -12  -3  18 2394.15 169.830   3
 -12   3  18 2396.05 182.720   3
 -12  -3  17 797.932 106.130   3
 -12   3  17 907.504 127.092   3
 -12  -3  16 21.6553 61.5145   3
 -12   3  16-17.9017 63.4907   3
 -12  -3  15 514.570 93.9429   3
 -12   3  15 581.394 100.314   3
 -12  -3  14 189.895 69.2386   3
 -12   3  14 203.735 71.3696   3
 -12  -3  13-14.7524 51.3666   3
 -12   3  13 46.0078 62.0358   3
 -12  -3  12 2741.22 180.401   3
 -12   3  12 3197.11 203.570   3
 -12  -3  11 1950.33 154.839   3
 -12   3  11 2126.59 170.033   3
 -12  -3  10 1323.00 129.559   3
 -12   3  10 1572.04 149.776   3
 -12  -3   9-75.7383 65.8984   3
 -12   3   9-112.208 71.1563   3
 -12  -3   8 1319.98 130.070   3
 -12   3   8 1672.28 153.299   3
 -12  -3   7 677.796 103.715   3
 -12   3   7 811.139 113.991   3
 -12  -3   6 1805.73 149.752   3
 -12   3   6 1599.97 148.012   3
 -12  -3   5 2722.55 181.843   3
 -12   3   5 2450.88 178.985   3
 -12  -3   4 577.661 97.1678   3
 -12   3   4 818.460 117.306   3
 -12  -3   3 3227.48 201.394   3
 -12   3   3 3104.21 200.242   3
 -12  -3   2 123.147 74.3954   3
 -12   3   2 223.673 81.2596   3
 -12  -3   1-9.62353 59.7454   3
 -12   3   1 55.0339 65.2520   3
 -12  -3   0 868.390 117.230   3
 -12   3   0 1071.35 130.287   3
 -12  -3  -1 1645.31 151.721   3
 -12   3  -1 1608.35 153.664   3
 -12  -3  -2-22.8186 57.6597   3
 -12   3  -2-60.6614 64.1981   3
 -12   3  -3 658.301 113.542   3
 -12   3  -4 274.493 85.2735   3
  12   3   4 178.453 80.5499   2
  12   3   5 1622.45 161.696   2
 -12   3  -5 1518.40 153.060   3
 -12   3  -6 108.540 76.2082   3
  12   3   6 51.9696 73.3749   2
  12   3   7 1608.43 165.008   2
 -12   3  -7 1530.67 160.483   3
 -12   3  -8 781.248 128.108   3
  12   3   8 793.596 129.063   2
  12   3   9 1043.67 139.991   2
 -12   3  -9 966.145 131.305   3
  12   3  10 530.789 113.106   2
 -12   4  21 145.096 69.6578   3
 -12   4  20 4179.86 240.950   3
 -12   4  19 33.7585 65.4694   3
 -12   4  18 361.983 82.5073   3
 -12  -4  17 102.259 55.0414   3
 -12   4  17-94.2153 73.2607   3
 -12  -4  16 211.118 65.1424   3
 -12   4  16 6.89653 63.2203   3
 -12  -4  15 834.235 104.191   3
 -12   4  15 969.174 125.845   3
 -12  -4  14 1749.45 144.120   3
 -12   4  14 1820.27 165.725   3
 -12  -4  13 252.647 68.6635   3
 -12   4  13 273.912 85.9025   3
 -12  -4  12 165.518 65.1815   3
 -12   4  12 75.4200 73.0775   3
 -12  -4  11-10.9559 58.9872   3
 -12   4  11 76.6016 65.1603   3
 -12  -4  10 4584.30 225.551   3
 -12   4  10 4341.86 238.341   3
 -12  -4   9 386.265 76.6769   3
 -12   4   9 602.715 101.878   3
 -12  -4   8 1893.72 149.680   3
 -12   4   8 2075.25 170.553   3
 -12  -4   7 1129.48 119.964   3
 -12   4   7 1434.62 143.505   3
 -12  -4   6-101.928 68.8805   3
 -12   4   6-67.5400 72.7135   3
 -12  -4   5 20.1542 55.8334   3
 -12   4   5-70.9023 72.8271   3
 -12  -4   4 573.334 96.2985   3
 -12   4   4 427.606 94.7199   3
 -12  -4   3 355.648 89.4013   3
 -12   4   3 511.801 93.1749   3
 -12  -4   2 2820.99 187.885   3
 -12   4   2 2937.70 201.386   3
 -12  -4   1 2255.43 170.833   3
 -12   4   1 1991.22 170.173   3
 -12  -4   0 1551.84 147.044   3
 -12   4   0 1592.95 150.162   3
 -12  -4  -1 106.179 66.8763   3
 -12   4  -1 33.0018 68.7108   3
 -12   4  -2 89.6956 71.4192   3
 -12   4  -3 382.204 89.7340   3
  12   4   3 430.844 93.2714   2
 -12   4  -4 1019.36 131.662   3
  12   4   4 1099.19 137.987   2
 -12   4  -5 172.648 82.3206   3
  12   4   5 218.254 90.0316   2
 -12   4  -6 29.2948 65.6484   3
  12   4   6 62.5745 80.0277   2
  12   4   7-38.7582 64.6621   2
 -12   4  -7 27.5286 71.3797   3
  12   4   8 545.498 108.403   2
 -12   4  -8 675.520 110.993   3
  12   4   9 848.077 129.825   2
 -12   4  -9 809.838 128.671   3
 -12   5  20 246.535 87.0895   3
 -12   5  19 270.690 86.2779   3
 -12   5  18 1074.95 133.758   3
 -12   5  17 337.402 91.4201   3
 -12  -5  16 1667.97 139.401   3
 -12   5  16 1791.35 166.054   3
 -12  -5  15 536.833 92.6462   3
 -12   5  15 495.430 104.673   3
 -12  -5  14 149.342 55.8815   3
 -12   5  14 434.637 96.2578   3
 -12  -5  13 434.289 79.3545   3
 -12   5  13 442.692 97.7744   3
 -12  -5  12 1699.36 142.688   3
 -12   5  12 1450.11 148.017   3
 -12  -5  11 26.0683 54.5334   3
 -12   5  11 86.3206 74.2712   3
 -12  -5  10 1639.48 141.175   3
 -12   5  10 2172.29 172.346   3
 -12  -5   9 608.684 93.1341   3
 -12   5   9 840.397 115.404   3
 -12  -5   8 1227.60 123.823   3
 -12   5   8 1257.65 139.043   3
 -12  -5   7 315.708 77.2293   3
 -12   5   7 241.079 87.1930   3
 -12  -5   6 5767.30 255.667   3
 -12   5   6 6229.13 285.148   3
 -12  -5   5 877.580 110.242   3
 -12   5   5 900.752 123.400   3
 -12  -5   4 470.031 85.6855   3
 -12   5   4 710.639 107.614   3
 -12  -5   3-6.71600 63.1108   3
 -12   5   3 20.8508 68.5234   3
 -12  -5   2 161.977 68.5602   3
 -12   5   2 334.835 88.4705   3
 -12  -5   1-8.38413 61.2181   3
 -12   5   1-36.1236 63.9119   3
 -12  -5   0 1931.76 161.915   3
 -12   5   0 1705.62 156.292   3
 -12  -5  -1-3.83065 60.6063   3
 -12   5  -1 65.8661 67.5908   3
 -12   5  -2 1710.75 162.552   3
  12   5   2 1873.87 170.582   2
 -12   5  -3 79.7065 74.4563   3
  12   5   3 185.382 78.5173   2
 -12   5  -4 545.572 100.071   3
  12   5   4 538.612 109.699   2
  12   5   5-50.5551 74.1182   2
 -12   5  -5 101.668 67.7299   3
  12   5   6 216.970 87.3248   2
 -12   5  -6 161.859 72.8139   3
  12   5   7 776.412 121.652   2
 -12   5  -7 700.055 109.647   3
 -12   5  -8 2409.25 193.303   3
  12   5   8 2574.11 203.923   2
  12   5   9 113.448 83.3731   2
 -12   5  -9 99.4600 80.7879   3
 -12   6  18 527.096 106.183   3
 -12   6  17 334.758 92.6895   3
 -12   6  16 401.295 91.8825   3
 -12  -6  15 2617.27 166.274   3
 -12   6  15 2659.95 200.841   3
 -12  -6  14 3418.57 190.223   3
 -12   6  14 3329.95 221.475   3
 -12  -6  13 81.0509 58.3407   3
 -12   6  13 132.338 81.6390   3
 -12  -6  12 231.594 71.6190   3
 -12   6  12 346.300 92.6930   3
 -12  -6  11-106.996 70.4203   3
 -12   6  11-31.3932 62.2955   3
 -12  -6  10 856.504 104.376   3
 -12   6  10 892.401 119.159   3
 -12  -6   9 1208.58 120.593   3
 -12   6   9 1224.52 139.195   3
 -12  -6   8 1270.36 127.412   3
 -12   6   8 1305.90 137.889   3
 -12  -6   7 1410.99 131.881   3
 -12   6   7 1540.61 151.973   3
 -12  -6   6-16.7276 57.3408   3
 -12   6   6-10.3976 66.9490   3
 -12  -6   5 1650.16 145.079   3
 -12   6   5 1690.22 157.459   3
 -12  -6   4 1246.67 127.102   3
 -12   6   4 1275.03 139.106   3
 -12  -6   3 1333.37 136.586   3
 -12   6   3 1481.01 149.039   3
 -12  -6   2 219.404 78.7797   3
 -12   6   2 98.4245 65.6395   3
 -12  -6   1 2641.69 188.444   3
 -12   6   1 2564.14 190.202   3
 -12  -6   0 4.39799 60.7725   3
 -12   6   0 93.6499 75.6022   3
 -12   6  -1 635.616 105.473   3
  12   6   1 391.829 92.1570   2
 -12   6  -2 142.594 72.6524   3
  12   6   2-4.41886 75.9388   2
  12   6   3 3320.45 219.896   2
 -12   6  -3 3417.83 221.643   3
  12   6   4 1940.10 178.337   2
 -12   6  -4 1916.58 173.553   3
  12   6   5 873.820 126.811   2
 -12   6  -5 662.647 110.714   3
  12   6   6 564.996 108.158   2
 -12   6  -6 523.876 102.227   3
  12   6   7 137.554 85.6614   2
 -12   6  -7-25.6828 68.8175   3
  12   6   8 58.3449 78.6805   2
 -12   6  -8 130.417 70.5200   3
 -12   6  -9 1588.89 161.402   3
 -12   7  17 2185.84 183.709   3
 -12   7  16 198.912 81.4762   3
 -12   7  15 2025.35 182.220   3
 -12   7  14 241.882 96.6404   3
 -12  -7  13 671.696 92.0295   3
 -12   7  13 879.447 121.970   3
 -12  -7  12 259.485 69.0927   3
 -12   7  12 510.093 107.856   3
 -12  -7  11 3984.50 205.436   3
 -12   7  11 4092.44 238.545   3
 -12  -7  10 51.6596 52.7744   3
 -12   7  10-62.4147 67.9771   3
 -12  -7   9-100.940 65.1324   3
 -12   7   9 85.3777 69.2905   3
 -12  -7   8 949.885 111.111   3
 -12   7   8 687.230 113.496   3
 -12  -7   7 3913.54 211.346   3
 -12   7   7 4295.42 243.302   3
 -12  -7   6 185.377 66.5601   3
 -12   7   6 354.841 94.1183   3
 -12  -7   5 4485.68 227.751   3
 -12   7   5 4482.92 248.435   3
 -12  -7   4 68.1668 67.6310   3
 -12   7   4 226.273 84.3389   3
 -12  -7   3 1548.46 143.188   3
 -12   7   3 1592.69 157.367   3
 -12  -7   2 1542.55 142.468   3
 -12   7   2 1331.43 143.968   3
 -12  -7   1-17.4610 56.9435   3
 -12   7   1-33.4858 72.9461   3
 -12   7   0-74.1495 62.4669   3
 -12   7  -1 1185.98 141.306   3
  12   7   1 1203.14 142.509   2
  12   7   2 3605.23 230.082   2
 -12   7  -2 3431.54 220.433   3
  12   7   3 43.6623 68.2763   2
 -12   7  -3 188.327 80.4715   3
  12   7   4 128.072 84.0925   2
 -12   7  -4 19.4192 65.8677   3
  12   7   5 297.937 92.1145   2
 -12   7  -5 240.800 83.0171   3
  12   7   6 115.011 69.4322   2
 -12   7  -6 23.1104 64.3875   3
 -12   7  -7 3587.20 232.341   3
  12   7   7 3589.98 238.267   2
 -12   7  -8 239.251 87.6633   3
 -12   8  16 122.713 79.0859   3
 -12   8  15 273.715 89.9240   3
 -12   8  14 168.021 81.6966   3
 -12   8  13 49.4828 69.4899   3
 -12  -8  12 1391.53 123.592   3
 -12   8  12 1746.20 162.664   3
 -12  -8  11 207.598 61.9916   3
 -12   8  11 227.617 74.0328   3
 -12  -8  10 358.520 75.7062   3
 -12   8  10 407.799 99.2102   3
 -12  -8   9 1852.97 146.190   3
 -12   8   9 2019.68 172.670   3
 -12  -8   8 2666.19 175.373   3
 -12   8   8 2842.75 200.917   3
 -12  -8   7 482.290 85.9360   3
 -12   8   7 820.056 122.296   3
 -12  -8   6 341.429 82.1848   3
 -12   8   6 345.133 90.2666   3
 -12  -8   5 403.990 85.2023   3
 -12   8   5 398.542 102.973   3
 -12  -8   4 1443.71 134.053   3
 -12   8   4 1325.00 147.084   3
 -12  -8   3 1183.58 128.515   3
 -12   8   3 1344.33 147.099   3
 -12  -8   2 2983.94 193.710   3
 -12   8   2 3160.37 209.919   3
 -12  -8   1 321.177 81.6640   3
 -12   8   1 354.969 97.0394   3
 -12   8   0 4167.99 241.628   3
  12   8   0 4342.07 245.231   2
  12   8   1 427.999 100.903   2
 -12   8  -1 609.308 109.621   3
  12   8   2 329.585 91.7621   2
 -12   8  -2 169.649 84.6964   3
  12   8   3 41.9598 66.2950   2
 -12   8  -3 179.487 76.6473   3
  12   8   4 2729.95 206.393   2
 -12   8  -4 3064.04 217.665   3
  12   8   5 472.309 106.878   2
 -12   8  -5 309.320 91.4379   3
  12   8   6 607.822 113.752   2
 -12   8  -6 637.507 113.884   3
 -12   8  -7-47.3008 64.2151   3
 -12   8  -8 1422.82 153.720   3
 -12   9  15 394.021 99.1498   3
 -12   9  14 1164.38 141.971   3
 -12   9  13 1993.25 176.586   3
 -12   9  12 330.206 90.7537   3
 -12  -9  11 29.3344 54.3962   3
 -12   9  11 18.5782 70.1100   3
 -12  -9  10 920.694 105.949   3
 -12   9  10 1038.48 134.459   3
 -12  -9   9 66.3239 58.5923   3
 -12   9   9 26.2625 69.9343   3
 -12  -9   8 393.471 78.3429   3
 -12   9   8 403.727 96.0039   3
 -12  -9   7 48.8316 52.6741   3
 -12   9   7 94.3247 75.5072   3
 -12  -9   6 2057.63 159.668   3
 -12   9   6 2145.34 180.171   3
 -12  -9   5 1537.86 141.394   3
 -12   9   5 1764.33 166.668   3
 -12  -9   4 10434.4 344.052   3
 -12   9   4 10513.1 378.753   3
 -12  -9   3 366.427 88.5495   3
 -12   9   3 321.899 99.2502   3
 -12  -9   2 190.085 72.7503   3
 -12   9   2 279.772 88.5124   3
 -12   9   1 50.2488 75.3050   3
  12   9   0 2567.30 198.098   2
 -12   9   0 2782.65 204.621   3
  12   9   1 171.039 84.3891   2
 -12   9  -1 65.7579 74.8687   3
  12   9   2 1700.44 168.114   2
 -12   9  -2 1863.34 170.968   3
  12   9   3 348.856 97.9927   2
 -12   9  -3 436.824 106.653   3
  12   9   4 342.878 97.0376   2
 -12   9  -4 636.917 114.201   3
  12   9   5 31.7891 66.0182   2
 -12   9  -5 283.988 90.2181   3
 -12   9  -6 2315.97 190.713   3
  12   9   6 1903.19 184.430   2
 -12   9  -7 113.177 71.8924   3
 -12  10  13 902.615 130.056   3
 -12  10  12-34.7429 66.6454   3
 -12  10  11 148.607 70.4295   3
 -12  10  10 127.815 72.8219   3
 -12 -10   9 1351.83 122.391   3
 -12  10   9 1560.33 159.968   3
 -12 -10   8 57.3387 50.9799   3
 -12  10   8 158.648 78.3323   3
 -12 -10   7 784.546 103.970   3
 -12  10   7 901.323 131.086   3
 -12 -10   6 1952.95 152.356   3
 -12  10   6 2194.35 182.546   3
 -12 -10   5 25.6949 57.5092   3
 -12  10   5 82.3107 67.0033   3
 -12 -10   4 159.961 63.1686   3
 -12  10   4 112.630 79.9144   3
 -12 -10   3 551.338 95.4310   3
 -12  10   3 451.093 102.998   3
 -12 -10   2 3182.13 200.951   3
 -12  10   2 3631.86 233.104   3
 -12  10   1 2147.05 180.383   3
  12  10  -1 2107.98 180.939   2
  12  10   0 2292.74 188.419   2
 -12  10   0 2041.22 181.961   3
  12  10   1 807.248 125.733   2
 -12  10  -1 808.186 120.604   3
  12  10   2 18.6688 67.4976   2
 -12  10  -2 1.86752 70.0958   3
  12  10   3 362.223 98.3670   2
 -12  10  -3 141.746 69.5784   3
 -12  10  -4 3571.82 233.478   3
  12  10   4 3370.53 233.814   2
  12  10   5 920.115 136.098   2
 -12  10  -5 722.408 113.922   3
 -12  10  -6 9.78880 67.3233   3
 -12  11  11 676.377 125.754   3
 -12  11  10 797.930 126.110   3
 -12  11   9 86.3518 79.4146   3
 -12  11   8 610.442 111.222   3
 -12 -11   7 292.128 65.2996   3
 -12  11   7 390.925 94.2073   3
 -12 -11   6 349.997 77.5024   3
 -12  11   6 299.938 96.2499   3
 -12 -11   5 4189.44 216.733   3
 -12  11   5 4109.52 244.657   3
 -12 -11   4 65.6304 59.5094   3
 -12  11   4 73.0081 79.6554   3
 -12 -11   3 3756.30 216.751   3
 -12  11   3 4021.66 244.255   3
 -12 -11   2 288.351 79.2340   3
 -12  11   2 436.676 99.2662   3
  12  11  -1 57.7731 65.6498   2
 -12  11   1-17.2033 65.3421   3
  12  11   0 362.577 96.7293   2
 -12  11   0 178.847 86.7182   3
  12  11   1 4078.73 250.181   2
 -12  11  -1 3672.35 235.156   3
  12  11   2 1791.80 174.325   2
 -12  11  -2 1744.01 168.874   3
  12  11   3 572.670 109.135   2
 -12  11  -3 616.818 108.914   3
  12  11   4 190.010 85.8092   2
 -12  11  -4 268.562 85.4375   3
 -12  11  -5 664.043 108.546   3
 -12  12   9 975.650 132.764   3
 -12  12   8 236.227 86.8785   3
 -12  12   7 2646.22 204.233   3
 -12 -12   6 318.561 70.5810   3
 -12  12   6 117.790 77.2027   3
 -12 -12   5 21.1907 57.9767   3
 -12  12   5-46.4367 74.2959   3
 -12 -12   4 114.420 56.6147   3
 -12  12   4 399.347 95.0373   3
 -12 -12   3 915.444 113.503   3
 -12  12   3 959.432 131.057   3
 -12  12   2 131.390 75.5886   3
  12  12  -1 4603.83 259.310   2
 -12  12   1 4514.22 259.713   3
  12  12   0 155.166 69.0181   2
 -12  12   0 287.958 86.4415   3
  12  12   1 200.626 85.9302   2
 -12  12  -1-58.9478 67.1584   3
  12  12   2 621.777 114.251   2
 -12  12  -2 445.894 98.9628   3
  12  12   3 640.021 114.487   2
 -12  12  -3 753.472 117.595   3
 -12  13   5 1221.19 160.557   3
 -12 -13   4 1938.90 150.949   3
 -12  13   4 1797.49 171.658   3
 -12 -13   3 833.949 107.284   3
 -12  13   3 1039.21 135.527   3
 -12  13   2 96.3349 79.3336   3
  12  13  -1 301.653 91.0840   2
 -12  13   1 76.7860 71.7355   3
  12  13   0 464.559 104.981   2
 -12  13   0 267.498 85.1877   3
  12  13   1 403.503 92.5491   2
 -12  13  -1 199.916 81.9140   3
  12  14  -2 9562.81 362.625   2
  12  14  -1 553.485 109.296   2
  12  14   0 127.691 77.3038   2
  12  15  -2 177.280 81.5018   2
 -13   0  19-108.140 67.6644   3
 -13   0  18 1378.59 142.580   3
 -13   0  17 8.01846 56.8609   3
 -13   0  16 1332.78 137.391   3
 -13   0  15 114.620 72.8432   3
 -13   0  14 9002.10 341.611   3
 -13   0  13 44.7351 62.8197   3
 -13   0  12 972.314 124.440   3
 -13   0  11-41.9412 68.8153   3
 -13   0  10 812.873 121.454   3
 -13   0   9-66.0407 67.4874   3
 -13   0   8 1197.23 133.934   3
 -13   0   7 107.511 74.9087   3
 -13   0   6 17.3288 57.8350   3
 -13   0   5-30.5390 63.1959   3
 -13   0   4 3483.11 219.250   3
 -13   0   3-9.06610 67.5087   3
 -13   0   2 435.685 88.6211   3
 -13   0   1 39.0783 65.0056   3
 -13   0   0 679.377 113.731   3
 -13   0  -1-94.3116 69.4283   3
 -13   0  -2 496.153 102.157   3
 -13   0  -3 84.1071 74.4351   3
 -13   0  -4 2799.87 209.198   3
 -13   0  -5 1.57229 65.5977   3
 -13  -1  19 90.5154 64.0932   3
 -13   1  19 205.610 76.2096   3
 -13  -1  18 1661.08 148.944   3
 -13   1  18 1540.45 149.140   3
 -13  -1  17 746.246 112.344   3
 -13   1  17 654.575 102.755   3
 -13  -1  16 1785.61 155.607   3
 -13   1  16 1967.03 167.901   3
 -13  -1  15 438.195 95.2331   3
 -13   1  15 340.864 88.9252   3
 -13  -1  14 341.471 86.6945   3
 -13   1  14 462.290 97.1386   3
 -13  -1  13 321.314 84.4937   3
 -13   1  13 195.621 81.2227   3
 -13  -1  12 949.798 122.444   3
 -13   1  12 865.481 120.075   3
 -13  -1  11 432.822 95.1437   3
 -13   1  11 193.436 75.2724   3
 -13  -1  10 1470.62 148.354   3
 -13   1  10 1621.90 155.347   3
 -13  -1   9 1022.30 125.624   3
 -13   1   9 820.726 116.272   3
 -13  -1   8 0.45169 58.9458   3
 -13   1   8-94.2672 72.3527   3
 -13  -1   7 755.876 115.722   3
 -13   1   7 1034.89 131.861   3
 -13  -1   6 1391.42 145.845   3
 -13   1   6 1338.14 143.840   3
 -13  -1   5 1142.96 136.394   3
 -13   1   5 1079.91 133.859   3
 -13  -1   4 233.634 74.9258   3
 -13   1   4 327.554 92.1270   3
 -13  -1   3 207.719 78.1798   3
 -13   1   3 347.055 96.0995   3
 -13  -1   2-56.3688 68.8019   3
 -13   1   2-9.58970 68.4977   3
 -13  -1   1 118.545 77.6905   3
 -13   1   1 169.684 81.2178   3
 -13  -1   0 698.011 110.818   3
 -13   1   0 801.159 117.379   3
 -13  -1  -1 404.223 93.4400   3
 -13   1  -1 361.218 93.5017   3
 -13  -1  -2 1862.78 170.848   3
 -13   1  -2 1598.01 159.914   3
 -13  -1  -3 85.7636 78.3764   3
 -13   1  -3 188.608 83.9335   3
 -13  -1  -4 78.1366 65.8009   3
 -13   1  -4 150.612 84.1404   3
 -13  -1  -5 18.3557 72.7949   3
 -13  -2  18 97.6024 66.1350   3
 -13   2  18-33.1423 65.7208   3
 -13  -2  17 124.365 65.2664   3
 -13   2  17 110.221 64.0240   3
 -13  -2  16 94.8285 65.1737   3
 -13   2  16 193.853 77.2666   3
 -13  -2  15 1308.50 139.224   3
 -13   2  15 1271.37 143.624   3
 -13  -2  14 63.8093 58.2863   3
 -13   2  14 204.830 84.8887   3
 -13  -2  13 4007.30 228.045   3
 -13   2  13 4095.16 239.517   3
 -13  -2  12 123.320 68.2850   3
 -13   2  12 272.210 87.8743   3
 -13  -2  11 96.7250 64.7371   3
 -13   2  11 22.3476 59.9367   3
 -13  -2  10-24.7548 59.5869   3
 -13   2  10-30.4583 61.6371   3
 -13  -2   9 986.501 123.620   3
 -13   2   9 1021.72 126.905   3
 -13  -2   8 75.3830 64.9332   3
 -13   2   8-45.0664 69.1798   3
 -13  -2   7 238.177 73.4872   3
 -13   2   7 159.654 76.9473   3
 -13  -2   6 66.7661 68.9823   3
 -13   2   6-69.5657 71.0095   3
 -13  -2   5 73.3723 60.5044   3
 -13   2   5-69.7442 72.1684   3
 -13  -2   4 24.4363 66.9835   3
 -13   2   4-39.0928 66.8562   3
 -13  -2   3 725.900 108.465   3
 -13   2   3 745.795 118.002   3
 -13  -2   2 1022.75 129.250   3
 -13   2   2 1255.40 143.908   3
 -13  -2   1 4969.26 265.400   3
 -13   2   1 4794.22 263.112   3
 -13  -2   0 385.754 98.7583   3
 -13   2   0 345.705 99.2750   3
 -13  -2  -1 406.502 99.1779   3
 -13   2  -1 707.600 117.784   3
 -13  -2  -2 45.6290 70.3039   3
 -13   2  -2-191.412 78.9506   3
 -13  -2  -3 894.388 132.203   3
 -13   2  -3 843.474 125.025   3
 -13  -2  -4 1103.38 142.358   3
 -13   2  -4 1136.51 140.500   3
 -13  -2  -5 92.5235 73.1944   3
 -13  -3  17 1324.85 132.497   3
 -13   3  17 1148.47 134.155   3
 -13  -3  16 594.898 98.5704   3
 -13   3  16 615.915 109.023   3
 -13  -3  15 800.599 108.678   3
 -13   3  15 680.297 110.723   3
 -13  -3  14 262.288 77.8935   3
 -13   3  14 403.277 95.1056   3
 -13  -3  13 69.1395 61.2638   3
 -13   3  13 68.7062 68.5679   3
 -13  -3  12 58.8031 60.0558   3
 -13   3  12 56.8821 60.7679   3
 -13  -3  11 1670.64 149.971   3
 -13   3  11 1895.75 169.352   3
 -13  -3  10 373.910 84.0907   3
 -13   3  10 529.000 99.6582   3
 -13  -3   9 64.7520 64.7904   3
 -13   3   9 94.7406 71.7199   3
 -13  -3   8 372.617 88.3775   3
 -13   3   8 297.985 83.8538   3
 -13  -3   7 299.969 78.7765   3
 -13   3   7 203.908 81.9198   3
 -13  -3   6 43.5365 63.7268   3
 -13   3   6 42.1664 70.1840   3
 -13  -3   5 79.2173 63.8148   3
 -13   3   5 149.209 73.7545   3
 -13  -3   4 486.538 99.6730   3
 -13   3   4 608.770 104.569   3
 -13  -3   3 3860.79 231.231   3
 -13   3   3 3923.89 237.598   3
 -13  -3   2 431.802 95.8369   3
 -13   3   2 247.983 84.2039   3
 -13  -3   1 50.6785 67.8563   3
 -13   3   1 134.849 78.5457   3
 -13  -3   0 5.41898 64.3796   3
 -13   3   0-18.9199 73.3143   3
 -13  -3  -1 1047.26 132.044   3
 -13   3  -1 1167.98 139.637   3
 -13  -3  -2 96.4477 66.4552   3
 -13   3  -2 41.5175 74.3041   3
 -13  -3  -3 137.143 78.7325   3
 -13   3  -3 90.1067 72.2781   3
 -13  -3  -4 29.9286 64.0666   3
 -13   3  -4-16.7167 79.4357   3
 -13  -4  16 781.029 102.639   3
 -13   4  16 875.594 120.890   3
 -13  -4  15 843.979 110.493   3
 -13   4  15 944.309 129.095   3
 -13  -4  14 3166.51 194.019   3
 -13   4  14 3322.79 220.684   3
 -13  -4  13 134.833 61.1969   3
 -13   4  13 519.445 112.192   3
 -13  -4  12 1807.41 154.323   3
 -13   4  12 1736.08 171.617   3
 -13  -4  11 43.2301 61.3726   3
 -13   4  11 70.0496 76.3187   3
 -13  -4  10 29.9853 56.9822   3
 -13   4  10 26.5264 66.7811   3
 -13  -4   9-111.828 70.4397   3
 -13   4   9-65.2742 79.2438   3
 -13  -4   8 108.464 68.1363   3
 -13   4   8 111.760 65.5710   3
 -13  -4   7 1102.03 128.577   3
 -13   4   7 1220.07 145.250   3
 -13  -4   6 171.750 71.3385   3
 -13   4   6 37.3409 65.0979   3
 -13  -4   5 48.0110 59.4608   3
 -13   4   5-67.8554 77.6266   3
 -13  -4   4 465.385 96.3761   3
 -13   4   4 333.674 89.5573   3
 -13  -4   3 1205.39 137.089   3
 -13   4   3 1119.96 141.265   3
 -13  -4   2 1382.97 144.809   3
 -13   4   2 1237.51 144.524   3
 -13  -4   1-116.064 76.6140   3
 -13   4   1-33.4634 63.3855   3
 -13  -4   0 126.468 73.6047   3
 -13   4   0 187.631 70.1153   3
 -13  -4  -1 690.645 115.150   3
 -13   4  -1 876.286 127.224   3
 -13  -4  -2 198.914 89.2800   3
 -13   4  -2 497.728 106.084   3
 -13  -4  -3 128.577 85.8206   3
 -13   4  -3-31.0934 64.3227   3
 -13  -5  15 54.1282 58.8280   3
 -13  -5  14 118.976 64.2936   3
 -13   5  14 246.859 84.9938   3
 -13  -5  13 255.317 73.4329   3
 -13   5  13 242.362 87.4467   3
 -13  -5  12 1676.18 146.004   3
 -13   5  12 1836.18 171.124   3
 -13  -5  11 150.535 65.8005   3
 -13   5  11 174.807 80.6067   3
 -13  -5  10 1327.68 133.247   3
 -13   5  10 1256.73 143.993   3
 -13  -5   9-32.0398 64.7346   3
 -13   5   9 258.043 91.0151   3
 -13  -5   8 362.749 85.9236   3
 -13   5   8 731.944 116.602   3
 -13  -5   7 1241.19 136.324   3
 -13   5   7 1569.51 156.750   3
 -13  -5   6 434.869 92.6717   3
 -13   5   6 450.127 101.520   3
 -13  -5   5-9.22316 58.0287   3
 -13   5   5-15.0981 65.6358   3
 -13  -5   4 127.959 69.6038   3
 -13   5   4 170.108 72.9194   3
 -13  -5   3 640.026 110.012   3
 -13   5   3 684.710 117.475   3
 -13  -5   2-111.588 73.7637   3
 -13   5   2 32.5345 61.8164   3
 -13  -5   1 46.1159 63.1690   3
 -13   5   1 8.46498 71.2938   3
 -13  -5   0 1077.88 132.635   3
 -13   5   0 1100.96 139.752   3
 -13  -5  -1 252.035 85.0904   3
 -13   5  -1 105.401 70.2685   3
 -13  -5  -2 2361.15 190.215   3
 -13   5  -2 2152.26 187.991   3
 -13  -5  -3 35.2028 65.7858   3
 -13   5  -3 6.28453 79.8148   3
 -13  -6  13 1307.97 127.776   3
 -13   6  13 1585.44 167.347   3
 -13  -6  12-18.4031 60.2886   3
 -13   6  12 193.474 83.7668   3
 -13  -6  11 81.2537 53.5779   3
 -13   6  11-37.5598 65.8936   3
 -13  -6  10 55.7899 57.7899   3
 -13   6  10 205.498 85.0645   3
 -13  -6   9 362.048 87.0628   3
 -13   6   9 397.473 95.7305   3
 -13  -6   8 424.453 85.9974   3
 -13   6   8 456.216 100.786   3
 -13  -6   7 109.079 62.5898   3
 -13   6   7 234.355 91.1274   3
 -13  -6   6-26.4172 61.3154   3
 -13   6   6 141.336 78.6019   3
 -13  -6   5 1920.11 163.240   3
 -13   6   5 2191.92 185.449   3
 -13  -6   4 4.92164 59.6698   3
 -13   6   4 101.548 78.6330   3
 -13  -6   3 1121.31 131.819   3
 -13   6   3 1328.63 152.719   3
 -13  -6   2-3.71085 62.0316   3
 -13   6   2 27.2572 68.3374   3
 -13  -6   1 1444.40 150.260   3
 -13   6   1 1502.27 157.282   3
 -13  -6   0-20.7860 57.9678   3
 -13   6   0 52.8305 74.2762   3
 -13  -6  -1 631.385 110.526   3
 -13   6  -1 656.897 116.486   3
 -13  -6  -2 548.448 105.778   3
 -13   6  -2 718.251 121.744   3
 -13  -7  12 85.2931 58.7114   3
 -13  -7  11 2228.05 162.991   3
 -13   7  11 2488.59 201.597   3
 -13  -7  10 32.4077 56.4057   3
 -13   7  10 10.2761 71.3726   3
 -13  -7   9 183.003 66.0418   3
 -13   7   9 352.951 97.0431   3
 -13  -7   8 661.914 104.856   3
 -13   7   8 477.116 99.8378   3
 -13  -7   7 2090.18 163.828   3
 -13   7   7 2127.20 185.931   3
 -13  -7   6 302.265 80.3113   3
 -13   7   6 377.449 100.296   3
 -13  -7   5 1113.05 127.657   3
 -13   7   5 1415.22 151.841   3
 -13  -7   4 39.6107 61.4777   3
 -13   7   4 27.9056 67.7224   3
 -13  -7   3 389.255 85.5742   3
 -13   7   3 686.519 120.819   3
 -13  -7   2 5.78889 63.0843   3
 -13   7   2 51.2056 71.7238   3
 -13  -7   1 347.077 87.7006   3
 -13   7   1 412.785 101.136   3
 -13  -7   0 82.6619 71.7223   3
 -13   7   0 57.0814 68.6571   3
 -13  -7  -1 2032.98 177.028   3
 -13   7  -1 1941.32 183.814   3
 -13  -8  11 41.0861 49.6828   3
 -13  -8  10 245.589 75.2339   3
 -13  -8   9 427.033 87.8491   3
 -13  -8   8 1374.48 134.666   3
 -13   8   8 1393.65 157.950   3
 -13  -8   7 226.187 73.4097   3
 -13   8   7 325.373 105.311   3
 -13  -8   6 208.505 71.3149   3
 -13   8   6 217.412 92.7020   3
 -13  -8   5 0.10941 54.3341   3
 -13   8   5-42.7507 70.1511   3
 -13  -8   4 271.503 79.7388   3
 -13   8   4 470.053 104.615   3
 -13  -8   3 561.727 104.865   3
 -13   8   3 122.190 77.0792   3
 -13  -8   2 3965.02 231.284   3
 -13   8   2 4547.26 267.659   3
 -13  -8   1 173.969 78.7400   3
 -13   8   1 91.8008 75.4093   3
 -13  -8   0 838.642 114.018   3
 -13  -8  -1 193.379 81.6302   3
 -13  -9   9 527.333 89.2649   3
 -13  -9   8 79.4319 61.2600   3
 -13  -9   7 379.465 81.1710   3
 -13  -9   6 363.268 77.3899   3
 -13  -9   5 41.2958 67.3228   3
 -13  -9   4 1147.57 130.793   3
 -13  -9   3 338.565 87.1434   3
 -13  -9   2-46.4901 63.5858   3
 -13  -9   1 0.82512 61.5993   3
 -13  -9   0 2607.17 196.013   3
 -13 -10   8 981.132 110.952   3
 -13 -10   7-21.5060 56.1334   3
 -13 -10   6-20.5751 54.5460   3
 -13 -10   5 38.1707 58.4513   3
 -13 -10   4 1139.73 130.216   3
 -13 -10   3 614.287 104.186   3
 -13 -10   2 1360.73 143.009   3
 -13 -10   1 2169.96 177.742   3
 -13 -10   0 1490.27 148.225   3
 -13 -11   6 289.234 71.9247   3
 -13 -11   5 2132.21 162.295   3
 -13 -11   4 100.526 59.5098   3
 -13 -11   3 39.6125 52.7072   3
 -13 -11   2 84.6810 59.3998   3
 -13 -11   1-35.2684 63.4976   3
 -13 -12   4 380.882 82.6383   3
 -13 -12   3 1463.10 139.784   3
 -13 -12   2-81.5187 65.3120   3
 -13 -12   1 177.987 73.2305   3
 -13 -13   2 92.6665 62.7072   3
 -13 -13   1 191.385 76.3776   3
 -14   0  13 35.0039 64.6443   3
 -14   0  12 578.229 104.618   3
 -14   0  11 150.835 80.3051   3
 -14   0  10 1258.52 142.429   3
 -14   0   9-27.7715 60.7939   3
 -14   0   8 90.8242 69.2404   3
 -14   0   7 13.6849 67.4027   3
 -14   0   6 2325.29 190.934   3
 -14   0   5-2.97918 69.4361   3
 -14   0   4 4947.36 275.527   3
 -14  -1  14-15.0530 60.4098   3
 -14  -1  13 730.379 113.266   3
 -14  -1  12 163.191 71.6053   3
 -14  -1  11 640.999 107.142   3
 -14  -1  10 2546.21 192.270   3
 -14   1  10 2441.31 193.992   3
 -14  -1   9 192.288 78.1762   3
 -14   1   9 134.285 79.8355   3
 -14  -1   8 493.086 96.5187   3
 -14   1   8 437.401 99.7662   3
 -14  -1   7 287.116 87.9450   3
 -14   1   7 177.280 79.5968   3
 -14  -1   6 987.707 129.911   3
 -14   1   6 916.692 130.714   3
 -14  -1   5 54.8884 65.9673   3
 -14  -1   4 152.803 79.1890   3
 -14  -1   3 558.723 114.312   3
 -14  -2  15 4095.11 230.641   3
 -14  -2  14 6.15905 56.4087   3
 -14  -2  13 457.702 92.3855   3
 -14  -2  12 93.9445 64.6149   3
 -14  -2  11 108.451 68.8194   3
 -14  -2  10 99.0117 62.3946   3
 -14  -2   9 638.598 112.579   3
 -14  -2   8 1503.02 154.121   3
 -14  -2   7 435.048 99.3773   3
 -14  -2   6-52.0991 71.3278   3
 -14  -2   5 770.882 119.779   3
 -14  -2   4 366.305 86.0850   3
 -14  -2   3 1477.61 151.875   3
 -14  -3  14 27.1899 60.4202   3
 -14  -3  13 16.2887 54.9012   3
 -14  -3  12 531.144 99.6059   3
 -14  -3  11 1442.80 144.343   3
 -14  -3  10-103.656 69.9006   3
 -14  -3   9 64.4796 61.6445   3
 -14  -3   8 295.678 83.4988   3
 -14  -3   7 287.577 82.8923   3
 -14  -3   6 139.775 74.3244   3
 -14  -3   5-29.5174 66.9437   3
 -14  -3   4 184.725 75.1893   3
 -14  -3   3 40.3529 65.4274   3
 -14  -4  13 306.475 77.9687   3
 -14  -4  12 65.7792 62.3362   3
 -14  -4  11 279.793 82.0626   3
 -14  -4  10 1301.53 136.490   3
 -14  -4   9 122.038 62.8962   3
 -14  -4   8 15.7364 63.0238   3
 -14  -4   7 230.915 78.8461   3
 -14  -4   6 883.040 122.419   3
 -14  -4   5 323.606 84.2030   3
 -14  -4   4 533.412 106.069   3
 -14  -4   3 944.452 127.994   3
 -14  -5  12 2398.72 174.548   3
 -14  -5  11 86.3185 54.7052   3
 -14  -5  10-16.3646 56.5152   3
 -14  -5   9 64.5849 60.1687   3
 -14  -5   8 942.106 117.294   3
 -14  -5   7 280.116 85.4781   3
 -14  -5   6 910.349 121.933   3
 -14  -5   5 38.7364 63.4188   3
 -14  -5   4-29.4111 62.7436   3
 -14  -5   3 123.309 66.7475   3
 -14  -6  11 215.264 68.6701   3
 -14  -6  10 357.112 86.9212   3
 -14  -6   9 36.9679 58.1999   3
 -14  -6   8-30.5165 54.0242   3
 -14  -6   7 203.077 75.5017   3
 -14  -6   6 7.21877 58.3888   3
 -14  -6   5 1512.78 151.025   3
 -14  -6   4 665.588 111.412   3
 -14  -6   3 3511.67 224.676   3
 -14  -7  10-0.11569 51.0500   3
 -14  -7   9 43.4118 54.9450   3
 -14  -7   8 222.414 70.5356   3
 -14  -7   7 1535.83 147.454   3
 -14  -7   6 199.660 73.1914   3
 -14  -7   5 187.270 77.0328   3
 -14  -7   4 1558.64 151.059   3
 -14  -7   3 504.486 104.658   3
 -14  -8   8 578.324 98.5336   3
 -14  -8   7 95.1994 60.8975   3
 -14  -8   6 165.537 72.1887   3
 -14  -8   5 330.723 86.3439   3
 -14  -8   4 622.220 104.521   3
 -14  -8   3 71.3329 69.5748   3
 -14  -9   6 1272.07 131.163   3
 -14  -9   5-2.67707 59.4076   3
 -14  -9   4 241.322 76.7768   3
   0   0   0    0.00    0.00   0
;
_shelx_hkl_checksum              28073
loop_
_space_group_symop_operation_xyz
'x, y, z'
'-x, y+1/2, -z+1/2'
'-x, -y, -z'
'x, -y-1/2, z-1/2'
loop_
_atom_site_label
_atom_site_type_symbol
_atom_site_fract_x
_atom_site_fract_y
_atom_site_fract_z
_atom_site_U_iso_or_equiv
_atom_site_adp_type
_atom_site_occupancy
_atom_site_site_symmetry_order
_atom_site_calc_flag
_atom_site_refinement_flags_posn
_atom_site_refinement_flags_adp
_atom_site_refinement_flags_occupancy
_atom_site_disorder_assembly
_atom_site_disorder_group
Ru1 Ru 0.44559(2) 0.36073(2) 0.16504(2) 0.01344(7) Uani 1 1 d . . . . .
Cl1 Cl 0.30506(6) 0.36786(3) 0.23768(3) 0.01886(15) Uani 1 1 d . . . . .
C1 C 0.5792(2) 0.46928(13) 0.23554(12) 0.0156(6) Uani 1 1 d . . . . .
C2 C 0.5983(3) 0.53758(13) 0.23177(12) 0.0161(6) Uani 1 1 d . . . . .
C2A C 0.6931(3) 0.57246(14) 0.26452(13) 0.0200(6) Uani 1 1 d . . . . .
H2A H 0.7468 0.5482 0.2922 0.024 Uiso 1 1 calc R U . . .
C2B C 0.7215(3) 0.63713(14) 0.26305(13) 0.0215(6) Uani 1 1 d . . . . .
H2B H 0.7892 0.6507 0.2908 0.026 Uiso 1 1 calc R U . . .
C2C C 0.6651(3) 0.68446(13) 0.22686(13) 0.0211(6) Uani 1 1 d . . . . .
H2C H 0.6965 0.7264 0.2339 0.025 Uiso 1 1 calc R U . . .
C3 C 0.5085(3) 0.56134(13) 0.18353(12) 0.0165(6) Uani 1 1 d . . . . .
C3A C 0.5000(3) 0.62369(13) 0.16269(13) 0.0193(6) Uani 1 1 d . . . . .
H3A H 0.4374 0.6305 0.1302 0.023 Uiso 1 1 calc R U . . .
C3B C 0.5684(3) 0.67760(13) 0.18178(13) 0.0219(6) Uani 1 1 d . . . . .
H3B H 0.5449 0.7155 0.1605 0.026 Uiso 1 1 calc R U . . .
C4 C 0.4376(2) 0.50644(13) 0.15904(12) 0.0152(6) Uani 1 1 d . . . . .
C5 C 0.3283(3) 0.50606(13) 0.11696(12) 0.0160(6) Uani 1 1 d . . . . .
C5A C 0.2646(3) 0.56738(13) 0.09745(12) 0.0165(6) Uani 1 1 d . . . . .
C5B C 0.1883(3) 0.59596(13) 0.13174(13) 0.0190(6) Uani 1 1 d . . . . .
H5B H 0.1787 0.5775 0.1678 0.023 Uiso 1 1 calc R U . . .
C5C C 0.1259(3) 0.65184(14) 0.11311(14) 0.0239(7) Uani 1 1 d . . . . .
H5C H 0.0726 0.6711 0.1363 0.029 Uiso 1 1 calc R U . . .
C5D C 0.1408(3) 0.67938(14) 0.06138(14) 0.0249(7) Uani 1 1 d . . . . .
H5D H 0.0990 0.7179 0.0493 0.030 Uiso 1 1 calc R U . . .
C5E C 0.2164(3) 0.65127(14) 0.02689(14) 0.0262(7) Uani 1 1 d . . . . .
H5E H 0.2264 0.6704 -0.0089 0.031 Uiso 1 1 calc R U . . .
C5F C 0.2780(3) 0.59477(14) 0.04472(13) 0.0220(6) Uani 1 1 d . . . . .
H5F H 0.3291 0.5750 0.0208 0.026 Uiso 1 1 calc R U . . .
C6 C 0.2661(3) 0.45188(13) 0.09249(12) 0.0167(6) Uani 1 1 d . . . . .
C7 C 0.1567(3) 0.45308(13) 0.04900(12) 0.0184(6) Uani 1 1 d . . . . .
H7 H 0.1080 0.4895 0.0367 0.022 Uiso 1 1 calc R U . . .
Cl8 Cl 0.04889(11) 0.59576(6) 0.42647(5) 0.0604(3) Uani 1 1 d . . . . .
C8 C 0.1364(3) 0.39311(13) 0.02922(13) 0.0186(6) Uani 1 1 d . . . . .
H8 H 0.0712 0.3796 0.0000 0.022 Uiso 1 1 calc R U . . .
C9 C 0.2311(3) 0.35314(13) 0.06027(12) 0.0158(6) Uani 1 1 d . . . . .
C10 C 0.2490(3) 0.28730(13) 0.04493(12) 0.0166(6) Uani 1 1 d . . . . .
C10A C 0.1921(3) 0.26563(13) -0.01378(12) 0.0176(6) Uani 1 1 d . . . . .
C10B C 0.2085(3) 0.29951(14) -0.06304(13) 0.0202(6) Uani 1 1 d . . . . .
H10B H 0.2535 0.3384 -0.0591 0.024 Uiso 1 1 calc R U . . .
C10C C 0.1600(3) 0.27742(15) -0.11755(13) 0.0222(6) Uani 1 1 d . . . . .
H10C H 0.1721 0.3015 -0.1506 0.027 Uiso 1 1 calc R U . . .
C10D C 0.0939(3) 0.22060(15) -0.12508(13) 0.0223(7) Uani 1 1 d . . . . .
C10E C 0.0764(3) 0.18692(14) -0.07596(14) 0.0232(7) Uani 1 1 d . . . . .
H10E H 0.0304 0.1484 -0.0801 0.028 Uiso 1 1 calc R U . . .
C10F C 0.1251(3) 0.20859(14) -0.02092(14) 0.0219(6) Uani 1 1 d . . . . .
H10F H 0.1128 0.1846 0.0121 0.026 Uiso 1 1 calc R U . . .
C11 C 0.3235(3) 0.24403(13) 0.07824(12) 0.0175(6) Uani 1 1 d . . . . .
C12 C 0.3841(3) 0.18784(13) 0.06286(13) 0.0215(6) Uani 1 1 d . . . . .
H12 H 0.3605 0.1663 0.0271 0.026 Uiso 1 1 calc R U . . .
C13 C 0.4785(3) 0.16789(14) 0.10380(13) 0.0213(6) Uani 1 1 d . . . . .
H13 H 0.5270 0.1315 0.0987 0.026 Uiso 1 1 calc R U . . .
C14 C 0.4988(3) 0.20601(13) 0.15503(13) 0.0175(6) Uani 1 1 d . . . . .
C15 C 0.5949(3) 0.21013(13) 0.20050(12) 0.0169(6) Uani 1 1 d . . . . .
C15A C 0.6868(3) 0.15731(13) 0.20880(12) 0.0166(6) Uani 1 1 d . . . . .
C15B C 0.6472(3) 0.09391(13) 0.20664(12) 0.0186(6) Uani 1 1 d . . . . .
H15B H 0.5614 0.0848 0.2009 0.022 Uiso 1 1 calc R U . . .
C15C C 0.7309(3) 0.04409(14) 0.21266(13) 0.0212(6) Uani 1 1 d . . . . .
H15C H 0.7019 0.0013 0.2115 0.025 Uiso 1 1 calc R U . . .
C15D C 0.8571(3) 0.05589(14) 0.22039(13) 0.0224(6) Uani 1 1 d . . . . .
C15E C 0.8966(3) 0.11881(15) 0.22317(14) 0.0244(7) Uani 1 1 d . . . . .
H15E H 0.9825 0.1278 0.2291 0.029 Uiso 1 1 calc R U . . .
C15F C 0.8130(3) 0.16900(14) 0.21743(13) 0.0217(6) Uani 1 1 d . . . . .
H15F H 0.8423 0.2117 0.2194 0.026 Uiso 1 1 calc R U . . .
C16 C 0.6170(2) 0.26382(13) 0.23969(12) 0.0158(6) Uani 1 1 d . . . . .
C17 C 0.6882(3) 0.25895(13) 0.29634(13) 0.0191(6) Uani 1 1 d . . . . .
H17 H 0.7239 0.2211 0.3140 0.023 Uiso 1 1 calc R U . . .
C18 C 0.6957(3) 0.31780(13) 0.32032(13) 0.0185(6) Uani 1 1 d . . . . .
H18 H 0.7350 0.3287 0.3582 0.022 Uiso 1 1 calc R U . . .
C19 C 0.6327(2) 0.36073(13) 0.27741(12) 0.0157(6) Uani 1 1 d . . . . .
C20 C 0.6334(2) 0.42738(13) 0.28069(12) 0.0167(6) Uani 1 1 d . . . . .
C20A C 0.6894(3) 0.45430(13) 0.33821(13) 0.0190(6) Uani 1 1 d . . . . .
C20B C 0.8129(3) 0.44614(14) 0.36108(14) 0.0253(7) Uani 1 1 d . . . . .
H20B H 0.8655 0.4236 0.3396 0.030 Uiso 1 1 calc R U . . .
C20C C 0.8599(3) 0.47074(15) 0.41519(15) 0.0324(8) Uani 1 1 d . . . . .
H20C H 0.9446 0.4652 0.4305 0.039 Uiso 1 1 calc R U . . .
C20D C 0.7841(3) 0.50322(15) 0.44694(15) 0.0335(8) Uani 1 1 d . . . . .
H20D H 0.8167 0.5202 0.4839 0.040 Uiso 1 1 calc R U . . .
C20E C 0.6612(3) 0.51093(15) 0.42490(14) 0.0297(7) Uani 1 1 d . . . . .
H20E H 0.6088 0.5328 0.4469 0.036 Uiso 1 1 calc R U . . .
C20F C 0.6138(3) 0.48691(13) 0.37080(13) 0.0225(6) Uani 1 1 d . . . . .
H20F H 0.5290 0.4927 0.3557 0.027 Uiso 1 1 calc R U . . .
C21 C 0.4914(2) 0.45046(13) 0.18700(12) 0.0146(6) Uani 1 1 d . . . . .
N22 N 0.3053(2) 0.38938(11) 0.10045(10) 0.0155(5) Uani 1 1 d . . . . .
C22 C 0.0431(3) 0.19690(16) -0.18472(14) 0.0302(7) Uani 1 1 d . . . . .
H22A H 0.0688 0.2256 -0.2136 0.045 Uiso 1 1 calc R U . . .
H22B H -0.0471 0.1958 -0.1896 0.045 Uiso 1 1 calc R U . . .
H22C H 0.0744 0.1539 -0.1899 0.045 Uiso 1 1 calc R U . . .
S23 S 0.37334(6) 0.25778(3) 0.15155(3) 0.01560(15) Uani 1 1 d . . . . .
N23 N 0.5802(2) 0.32558(10) 0.22946(10) 0.0152(5) Uani 1 1 d . . . . .
C23 C 0.9473(3) 0.00146(16) 0.22589(16) 0.0337(8) Uani 1 1 d . . . . .
H23A H 0.9563 -0.0139 0.1872 0.050 Uiso 1 1 calc R U . . .
H23B H 0.9170 -0.0333 0.2478 0.050 Uiso 1 1 calc R U . . .
H23C H 1.0274 0.0161 0.2462 0.050 Uiso 1 1 calc R U . . .
O24 O 0.6062(2) 0.35622(11) 0.07412(10) 0.0302(5) Uani 1 1 d . . . . .
C24 C 0.5471(3) 0.35739(13) 0.10977(13) 0.0181(6) Uani 1 1 d . . . . .
C25 C 0.3796(4) 0.3662(2) 0.38793(17) 0.0496(11) Uani 1 1 d . . . . .
H25A H 0.3160 0.3324 0.3829 0.059 Uiso 1 1 calc R U . . .
H25B H 0.3998 0.3766 0.3493 0.059 Uiso 1 1 calc R U . . .
Cl2 Cl 0.51175(10) 0.33795(6) 0.43234(5) 0.0576(3) Uani 1 1 d . . . . .
Cl3 Cl 0.31945(11) 0.43512(5) 0.41739(5) 0.0546(3) Uani 1 1 d . . . . .
C26 C 0.2629(3) -0.00441(16) 0.40022(15) 0.0317(8) Uani 1 1 d . . . . .
H26A H 0.2994 -0.0163 0.3657 0.038 Uiso 1 1 calc R U . . .
H26B H 0.2401 -0.0443 0.4185 0.038 Uiso 1 1 calc R U . . .
Cl4 Cl 0.37418(7) 0.03634(4) 0.44946(4) 0.03009(18) Uani 1 1 d . . . . .
Cl5 Cl 0.12950(10) 0.04073(5) 0.37811(5) 0.0581(3) Uani 1 1 d . . . . .
C27 C 0.0025(3) 0.35071(18) 0.15690(17) 0.0406(9) Uani 1 1 d . . . . .
H27A H -0.0006 0.3763 0.1212 0.049 Uiso 1 1 calc R U . . .
H27B H 0.0741 0.3655 0.1850 0.049 Uiso 1 1 calc R U . . .
Cl6 Cl -0.13431(8) 0.36327(5) 0.18617(4) 0.0401(2) Uani 1 1 d . . . . .
Cl7 Cl 0.02263(11) 0.26951(6) 0.14070(6) 0.0627(3) Uani 1 1 d . . . . .
Cl9 Cl 0.2290(3) 0.69304(12) 0.4673(2) 0.1264(18) Uani 0.798(9) 1 d . . P A 1
C28 C 0.2041(4) 0.6211(2) 0.4352(2) 0.0553(12) Uani 0.798(9) 1 d . . P A 1
H28A H 0.2562 0.5890 0.4586 0.066 Uiso 0.798(9) 1 calc R U P A 1
H28B H 0.2301 0.6228 0.3966 0.066 Uiso 0.798(9) 1 calc R U P A 1
Cl10 Cl 0.2160(12) 0.6723(9) 0.4882(3) 0.131(6) Uani 0.202(9) 1 d . . P A 2
C29 C 0.2041(4) 0.6211(2) 0.4352(2) 0.0552(12) Uani 0.202(9) 1 d . . P A 2
H29A H 0.2610 0.5847 0.4452 0.066 Uiso 0.202(9) 1 calc R U P A 2
H29B H 0.2225 0.6415 0.3994 0.066 Uiso 0.202(9) 1 calc R U P A 2
loop_
_atom_site_aniso_label
_atom_site_aniso_U_11
_atom_site_aniso_U_22
_atom_site_aniso_U_33
_atom_site_aniso_U_23
_atom_site_aniso_U_13
_atom_site_aniso_U_12
Ru1 0.01503(11) 0.01042(11) 0.01466(12) 0.00028(9) 0.00178(8) 0.00032(8)
Cl1 0.0196(3) 0.0177(3) 0.0201(3) -0.0013(3) 0.0059(3) -0.0004(3)
C1 0.0148(14) 0.0136(13) 0.0191(15) -0.0012(12) 0.0041(11) 0.0012(10)
C2 0.0168(14) 0.0154(14) 0.0175(14) -0.0010(12) 0.0074(11) 0.0016(11)
C2A 0.0196(15) 0.0202(15) 0.0204(15) -0.0021(13) 0.0042(12) 0.0002(12)
C2B 0.0208(15) 0.0204(15) 0.0244(16) -0.0057(13) 0.0065(12) -0.0034(12)
C2C 0.0259(16) 0.0141(14) 0.0256(16) -0.0051(12) 0.0108(13) -0.0045(12)
C3 0.0166(14) 0.0156(13) 0.0188(15) -0.0007(12) 0.0071(11) 0.0002(11)
C3A 0.0163(14) 0.0187(14) 0.0233(16) 0.0003(12) 0.0041(12) 0.0004(11)
C3B 0.0269(16) 0.0129(14) 0.0280(17) 0.0015(13) 0.0109(13) 0.0006(12)
C4 0.0155(14) 0.0141(13) 0.0168(14) -0.0013(11) 0.0050(11) -0.0011(11)
C5 0.0171(14) 0.0156(13) 0.0159(14) 0.0008(12) 0.0043(11) 0.0005(11)
C5A 0.0150(14) 0.0133(13) 0.0198(15) -0.0020(12) -0.0017(11) -0.0010(11)
C5B 0.0172(15) 0.0174(14) 0.0219(16) -0.0029(12) 0.0019(12) -0.0018(11)
C5C 0.0166(15) 0.0206(15) 0.0333(18) -0.0082(14) 0.0006(13) 0.0023(12)
C5D 0.0209(16) 0.0168(14) 0.0337(18) -0.0016(14) -0.0054(13) 0.0042(12)
C5E 0.0326(18) 0.0185(15) 0.0261(17) 0.0049(13) 0.0001(14) 0.0020(13)
C5F 0.0256(16) 0.0190(15) 0.0211(16) 0.0010(13) 0.0032(13) 0.0047(12)
C6 0.0177(14) 0.0152(13) 0.0177(14) 0.0022(12) 0.0040(11) 0.0021(11)
C7 0.0183(15) 0.0175(14) 0.0195(15) 0.0009(12) 0.0032(12) 0.0018(11)
Cl8 0.0616(7) 0.0637(7) 0.0622(7) -0.0096(6) 0.0293(6) -0.0177(6)
C8 0.0176(15) 0.0190(14) 0.0186(15) 0.0010(12) 0.0008(12) -0.0008(11)
C9 0.0176(14) 0.0150(13) 0.0151(14) 0.0000(12) 0.0034(11) -0.0014(11)
C10 0.0175(14) 0.0166(14) 0.0160(14) 0.0008(12) 0.0033(11) -0.0020(11)
C10A 0.0150(14) 0.0172(14) 0.0204(15) -0.0015(12) 0.0021(11) 0.0024(11)
C10B 0.0188(15) 0.0181(14) 0.0236(16) -0.0011(13) 0.0031(12) -0.0022(11)
C10C 0.0198(15) 0.0272(16) 0.0196(15) 0.0015(13) 0.0032(12) 0.0045(12)
C10D 0.0153(14) 0.0270(16) 0.0241(16) -0.0079(13) 0.0017(12) 0.0053(12)
C10E 0.0203(15) 0.0169(14) 0.0312(17) -0.0062(13) 0.0005(13) -0.0016(12)
C10F 0.0225(16) 0.0177(14) 0.0247(16) -0.0013(13) 0.0015(13) -0.0003(12)
C11 0.0204(15) 0.0149(13) 0.0172(14) -0.0023(12) 0.0025(12) -0.0047(11)
C12 0.0284(17) 0.0157(14) 0.0206(15) -0.0037(12) 0.0050(12) -0.0005(12)
C13 0.0280(17) 0.0148(14) 0.0214(16) -0.0016(12) 0.0046(13) 0.0018(12)
C14 0.0199(15) 0.0111(13) 0.0221(15) 0.0028(12) 0.0055(12) 0.0010(11)
C15 0.0183(15) 0.0126(13) 0.0204(15) 0.0019(12) 0.0049(12) 0.0002(11)
C15A 0.0199(15) 0.0141(13) 0.0171(14) 0.0015(12) 0.0066(11) 0.0020(11)
C15B 0.0185(15) 0.0178(14) 0.0198(15) 0.0011(12) 0.0037(12) -0.0004(11)
C15C 0.0287(17) 0.0152(14) 0.0194(15) -0.0015(12) 0.0025(13) 0.0021(12)
C15D 0.0244(16) 0.0214(15) 0.0215(16) -0.0007(13) 0.0036(12) 0.0085(12)
C15E 0.0183(15) 0.0271(16) 0.0285(17) -0.0004(14) 0.0054(13) 0.0031(12)
C15F 0.0203(15) 0.0173(14) 0.0284(17) 0.0001(13) 0.0064(13) -0.0014(12)
C16 0.0144(14) 0.0137(13) 0.0201(15) 0.0025(12) 0.0052(11) 0.0004(10)
C17 0.0190(15) 0.0175(14) 0.0210(15) 0.0027(12) 0.0040(12) 0.0026(11)
C18 0.0189(15) 0.0187(14) 0.0174(15) 0.0028(12) 0.0015(11) -0.0001(11)
C19 0.0136(13) 0.0164(13) 0.0169(14) -0.0011(12) 0.0018(11) 0.0006(11)
C20 0.0135(14) 0.0172(14) 0.0198(15) -0.0015(12) 0.0035(11) -0.0009(11)
C20A 0.0239(16) 0.0113(13) 0.0208(15) 0.0004(12) 0.0004(12) -0.0007(11)
C20B 0.0249(17) 0.0188(15) 0.0304(18) -0.0019(14) -0.0008(13) 0.0005(12)
C20C 0.0297(18) 0.0263(17) 0.036(2) -0.0028(15) -0.0113(15) 0.0004(14)
C20D 0.050(2) 0.0249(17) 0.0214(17) -0.0055(14) -0.0078(15) 0.0008(15)
C20E 0.047(2) 0.0200(16) 0.0223(17) -0.0022(14) 0.0048(15) 0.0044(14)
C20F 0.0294(17) 0.0166(14) 0.0215(16) 0.0009(13) 0.0039(13) 0.0023(12)
C21 0.0148(14) 0.0148(13) 0.0152(14) -0.0012(11) 0.0055(11) 0.0013(11)
N22 0.0177(12) 0.0129(11) 0.0159(12) 0.0002(10) 0.0030(10) 0.0001(9)
C22 0.0273(18) 0.0368(19) 0.0252(17) -0.0110(15) 0.0002(14) 0.0008(14)
S23 0.0176(3) 0.0120(3) 0.0170(3) -0.0001(3) 0.0018(3) 0.0002(3)
N23 0.0153(12) 0.0141(11) 0.0163(12) -0.0001(10) 0.0029(9) -0.0003(9)
C23 0.0325(19) 0.0261(17) 0.042(2) -0.0023(16) 0.0052(16) 0.0110(14)
O24 0.0322(13) 0.0340(13) 0.0271(12) -0.0014(11) 0.0131(10) -0.0023(10)
C24 0.0209(15) 0.0090(13) 0.0218(15) 0.0011(12) -0.0047(12) -0.0023(11)
C25 0.050(2) 0.064(3) 0.036(2) -0.010(2) 0.0079(18) -0.024(2)
Cl2 0.0518(6) 0.0808(8) 0.0439(6) 0.0076(6) 0.0185(5) -0.0030(6)
Cl3 0.0626(7) 0.0562(6) 0.0495(6) 0.0043(5) 0.0228(5) -0.0096(5)
C26 0.0339(19) 0.0295(17) 0.0319(19) -0.0031(15) 0.0058(15) 0.0046(14)
Cl4 0.0269(4) 0.0336(4) 0.0307(4) 0.0027(4) 0.0076(3) 0.0025(3)
Cl5 0.0550(7) 0.0506(6) 0.0572(7) -0.0231(5) -0.0257(5) 0.0254(5)
C27 0.0291(19) 0.051(2) 0.042(2) 0.0101(19) 0.0065(16) -0.0099(17)
Cl6 0.0247(4) 0.0524(5) 0.0421(5) 0.0194(4) 0.0021(4) 0.0003(4)
Cl7 0.0612(7) 0.0614(7) 0.0749(8) -0.0164(6) 0.0395(6) -0.0208(6)
Cl9 0.0751(16) 0.0495(13) 0.223(4) -0.0690(17) -0.0712(19) 0.0255(10)
C28 0.061(3) 0.056(3) 0.053(3) -0.013(2) 0.025(2) -0.018(2)
Cl10 0.134(9) 0.238(16) 0.023(4) 0.012(5) 0.021(4) -0.073(9)
C29 0.059(3) 0.057(3) 0.054(3) -0.010(2) 0.024(2) -0.018(2)
loop_
_atom_type_symbol
_atom_type_description
_atom_type_scat_dispersion_real
_atom_type_scat_dispersion_imag
_atom_type_scat_source
C C 0.0033 0.0016 'International Tables Vol C Tables 4.2.6.8 and 6.1.1.4'
H H 0.0000 0.0000 'International Tables Vol C Tables 4.2.6.8 and 6.1.1.4'
Cl Cl 0.1484 0.1585 'International Tables Vol C Tables 4.2.6.8 and 6.1.1.4'
N N 0.0061 0.0033 'International Tables Vol C Tables 4.2.6.8 and 6.1.1.4'
O O 0.0106 0.0060 'International Tables Vol C Tables 4.2.6.8 and 6.1.1.4'
Ru Ru -1.2594 0.8363 'International Tables Vol C Tables 4.2.6.8 and 6.1.1.4'
S S 0.1246 0.1234 'International Tables Vol C Tables 4.2.6.8 and 6.1.1.4'
loop_
_geom_angle_atom_site_label_1
_geom_angle_atom_site_label_2
_geom_angle_atom_site_label_3
_geom_angle
C24 Ru1 C21 93.48(11)
C24 Ru1 N22 87.87(11)
C21 Ru1 N22 92.41(10)
C24 Ru1 N23 93.16(11)
C21 Ru1 N23 91.55(10)
N22 Ru1 N23 175.84(9)
C24 Ru1 S23 95.90(8)
C21 Ru1 S23 170.61(8)
N22 Ru1 S23 88.38(6)
N23 Ru1 S23 87.50(6)
C24 Ru1 Cl1 178.22(9)
C21 Ru1 Cl1 85.74(8)
N22 Ru1 Cl1 90.57(7)
N23 Ru1 Cl1 88.46(7)
S23 Ru1 Cl1 84.90(3)
C21 C1 C20 124.6(2)
C21 C1 C2 108.1(2)
C20 C1 C2 127.2(3)
C2A C2 C1 125.8(3)
C2A C2 C3 126.6(3)
C1 C2 C3 107.3(2)
C2B C2A C2 130.3(3)
C2B C2A H2A 114.9
C2 C2A H2A 114.9
C2C C2B C2A 129.3(3)
C2C C2B H2B 115.4
C2A C2B H2B 115.4
C3B C2C C2B 127.4(3)
C3B C2C H2C 116.3
C2B C2C H2C 116.3
C3A C3 C4 127.1(3)
C3A C3 C2 126.1(3)
C4 C3 C2 106.7(2)
C3B C3A C3 130.4(3)
C3B C3A H3A 114.8
C3 C3A H3A 114.8
C2C C3B C3A 129.8(3)
C2C C3B H3B 115.1
C3A C3B H3B 115.1
C21 C4 C5 123.6(2)
C21 C4 C3 108.3(2)
C5 C4 C3 128.0(3)
C6 C5 C4 126.1(3)
C6 C5 C5A 113.5(2)
C4 C5 C5A 120.4(2)
C5B C5A C5F 119.7(3)
C5B C5A C5 119.3(3)
C5F C5A C5 120.9(3)
C5A C5B C5C 119.7(3)
C5A C5B H5B 120.1
C5C C5B H5B 120.1
C5D C5C C5B 120.4(3)
C5D C5C H5C 119.8
C5B C5C H5C 119.8
C5C C5D C5E 120.3(3)
C5C C5D H5D 119.8
C5E C5D H5D 119.8
C5D C5E C5F 119.8(3)
C5D C5E H5E 120.1
C5F C5E H5E 120.1
C5A C5F C5E 120.0(3)
C5A C5F H5F 120.0
C5E C5F H5F 120.0
N22 C6 C5 126.4(3)
N22 C6 C7 108.5(2)
C5 C6 C7 124.8(3)
C8 C7 C6 107.4(3)
C8 C7 H7 126.3
C6 C7 H7 126.3
C7 C8 C9 107.7(3)
C7 C8 H8 126.2
C9 C8 H8 126.2
N22 C9 C8 109.0(2)
N22 C9 C10 127.5(3)
C8 C9 C10 123.1(3)
C11 C10 C9 125.4(3)
C11 C10 C10A 116.4(2)
C9 C10 C10A 117.9(2)
C10B C10A C10F 118.2(3)
C10B C10A C10 121.3(3)
C10F C10A C10 120.4(3)
C10C C10B C10A 120.9(3)
C10C C10B H10B 119.6
C10A C10B H10B 119.6
C10B C10C C10D 121.3(3)
C10B C10C H10C 119.3
C10D C10C H10C 119.3
C10E C10D C10C 118.0(3)
C10E C10D C22 121.4(3)
C10C C10D C22 120.6(3)
C10D C10E C10F 121.2(3)
C10D C10E H10E 119.4
C10F C10E H10E 119.4
C10E C10F C10A 120.4(3)
C10E C10F H10F 119.8
C10A C10F H10F 119.8
C10 C11 C12 131.3(3)
C10 C11 S23 120.9(2)
C12 C11 S23 107.5(2)
C13 C12 C11 114.2(3)
C13 C12 H12 122.9
C11 C12 H12 122.9
C12 C13 C14 114.7(3)
C12 C13 H13 122.7
C14 C13 H13 122.7
C15 C14 C13 132.9(3)
C15 C14 S23 119.9(2)
C13 C14 S23 107.1(2)
C14 C15 C16 124.6(3)
C14 C15 C15A 118.3(2)
C16 C15 C15A 117.0(2)
C15F C15A C15B 118.1(3)
C15F C15A C15 121.8(2)
C15B C15A C15 120.1(3)
C15C C15B C15A 121.1(3)
C15C C15B H15B 119.5
C15A C15B H15B 119.5
C15B C15C C15D 120.8(3)
C15B C15C H15C 119.6
C15D C15C H15C 119.6
C15E C15D C15C 118.2(3)
C15E C15D C23 121.4(3)
C15C C15D C23 120.4(3)
C15D C15E C15F 121.2(3)
C15D C15E H15E 119.4
C15F C15E H15E 119.4
C15E C15F C15A 120.6(3)
C15E C15F H15F 119.7
C15A C15F H15F 119.7
N23 C16 C17 109.4(2)
N23 C16 C15 127.7(3)
C17 C16 C15 122.9(2)
C18 C17 C16 107.9(3)
C18 C17 H17 126.1
C16 C17 H17 126.1
C17 C18 C19 106.9(3)
C17 C18 H18 126.6
C19 C18 H18 126.6
N23 C19 C20 124.9(2)
N23 C19 C18 108.8(2)
C20 C19 C18 126.0(3)
C19 C20 C1 125.1(3)
C19 C20 C20A 115.0(2)
C1 C20 C20A 119.7(2)
C20B C20A C20F 118.8(3)
C20B C20A C20 122.4(3)
C20F C20A C20 118.8(3)
C20A C20B C20C 120.2(3)
C20A C20B H20B 119.9
C20C C20B H20B 119.9
C20D C20C C20B 120.4(3)
C20D C20C H20C 119.8
C20B C20C H20C 119.8
C20E C20D C20C 119.8(3)
C20E C20D H20D 120.1
C20C C20D H20D 120.1
C20D C20E C20F 120.1(3)
C20D C20E H20E 119.9
C20F C20E H20E 119.9
C20E C20F C20A 120.6(3)
C20E C20F H20F 119.7
C20A C20F H20F 119.7
C1 C21 C4 108.4(2)
C1 C21 Ru1 125.3(2)
C4 C21 Ru1 126.1(2)
C9 N22 C6 107.2(2)
C9 N22 Ru1 129.19(18)
C6 N22 Ru1 123.59(18)
C10D C22 H22A 109.5
C10D C22 H22B 109.5
H22A C22 H22B 109.5
C10D C22 H22C 109.5
H22A C22 H22C 109.5
H22B C22 H22C 109.5
C11 S23 C14 93.65(14)
C11 S23 Ru1 109.71(9)
C14 S23 Ru1 108.86(10)
C16 N23 C19 106.8(2)
C16 N23 Ru1 128.45(18)
C19 N23 Ru1 123.72(17)
C15D C23 H23A 109.5
C15D C23 H23B 109.5
H23A C23 H23B 109.5
C15D C23 H23C 109.5
H23A C23 H23C 109.5
H23B C23 H23C 109.5
O24 C24 Ru1 177.4(3)
Cl2 C25 Cl3 111.8(2)
Cl2 C25 H25A 109.3
Cl3 C25 H25A 109.3
Cl2 C25 H25B 109.3
Cl3 C25 H25B 109.3
H25A C25 H25B 107.9
Cl5 C26 Cl4 113.04(18)
Cl5 C26 H26A 109.0
Cl4 C26 H26A 109.0
Cl5 C26 H26B 109.0
Cl4 C26 H26B 109.0
H26A C26 H26B 107.8
Cl7 C27 Cl6 111.71(19)
Cl7 C27 H27A 109.3
Cl6 C27 H27A 109.3
Cl7 C27 H27B 109.3
Cl6 C27 H27B 109.3
H27A C27 H27B 107.9
Cl9 C28 Cl8 113.8(3)
Cl9 C28 H28A 108.8
Cl8 C28 H28A 108.8
Cl9 C28 H28B 108.8
Cl8 C28 H28B 108.8
H28A C28 H28B 107.7
loop_
_geom_bond_atom_site_label_1
_geom_bond_atom_site_label_2
_geom_bond_distance
Ru1 C24 1.842(3)
Ru1 C21 1.993(3)
Ru1 N22 2.067(2)
Ru1 N23 2.070(2)
Ru1 S23 2.3037(8)
Ru1 Cl1 2.4803(9)
C1 C21 1.423(4)
C1 C20 1.428(4)
C1 C2 1.452(4)
C2 C2A 1.396(4)
C2 C3 1.462(4)
C2A C2B 1.393(4)
C2A H2A 0.9500
C2B C2C 1.384(4)
C2B H2B 0.9500
C2C C3B 1.379(4)
C2C H2C 0.9500
C3 C3A 1.393(4)
C3 C4 1.455(4)
C3A C3B 1.391(4)
C3A H3A 0.9500
C3B H3B 0.9500
C4 C21 1.425(4)
C4 C5 1.425(4)
C5 C6 1.399(4)
C5 C5A 1.499(4)
C5A C5B 1.388(4)
C5A C5F 1.391(4)
C5B C5C 1.392(4)
C5B H5B 0.9500
C5C C5D 1.375(5)
C5C H5C 0.9500
C5D C5E 1.381(4)
C5D H5D 0.9500
C5E C5F 1.394(4)
C5E H5E 0.9500
C5F H5F 0.9500
C6 N22 1.382(3)
C6 C7 1.445(4)
C7 C8 1.346(4)
C7 H7 0.9500
Cl8 C28 1.767(5)
C8 C9 1.439(4)
C8 H8 0.9500
C9 N22 1.371(4)
C9 C10 1.447(4)
C10 C11 1.377(4)
C10 C10A 1.486(4)
C10A C10B 1.390(4)
C10A C10F 1.400(4)
C10B C10C 1.381(4)
C10B H10B 0.9500
C10C C10D 1.392(4)
C10C H10C 0.9500
C10D C10E 1.389(4)
C10D C22 1.502(4)
C10E C10F 1.389(4)
C10E H10E 0.9500
C10F H10F 0.9500
C11 C12 1.428(4)
C11 S23 1.739(3)
C12 C13 1.360(4)
C12 H12 0.9500
C13 C14 1.428(4)
C13 H13 0.9500
C14 C15 1.376(4)
C14 S23 1.747(3)
C15 C16 1.448(4)
C15 C15A 1.490(4)
C15A C15F 1.391(4)
C15A C15B 1.397(4)
C15B C15C 1.384(4)
C15B H15B 0.9500
C15C C15D 1.393(4)
C15C H15C 0.9500
C15D C15E 1.387(4)
C15D C23 1.503(4)
C15E C15F 1.390(4)
C15E H15E 0.9500
C15F H15F 0.9500
C16 N23 1.366(3)
C16 C17 1.430(4)
C17 C18 1.352(4)
C17 H17 0.9500
C18 C19 1.440(4)
C18 H18 0.9500
C19 N23 1.388(4)
C19 C20 1.399(4)
C20 C20A 1.498(4)
C20A C20B 1.387(4)
C20A C20F 1.395(4)
C20B C20C 1.388(4)
C20B H20B 0.9500
C20C C20D 1.382(5)
C20C H20C 0.9500
C20D C20E 1.375(5)
C20D H20D 0.9500
C20E C20F 1.384(4)
C20E H20E 0.9500
C20F H20F 0.9500
C22 H22A 0.9800
C22 H22B 0.9800
C22 H22C 0.9800
C23 H23A 0.9800
C23 H23B 0.9800
C23 H23C 0.9800
O24 C24 1.138(4)
C25 Cl2 1.748(4)
C25 Cl3 1.773(4)
C25 H25A 0.9900
C25 H25B 0.9900
C26 Cl5 1.752(3)
C26 Cl4 1.760(3)
C26 H26A 0.9900
C26 H26B 0.9900
C27 Cl7 1.766(4)
C27 Cl6 1.771(4)
C27 H27A 0.9900
C27 H27B 0.9900
Cl9 C28 1.688(5)
C28 H28A 0.9900
C28 H28B 0.9900
loop_
_geom_torsion_atom_site_label_1
_geom_torsion_atom_site_label_2
_geom_torsion_atom_site_label_3
_geom_torsion_atom_site_label_4
_geom_torsion
C21 C1 C2 C2A -167.2(3)
C20 C1 C2 C2A 15.4(5)
C21 C1 C2 C3 6.9(3)
C20 C1 C2 C3 -170.5(3)
C1 C2 C2A C2B 177.9(3)
C3 C2 C2A C2B 4.9(5)
C2 C2A C2B C2C -2.5(5)
C2A C2B C2C C3B -2.4(5)
C2A C2 C3 C3A -1.7(5)
C1 C2 C3 C3A -175.8(3)
C2A C2 C3 C4 173.7(3)
C1 C2 C3 C4 -0.3(3)
C4 C3 C3A C3B -176.3(3)
C2 C3 C3A C3B -1.7(5)
C2B C2C C3B C3A 3.1(5)
C3 C3A C3B C2C 0.4(6)
C3A C3 C4 C21 169.0(3)
C2 C3 C4 C21 -6.4(3)
C3A C3 C4 C5 -14.5(5)
C2 C3 C4 C5 170.1(3)
C21 C4 C5 C6 -7.4(5)
C3 C4 C5 C6 176.7(3)
C21 C4 C5 C5A 168.9(3)
C3 C4 C5 C5A -7.1(4)
C6 C5 C5A C5B 96.5(3)
C4 C5 C5A C5B -80.1(3)
C6 C5 C5A C5F -81.4(3)
C4 C5 C5A C5F 101.9(3)
C5F C5A C5B C5C -0.1(4)
C5 C5A C5B C5C -178.0(3)
C5A C5B C5C C5D -1.0(4)
C5B C5C C5D C5E 1.1(5)
C5C C5D C5E C5F -0.1(5)
C5B C5A C5F C5E 1.0(4)
C5 C5A C5F C5E 178.9(3)
C5D C5E C5F C5A -0.9(5)
C4 C5 C6 N22 -6.5(5)
C5A C5 C6 N22 177.0(3)
C4 C5 C6 C7 -178.7(3)
C5A C5 C6 C7 4.8(4)
N22 C6 C7 C8 -3.7(3)
C5 C6 C7 C8 169.7(3)
C6 C7 C8 C9 0.8(3)
C7 C8 C9 N22 2.4(3)
C7 C8 C9 C10 -171.1(3)
N22 C9 C10 C11 19.2(5)
C8 C9 C10 C11 -168.6(3)
N22 C9 C10 C10A -154.7(3)
C8 C9 C10 C10A 17.5(4)
C11 C10 C10A C10B -124.2(3)
C9 C10 C10A C10B 50.2(4)
C11 C10 C10A C10F 52.8(4)
C9 C10 C10A C10F -132.7(3)
C10F C10A C10B C10C -0.1(4)
C10 C10A C10B C10C 177.0(3)
C10A C10B C10C C10D -0.2(4)
C10B C10C C10D C10E 0.8(4)
C10B C10C C10D C22 -179.3(3)
C10C C10D C10E C10F -1.0(4)
C22 C10D C10E C10F 179.1(3)
C10D C10E C10F C10A 0.7(4)
C10B C10A C10F C10E -0.1(4)
C10 C10A C10F C10E -177.2(3)
C9 C10 C11 C12 -154.8(3)
C10A C10 C11 C12 19.1(5)
C9 C10 C11 S23 17.5(4)
C10A C10 C11 S23 -168.6(2)
C10 C11 C12 C13 161.0(3)
S23 C11 C12 C13 -12.1(3)
C11 C12 C13 C14 0.9(4)
C12 C13 C14 C15 -165.7(3)
C12 C13 C14 S23 10.7(3)
C13 C14 C15 C16 160.4(3)
S23 C14 C15 C16 -15.6(4)
C13 C14 C15 C15A -16.5(5)
S23 C14 C15 C15A 167.4(2)
C14 C15 C15A C15F 131.6(3)
C16 C15 C15A C15F -45.6(4)
C14 C15 C15A C15B -46.9(4)
C16 C15 C15A C15B 136.0(3)
C15F C15A C15B C15C -0.3(4)
C15 C15A C15B C15C 178.2(3)
C15A C15B C15C C15D -0.7(5)
C15B C15C C15D C15E 1.4(5)
C15B C15C C15D C23 -179.0(3)
C15C C15D C15E C15F -1.1(5)
C23 C15D C15E C15F 179.3(3)
C15D C15E C15F C15A 0.1(5)
C15B C15A C15F C15E 0.6(4)
C15 C15A C15F C15E -177.9(3)
C14 C15 C16 N23 -24.6(5)
C15A C15 C16 N23 152.4(3)
C14 C15 C16 C17 158.0(3)
C15A C15 C16 C17 -25.0(4)
N23 C16 C17 C18 -0.6(3)
C15 C16 C17 C18 177.2(3)
C16 C17 C18 C19 -2.3(3)
C17 C18 C19 N23 4.4(3)
C17 C18 C19 C20 -170.1(3)
N23 C19 C20 C1 0.6(5)
C18 C19 C20 C1 174.2(3)
N23 C19 C20 C20A 176.7(3)
C18 C19 C20 C20A -9.7(4)
C21 C1 C20 C19 16.6(5)
C2 C1 C20 C19 -166.3(3)
C21 C1 C20 C20A -159.3(3)
C2 C1 C20 C20A 17.8(4)
C19 C20 C20A C20B 64.2(4)
C1 C20 C20A C20B -119.5(3)
C19 C20 C20A C20F -113.6(3)
C1 C20 C20A C20F 62.7(4)
C20F C20A C20B C20C -0.7(4)
C20 C20A C20B C20C -178.5(3)
C20A C20B C20C C20D 0.4(5)
C20B C20C C20D C20E 0.3(5)
C20C C20D C20E C20F -0.8(5)
C20D C20E C20F C20A 0.5(5)
C20B C20A C20F C20E 0.3(4)
C20 C20A C20F C20E 178.1(3)
C20 C1 C21 C4 166.5(3)
C2 C1 C21 C4 -11.0(3)
C20 C1 C21 Ru1 -10.3(4)
C2 C1 C21 Ru1 172.17(19)
C5 C4 C21 C1 -165.8(3)
C3 C4 C21 C1 10.8(3)
C5 C4 C21 Ru1 11.0(4)
C3 C4 C21 Ru1 -172.39(19)
C8 C9 N22 C6 -4.7(3)
C10 C9 N22 C6 168.4(3)
C8 C9 N22 Ru1 172.52(19)
C10 C9 N22 Ru1 -14.3(4)
C5 C6 N22 C9 -168.1(3)
C7 C6 N22 C9 5.2(3)
C5 C6 N22 Ru1 14.5(4)
C7 C6 N22 Ru1 -172.26(18)
C10 C11 S23 C14 -158.4(2)
C12 C11 S23 C14 15.5(2)
C10 C11 S23 Ru1 -46.9(3)
C12 C11 S23 Ru1 127.08(18)
C15 C14 S23 C11 161.9(2)
C13 C14 S23 C11 -15.0(2)
C15 C14 S23 Ru1 49.7(3)
C13 C14 S23 Ru1 -127.29(18)
C17 C16 N23 C19 3.3(3)
C15 C16 N23 C19 -174.3(3)
C17 C16 N23 Ru1 -165.06(19)
C15 C16 N23 Ru1 17.3(4)
C20 C19 N23 C16 169.8(3)
C18 C19 N23 C16 -4.7(3)
C20 C19 N23 Ru1 -21.1(4)
C18 C19 N23 Ru1 164.33(18)
