#------------------------------------------------------------------------------
#$Date: 2019-11-23 11:32:56 +0200 (Sat, 23 Nov 2019) $
#$Revision: 233098 $
#$URL: file:///home/coder/svn-repositories/cod/cif/4/34/85/4348563.cif $
#------------------------------------------------------------------------------
#
# This file is available in the Crystallography Open Database (COD),
# http://www.crystallography.net/
#
# All data on this site have been placed in the public domain by the
# contributors.
#
data_4348563
loop_
_publ_author_name
'Hu, Bin'
'He, Mingrui'
'Yao, Zhen'
'Schulz, Charles E.'
'Li, Jianfeng'
_publ_section_title
;
 Unique Axial Imidazole Geometries of Fully Halogenated Iron(II) Porphyrin
 Complexes: Crystal Structures and M\"ossbauer Spectroscopic Studies.
;
_journal_issue                   19
_journal_name_full               'Inorganic chemistry'
_journal_page_first              9632
_journal_page_last               9643
_journal_paper_doi               10.1021/acs.inorgchem.6b01364
_journal_volume                  55
_journal_year                    2016
_chemical_formula_moiety         C54H16Br8F20FeN8
_chemical_formula_sum            'C54 H16 Br8 F20 Fe N8'
_chemical_formula_weight         1851.88
_chemical_name_common            '[FeTFPPBr8(1-EtIm)2]'
_space_group_crystal_system      triclinic
_space_group_IT_number           2
_space_group_name_Hall           '-P 1'
_space_group_name_H-M_alt        'P -1'
_atom_sites_solution_hydrogens   geom
_audit_creation_method           SHELXL-2014/6
_cell_angle_alpha                78.4159(16)
_cell_angle_beta                 63.6903(17)
_cell_angle_gamma                89.2151(16)
_cell_formula_units_Z            2
_cell_length_a                   14.3704(8)
_cell_length_b                   14.3747(7)
_cell_length_c                   15.2954(8)
_cell_measurement_reflns_used    9907
_cell_measurement_temperature    100(2)
_cell_measurement_theta_max      26.7531
_cell_measurement_theta_min      2.7275
_cell_volume                     2764.4(3)
_computing_cell_refinement       'APEX2 (Bruker, 2013)'
_computing_data_collection       'APEX2 (Bruker, 2013)'
_computing_data_reduction        'SAINT (Bruker, 2013)'
_computing_molecular_graphics    'XP (Sheldrick, 2015)'
_computing_publication_material
'XCIF (Sheldrick, 2015)/ enCIFer (CCDC, 2014)'
_computing_structure_refinement  'SHELXL-2014 (Sheldrick, 2015)'
_computing_structure_solution    'SHELXTL-2014 (Sheldrick, 2015)'
_diffrn_ambient_temperature      100(2)
_diffrn_measured_fraction_theta_full 0.999
_diffrn_measured_fraction_theta_max 0.996
_diffrn_measurement_device_type  'Brucker D8 QUEST System'
_diffrn_measurement_method       '\f and \w scans'
_diffrn_radiation_type           MoK\a
_diffrn_radiation_wavelength     0.71073
_diffrn_reflns_av_unetI/netI     0.0666
_diffrn_reflns_Laue_measured_fraction_full 0.999
_diffrn_reflns_Laue_measured_fraction_max 0.996
_diffrn_reflns_limit_h_max       18
_diffrn_reflns_limit_h_min       -16
_diffrn_reflns_limit_k_max       18
_diffrn_reflns_limit_k_min       -17
_diffrn_reflns_limit_l_max       19
_diffrn_reflns_limit_l_min       0
_diffrn_reflns_number            11658
_diffrn_reflns_point_group_measured_fraction_full 0.999
_diffrn_reflns_point_group_measured_fraction_max 0.996
_diffrn_reflns_theta_full        25.242
_diffrn_reflns_theta_max         26.766
_diffrn_reflns_theta_min         2.241
_diffrn_source                   'fine-focus sealed tube'
_exptl_absorpt_coefficient_mu    6.172
_exptl_absorpt_correction_T_max  0.745
_exptl_absorpt_correction_T_min  0.460
_exptl_absorpt_correction_type   multi-scan
_exptl_absorpt_process_details
'Sheldrick, G. M. (2008) SADABS. University of G\"ottingen, Germany.'
_exptl_crystal_colour            purple
_exptl_crystal_density_diffrn    2.225
_exptl_crystal_density_method    'not measured'
_exptl_crystal_description       block
_exptl_crystal_F_000             1764
_exptl_crystal_size_max          0.210
_exptl_crystal_size_mid          0.150
_exptl_crystal_size_min          0.080
_refine_diff_density_max         0.949
_refine_diff_density_min         -1.245
_refine_diff_density_rms         0.210
_refine_ls_extinction_method     none
_refine_ls_goodness_of_fit_ref   1.069
_refine_ls_hydrogen_treatment    constr
_refine_ls_matrix_type           full
_refine_ls_number_parameters     821
_refine_ls_number_reflns         11658
_refine_ls_number_restraints     138
_refine_ls_restrained_S_all      1.068
_refine_ls_R_factor_all          0.0660
_refine_ls_R_factor_gt           0.0467
_refine_ls_shift/su_max          0.001
_refine_ls_shift/su_mean         0.000
_refine_ls_structure_factor_coef Fsqd
_refine_ls_weighting_details
'w=1/[\s^2^(Fo^2^)+(0.0422P)^2^+12.3159P] where P=(Fo^2^+2Fc^2^)/3'
_refine_ls_weighting_scheme      calc
_refine_ls_wR_factor_gt          0.1023
_refine_ls_wR_factor_ref         0.1100
_reflns_Friedel_coverage         0.000
_reflns_number_gt                9902
_reflns_number_total             11658
_reflns_threshold_expression     'I > 2\s(I)'
_cod_data_source_file            ic6b01364_si_005.cif
_cod_data_source_block           twin4
_cod_depositor_comments
;
The following automatic conversions were performed:

data name '__diffrn_source' was replaced with '_diffrn_source'.

Automatic conversion script
Id: cif_correct_tags 6909 2019-04-08 15:41:33Z antanas 
;
_cod_database_code               4348563
_shelx_space_group_comment
;
The symmetry employed for this shelxl refinement is uniquely defined
by the following loop, which should always be used as a source of
symmetry information in preference to the above space-group names.
They are only intended as comments.
;
_shelx_estimated_absorpt_t_min   0.357
_shelx_estimated_absorpt_t_max   0.638
_shelxl_version_number           2014/6
_shelx_res_file
;
TITL hbtwin5 in P-1
CELL 0.71073  14.37040  14.37470  15.29540  78.4159  63.6903  89.2151
ZERR    2.00   0.00080   0.00070   0.00080   0.0016   0.0017   0.0016
LATT 1
SFAC C  H  N  F  Fe Br
UNIT 108  32  16  40  2  16
OMIT 0
L.S. 4
BOND $H
ACTA
FMAP 2
ISOR 0.002 0.002 C(A1 C(A2 C(A3 C(A5 C(A8 N2
ISOR 0.001 0.002 C(M1 C(M3 C1 C4 C22 C27
ISOR 0.002 0.002 C(B3 C(B6 C(B8
ISOR 0.005 0.005 C20 C29 F3 F8 F13 F18
SIMU 0.005 0.005 C(A8 C(B8
SIMU 0.005 0.005 C29 C28
PLAN 50
SIZE 0.08 0.15 0.21
MERG 0
TEMP -173.150
WGHT    0.042200   12.315901
BASF   0.45202
FVAR       0.27257
MOLE 1
FE1   5    0.931142    0.612041    0.254123    11.00000    0.00496    0.00299 =
         0.00807   -0.00104   -0.00482    0.00056
N1    3    0.938416    0.743929    0.273126    11.00000    0.01268    0.00805 =
         0.00785    0.00219   -0.00724    0.00132
N2    3    0.793437    0.629858    0.253485    11.00000    0.00471    0.00393 =
         0.00708   -0.00141   -0.00124   -0.00026
N3    3    0.916010    0.473554    0.253691    11.00000    0.01057    0.00645 =
         0.01151   -0.00346   -0.00839    0.00303
N4    3    1.076191    0.598257    0.235450    11.00000    0.00990    0.00506 =
         0.01214   -0.00439   -0.00951    0.00383
C(A1  1    1.017698    0.788193    0.281460    11.00000    0.00907    0.00717 =
         0.00825   -0.00201   -0.00620   -0.00077
C(A2  1    0.856451    0.802828    0.297325    11.00000    0.00692    0.00547 =
         0.00796   -0.00043   -0.00431   -0.00038
C(A3  1    0.752775    0.716229    0.243744    11.00000    0.00781    0.00788 =
         0.00935   -0.00029   -0.00473   -0.00249
C(A4  1    0.742037    0.565831    0.228928    11.00000    0.00430    0.00909 =
         0.00965   -0.00265   -0.00243   -0.00158
C(A5  1    0.823945    0.426401    0.272764    11.00000    0.00446    0.00412 =
         0.00691   -0.00113   -0.00170    0.00009
C(A6  1    0.978816    0.407454    0.271438    11.00000    0.01463    0.00351 =
         0.00969   -0.00380   -0.00652    0.00347
C(A7  1    1.131821    0.519176    0.217318    11.00000    0.01341    0.01017 =
         0.01063   -0.00541   -0.01052    0.00353
C(A8  1    1.148283    0.673329    0.215170    11.00000    0.00459    0.00576 =
         0.00561   -0.00194   -0.00255   -0.00185
C(B1  1    0.981520    0.871231    0.322355    11.00000    0.01440    0.00564 =
         0.01200    0.00040   -0.00754   -0.00210
C(B2  1    0.884066    0.880237    0.332527    11.00000    0.01122    0.00510 =
         0.01003   -0.00219   -0.00674    0.00464
C(B3  1    0.682646    0.709169    0.199290    11.00000    0.00606    0.00834 =
         0.00814   -0.00003   -0.00364    0.00209
C(B4  1    0.677182    0.618791    0.190559    11.00000    0.00454    0.00921 =
         0.01772   -0.00113   -0.00840   -0.00102
C(B5  1    0.825770    0.325866    0.312464    11.00000    0.01122    0.00583 =
         0.01384    0.00021   -0.00550   -0.00151
C(B6  1    0.919355    0.314496    0.311746    11.00000    0.00808    0.00671 =
         0.00890   -0.00209   -0.00346    0.00311
C(B7  1    1.241453    0.546687    0.178467    11.00000    0.00873    0.00719 =
         0.01225   -0.00123   -0.00652    0.00343
C(B8  1    1.252658    0.640605    0.174856    11.00000    0.00436    0.00793 =
         0.00596   -0.00128   -0.00258    0.00013
C(M1  1    0.773918    0.792612    0.276773    11.00000    0.00938    0.00910 =
         0.01042   -0.00189   -0.00399    0.00170
C(M2  1    0.748363    0.468578    0.248107    11.00000    0.00284    0.01200 =
         0.01071   -0.00361   -0.00246    0.00029
C(M3  1    1.084167    0.427173    0.245135    11.00000    0.00407    0.00488 =
         0.00568   -0.00076   -0.00300    0.00097
C(M4  1    1.121083    0.761175    0.241870    11.00000    0.00617    0.01083 =
         0.00532   -0.00191   -0.00094   -0.00032
BR1   6    1.045988    0.949417    0.367696    11.00000    0.01803    0.01334 =
         0.03336   -0.01520   -0.01830    0.00568
BR2   6    0.802009    0.974217    0.389960    11.00000    0.01615    0.01027 =
         0.02483   -0.01001   -0.01314    0.00606
BR3   6    0.620176    0.806739    0.148198    11.00000    0.02433    0.00953 =
         0.03233   -0.00405   -0.02355    0.00551
BR4   6    0.604425    0.577823    0.126798    11.00000    0.01759    0.01110 =
         0.02325   -0.00371   -0.01667    0.00128
BR5   6    0.716631    0.229891    0.368675    11.00000    0.01155    0.00760 =
         0.02842    0.00166   -0.01054   -0.00247
BR6   6    0.950988    0.196667    0.366450    11.00000    0.01631    0.00694 =
         0.03194    0.00341   -0.01521   -0.00090
BR7   6    1.355020    0.474107    0.127085    11.00000    0.00874    0.01216 =
         0.02800   -0.00917   -0.00840    0.00351
BR8   6    1.383551    0.707303    0.123245    11.00000    0.01120    0.01488 =
         0.02472   -0.00425   -0.00943    0.00011
C1    1    0.699913    0.870756    0.290668    11.00000    0.00722    0.00800 =
         0.00806   -0.00188   -0.00379    0.00066
C2    1    0.723978    0.955110    0.220223    11.00000    0.00359    0.01817 =
         0.01756   -0.00928   -0.00155    0.00029
C3    1    0.658554    1.026979    0.233876    11.00000    0.01425    0.00181 =
         0.01977   -0.00163   -0.00754    0.00219
C4    1    0.566024    1.015329    0.321243    11.00000    0.01200    0.01181 =
         0.01305   -0.00324   -0.00590    0.00159
C5    1    0.539808    0.933065    0.392048    11.00000    0.00958    0.01381 =
         0.02214   -0.01298   -0.00620    0.00198
C6    1    0.606202    0.860438    0.375586    11.00000    0.00693    0.00647 =
         0.01868   -0.00254   -0.00413   -0.00174
C7    1    0.674017    0.406539    0.237463    11.00000    0.01223    0.00329 =
         0.02041   -0.00171   -0.01049    0.00010
C8    1    0.703684    0.370891    0.152399    11.00000    0.00949    0.01046 =
         0.01578    0.00255   -0.00699   -0.00328
C9    1    0.639036    0.314407    0.135838    11.00000    0.03666    0.00873 =
         0.01847   -0.00363   -0.02117    0.00442
C10   1    0.536543    0.295284    0.209062    11.00000    0.02259    0.00549 =
         0.03962    0.00299   -0.02642   -0.00360
C11   1    0.501704    0.328996    0.296158    11.00000    0.01318    0.02136 =
         0.02956    0.00466   -0.01467   -0.00133
C12   1    0.571330    0.382470    0.308446    11.00000    0.02299    0.00740 =
         0.01493    0.00168   -0.01370    0.00383
C13   1    1.144286    0.344388    0.257501    11.00000    0.00483    0.00548 =
         0.01457    0.00271   -0.00699   -0.00100
C14   1    1.188041    0.289825    0.186870    11.00000    0.01093    0.01442 =
         0.01931   -0.00423   -0.00665   -0.00097
C15   1    1.238412    0.209388    0.202712    11.00000    0.02050    0.01002 =
         0.02011   -0.00701   -0.00803    0.00557
C16   1    1.244424    0.183050    0.290734    11.00000    0.01377    0.00617 =
         0.02677   -0.00385   -0.00796    0.00610
C17   1    1.202701    0.235553    0.363229    11.00000    0.01635    0.01360 =
         0.01544    0.00159   -0.01263   -0.00052
C18   1    1.153516    0.314962    0.344798    11.00000    0.01526    0.00793 =
         0.02325   -0.00604   -0.01243    0.00089
C19   1    1.206336    0.830727    0.224798    11.00000    0.00740    0.00254 =
         0.01947   -0.00233   -0.00775   -0.00030
C20   1    1.251671    0.899467    0.136629    11.00000    0.01072    0.00559 =
         0.01055   -0.00525   -0.00541    0.00215
C21   1    1.335303    0.961157    0.114339    11.00000    0.01505    0.01370 =
         0.01813   -0.00852    0.00033    0.00816
C22   1    1.374945    0.956217    0.182886    11.00000    0.01589    0.01596 =
         0.01747   -0.00505   -0.00681    0.00032
C23   1    1.331190    0.890195    0.270552    11.00000    0.01598    0.01797 =
         0.02430   -0.01148   -0.01475    0.00529
C24   1    1.247490    0.828193    0.291302    11.00000    0.01087    0.00997 =
         0.01240   -0.00539   -0.00457    0.00216
F1    4    0.812581    0.966446    0.134976    11.00000    0.01625    0.01321 =
         0.01624   -0.00130   -0.00243    0.00423
F2    4    0.682767    1.107733    0.163939    11.00000    0.02542    0.01279 =
         0.02357    0.00168   -0.01107    0.00695
F3    4    0.502780    1.086349    0.335989    11.00000    0.02081    0.01750 =
         0.03578   -0.01043   -0.01504    0.01506
F4    4    0.450550    0.923202    0.477076    11.00000    0.01073    0.01970 =
         0.02303   -0.01043   -0.00166    0.00170
F5    4    0.578605    0.780166    0.446924    11.00000    0.01611    0.00941 =
         0.01764    0.00008   -0.00350    0.00094
F6    4    0.802362    0.394393    0.077407    11.00000    0.01920    0.01956 =
         0.02075   -0.00747   -0.00818    0.00413
F7    4    0.672253    0.282632    0.053010    11.00000    0.04651    0.01810 =
         0.03246   -0.00992   -0.02935   -0.00023
F8    4    0.470034    0.241769    0.194137    11.00000    0.03680    0.02521 =
         0.04636   -0.00380   -0.03216   -0.00863
F9    4    0.403065    0.307659    0.365837    11.00000    0.01689    0.03335 =
         0.04052    0.00647   -0.01723   -0.01377
F10   4    0.536150    0.414528    0.394012    11.00000    0.01199    0.02813 =
         0.02074   -0.00333   -0.01001   -0.00148
F11   4    1.185177    0.314816    0.098949    11.00000    0.02611    0.01850 =
         0.01837   -0.00828   -0.01460    0.00793
F12   4    1.281488    0.158488    0.131209    11.00000    0.03627    0.02037 =
         0.03025   -0.01698   -0.01330    0.01731
F13   4    1.290735    0.103484    0.307723    11.00000    0.02486    0.01355 =
         0.03589   -0.00121   -0.01275    0.01313
F14   4    1.207280    0.209612    0.450032    11.00000    0.02394    0.02113 =
         0.01930    0.00487   -0.01297    0.00459
F15   4    1.109182    0.363016    0.418609    11.00000    0.02409    0.02030 =
         0.01540   -0.00603   -0.01370    0.00609
F16   4    1.215177    0.905405    0.068467    11.00000    0.02212    0.01538 =
         0.01953    0.00123   -0.01202    0.00107
F17   4    1.380851    1.023566    0.026210    11.00000    0.02504    0.01017 =
         0.02000    0.00330   -0.00163   -0.00373
F18   4    1.457079    1.015378    0.161629    11.00000    0.01207    0.02160 =
         0.03784   -0.00863   -0.00839   -0.00863
F19   4    1.367912    0.886917    0.338003    11.00000    0.02504    0.02800 =
         0.03476   -0.01061   -0.02432    0.00106
F20   4    1.206505    0.764908    0.378183    11.00000    0.02424    0.01781 =
         0.01857    0.00079   -0.01481   -0.00428
N5    3    0.985594    0.655746    0.106689    11.00000    0.01054    0.00802 =
         0.00989   -0.00304   -0.00811    0.00255
N6    3    1.029029    0.752178   -0.039264    11.00000    0.01080    0.00883 =
         0.00935    0.00242   -0.00219    0.00184
C25   1    1.023717    0.742491    0.052631    11.00000    0.02035    0.00886 =
         0.00991   -0.00446   -0.00532   -0.00153
AFIX  43
H25   2    1.044613    0.791523    0.075252    11.00000   -1.20000
AFIX   0
C26   1    0.992892    0.667053   -0.043667    11.00000    0.01076    0.01532 =
         0.01275   -0.00578   -0.00710    0.00135
AFIX  43
H26   2    0.986753    0.652328   -0.098822    11.00000   -1.20000
AFIX   0
C27   1    0.967175    0.606927    0.046509    11.00000    0.00799    0.00792 =
         0.00838   -0.00213   -0.00360   -0.00016
AFIX  43
H27   2    0.940882    0.542039    0.064680    11.00000   -1.20000
AFIX   0
C28   1    1.058696    0.840565   -0.116013    11.00000    0.03206    0.01417 =
         0.01856    0.00561   -0.01230   -0.00163
AFIX  23
H28A  2    1.090485    0.824948   -0.182871    11.00000   -1.20000
H28B  2    1.111618    0.879908   -0.111303    11.00000   -1.20000
AFIX   0
C29   1    0.966714    0.897008   -0.104975    11.00000    0.03421    0.01851 =
         0.02536    0.00687   -0.01255    0.00570
AFIX  33
H29A  2    0.989636    0.955404   -0.157479    11.00000   -1.50000
H29B  2    0.914722    0.858732   -0.110895    11.00000   -1.50000
H29C  2    0.935846    0.913669   -0.039357    11.00000   -1.50000
AFIX   0
N7    3    0.867591    0.561975    0.401544    11.00000    0.00818    0.00629 =
         0.01237   -0.00333   -0.00577   -0.00065
N8    3    0.746194    0.488074    0.549470    11.00000    0.01163    0.01367 =
         0.01266    0.00105   -0.00629   -0.00329
C30   1    0.766080    0.551245    0.463374    11.00000    0.00614    0.01216 =
         0.01104   -0.00254   -0.00184    0.00642
AFIX  43
H30   2    0.714626    0.583479    0.449076    11.00000   -1.20000
AFIX   0
C31   1    0.839655    0.457352    0.542050    11.00000    0.01929    0.00730 =
         0.01832   -0.00574   -0.01101    0.00414
AFIX  43
H31   2    0.850530    0.412545    0.590779    11.00000   -1.20000
AFIX   0
C32   1    0.913789    0.503904    0.450862    11.00000    0.01461    0.00578 =
         0.01130   -0.00215   -0.00647    0.00169
AFIX  43
H32   2    0.986430    0.497183    0.425303    11.00000   -1.20000
AFIX   0
C33   1    0.642582    0.448437    0.628998    11.00000    0.01266    0.03059 =
         0.00962    0.00251   -0.00320   -0.00262
AFIX  23
H33A  2    0.596303    0.500741    0.643826    11.00000   -1.20000
H33B  2    0.648645    0.419282    0.690450    11.00000   -1.20000
AFIX   0
C34   1    0.594810    0.375329    0.601046    11.00000    0.01108    0.03113 =
         0.03223   -0.00223   -0.00292   -0.01279
AFIX  33
H34A  2    0.526097    0.350988    0.656080    11.00000   -1.50000
H34B  2    0.587283    0.404177    0.541024    11.00000   -1.50000
H34C  2    0.639621    0.322724    0.587645    11.00000   -1.50000
AFIX   0
HKLF 5

REM  hbtwin5 in P-1
REM R1 =  0.0467 for    9902 Fo > 4sig(Fo)  and  0.0660 for all   11658 data
REM    821 parameters refined using    138 restraints

END

WGHT      0.0422     12.3159

REM Highest difference peak  0.949,  deepest hole -1.245,  1-sigma level  0.210
Q1    1   1.3629  0.9722  0.1577  11.00000  0.05    0.95
Q2    1   0.7208  0.1238  0.3853  11.00000  0.05    0.91
Q3    1   0.6043  0.6834  0.1132  11.00000  0.05    0.90
Q4    1   0.8985  0.7794 -0.1216  11.00000  0.05    0.88
Q5    1   1.0353  0.9055  0.3331  11.00000  0.05    0.87
Q6    1   1.2443  0.2389  0.3915  11.00000  0.05    0.86
Q7    1   1.0589  0.9011  0.4656  11.00000  0.05    0.86
Q8    1   0.7604  0.5957  0.2531  11.00000  0.05    0.84
Q9    1   0.9355  0.2901  0.3503  11.00000  0.05    0.81
Q10   1   1.1061  0.9542 -0.1608  11.00000  0.05    0.79
Q11   1   1.0432  1.0459  0.3527  11.00000  0.05    0.79
Q12   1   0.9658  0.9068  0.3870  11.00000  0.05    0.79
Q13   1   1.2520  0.6090  0.1380  11.00000  0.05    0.78
Q14   1   0.9630  0.7040  0.3722  11.00000  0.05    0.78
Q15   1   0.8820  0.5864  0.3493  11.00000  0.05    0.78
Q16   1   1.3664  0.2930  0.0146  11.00000  0.05    0.77
Q17   1   0.8797  0.1234  0.4587  11.00000  0.05    0.77
Q18   1   0.7199  0.6709  0.1347  11.00000  0.05    0.77
Q19   1   0.6031  0.3633  0.3038  11.00000  0.05    0.76
Q20   1   1.4854  0.7061  0.1628  11.00000  0.05    0.76
Q21   1   0.7956  0.9283  0.5055  11.00000  0.05    0.76
Q22   1   1.3797  0.8750  0.2303  11.00000  0.05    0.75
Q23   1   0.6792  0.5069  0.0522  11.00000  0.05    0.75
Q24   1   1.0621  0.7270  0.2424  11.00000  0.05    0.75
Q25   1   0.9998  0.5279  0.3595  11.00000  0.05    0.74
Q26   1   0.8804  0.2970  0.2618  11.00000  0.05    0.74
Q27   1   0.6649  0.2412  0.4050  11.00000  0.05    0.74
Q28   1   1.0218  0.5276  0.4216  11.00000  0.05    0.74
Q29   1   1.1172  0.8775  0.1212  11.00000  0.05    0.74
Q30   1   0.7384  0.9457  0.0946  11.00000  0.05    0.74
Q31   1   0.7384  0.9603  0.4780  11.00000  0.05    0.73
Q32   1   0.9191  0.3616  0.6220  11.00000  0.05    0.73
Q33   1   0.8789  0.3923  0.1790  11.00000  0.05    0.73
Q34   1   1.3769  1.0140 -0.0718  11.00000  0.05    0.73
Q35   1   0.5752  0.9809  0.3663  11.00000  0.05    0.73
Q36   1   0.9392  0.6966  0.1551  11.00000  0.05    0.73
Q37   1   0.8997  1.0205 -0.1913  11.00000  0.05    0.73
Q38   1   0.6631  0.2767  0.1591  11.00000  0.05    0.72
Q39   1   1.0439  0.5850  0.2329  11.00000  0.05    0.72
Q40   1   0.7003  0.6061  0.3351  11.00000  0.05    0.71
Q41   1   1.0634  0.2923  0.5038  11.00000  0.05    0.71
Q42   1   0.6850  1.1208  0.2583  11.00000  0.05    0.71
Q43   1   1.2968  0.9496  0.4617  11.00000  0.05    0.70
Q44   1   0.6782  1.0090  0.2781  11.00000  0.05    0.70
Q45   1   0.5889  0.6199  0.2422  11.00000  0.05    0.70
Q46   1   1.0340  0.6189  0.1710  11.00000  0.05    0.70
Q47   1   0.6619  0.6560  0.2340  11.00000  0.05    0.69
Q48   1   1.0199  0.6950  0.2126  11.00000  0.05    0.69
Q49   1   1.5015  0.7463  0.1287  11.00000  0.05    0.69
Q50   1   1.4030  0.5652 -0.0326  11.00000  0.05    0.69
;
_shelx_res_checksum              24917
_shelx_hkl_file
;
   2   0   0 146.396 4.50062   1
   3   0   0 1596.82 44.3607   1
   4   0   4 428.169 27.4753  -2
   4   0   0 428.169 27.4753   1
   5   0   5 1443.58 88.6099  -2
   5   0   0 1443.58 88.6099   1
   6   0   6 261.035 20.6700  -2
   6   0   0 261.035 20.6700   1
   7   0   0 1188.80 34.1815   1
   8   0   0 10.8639 3.27715   1
   9   0   8 3202.41 194.198  -2
   9   0   0 3202.41 194.198   1
  10   0   9 217.497 16.8698  -2
  10   0   0 217.497 16.8698   1
  11   0  10 20.3780 14.0225  -2
  11   0   0 20.3780 14.0225   1
  12   0  11 763.069 29.6452  -2
  12   0   0 763.069 29.6452   1
  13   0  12 26.6227 13.5829  -2
  13   0   0 26.6227 13.5829   1
  14   0  13 22.0133 13.5510  -2
  14   0   0 22.0133 13.5510   1
  15   0  14 86.5678 25.4027  -2
  15   0   0 86.5678 25.4027   1
  16   0  15 -6.2459 37.2630  -2
  16   0   0 -6.2459 37.2630   1
 -16   1   0 61.4430 18.1132   1
  15  -1  14 73.5871 31.0698  -2
 -15   1   0 73.5871 31.0698   1
  14  -1  13 103.812 19.8286  -2
 -14   1   0 103.812 19.8286   1
  13  -1  12 85.4903 15.8045  -2
 -13   1   0 85.4903 15.8045   1
  12  -1  11 688.653 31.3300  -2
 -12   1   0 688.653 31.3300   1
  11  -1  10 82.2957 11.1887  -2
 -11   1   0 82.2957 11.1887   1
  10  -1   9 16.1369 8.11567  -2
 -10   1   0 16.1369 8.11567   1
   9  -1   8 73.6780 8.57671  -2
  -9   1   0 73.6780 8.57671   1
   8  -1   7 1433.15 45.9736  -2
  -8   1   0 1433.15 45.9736   1
   7  -1   6 340.946 13.3627  -2
  -7   1   0 340.946 13.3627   1
   6  -1   5 131.081 10.6814  -2
  -6   1   0 131.081 10.6814   1
   5  -1   4 1892.20 114.628  -2
  -5   1   0 1892.20 114.628   1
  -4   1   0 40.1051 2.27855   1
  -3   1   0 4.85512 1.08293   1
  -2   1   0 7.89244 0.77794   1
   1   1   0 9.84405 1.30298   1
   2   1   0 13.7413 1.24054   1
   3   1   0 50.9427 2.88439   1
   4   1   4 5920.67 368.383  -2
   4   1   0 5920.67 368.383   1
   5   1   5 577.766 19.4230  -2
   5   1   0 577.766 19.4230   1
   6   1   6 95.9745 6.14355  -2
   6   1   0 95.9745 6.14355   1
   7   1   7 637.166 21.7601  -2
   7   1   0 637.166 21.7601   1
   8   1   8 429.092 16.2960  -2
   8   1   0 429.092 16.2960   1
   9   1   9 107.415 11.0378  -2
   9   1   0 107.415 11.0378   1
  10   1  10 22.5949 11.8673  -2
  10   1   0 22.5949 11.8673   1
  11   1  11 176.691 15.2576  -2
  11   1   0 176.691 15.2576   1
  12   1  12 468.327 26.2085  -2
  12   1   0 468.327 26.2085   1
  13   1  13 397.795 32.9093  -2
  13   1   0 397.795 32.9093   1
  14   1   0 50.1684 11.6494   1
  15   1   0 30.5254 13.1376   1
  16   1   0 4.01891 15.8849   1
  16  -2  14 -24.516 38.5098  -2
 -16   2   0 -24.516 38.5098   1
  15  -2  13 35.6059 17.7774  -2
 -15   2   0 35.6059 17.7774   1
  14  -2  12 243.406 23.5513  -2
 -14   2   0 243.406 23.5513   1
  13  -2  11 1071.34 51.7582  -2
 -13   2   0 1071.34 51.7582   1
  12  -2  10 1880.95 85.0011  -2
 -12   2   0 1880.95 85.0011   1
 -11   2   0 319.113 12.7631   1
 -10   2   0 327.260 11.7466   1
   9  -2   8 588.565 42.1671  -2
  -9   2   0 588.565 42.1671   1
   8  -2   7 117.033 19.2699  -2
  -8   2   0 117.033 19.2699   1
   7  -2   6 685.893 33.0961  -2
  -7   2   0 685.893 33.0961   1
   6  -2   5 75.7796 7.12872  -2
  -6   2   0 75.7796 7.12872   1
   5  -2   4 453.243 15.3241  -2
  -5   2   0 453.243 15.3241   1
   4  -2   3 4887.17 122.786  -2
  -4   2   0 4887.17 122.786   1
   3  -2   2 805.581 25.2276  -2
  -3   2   0 805.581 25.2276   1
   2  -2   1 468.124 13.2854  -2
  -2   2   0 468.124 13.2854   1
  -1   2   0 68.2938 2.58804  -2
  -1   2   0 68.2938 2.58804   1
   0   2   0 23.6459 1.12607   1
   1   2   2 68.1040 2.93023  -2
   1   2   0 68.1040 2.93023   1
   2   2   3 931.389 57.8768  -2
   2   2   0 931.389 57.8768   1
   3   2   0 82.1468 3.82963   1
   4   2   0 351.206 12.1367   1
   5   2   0 213.397 8.43574   1
   6   2   0 510.515 15.6925   1
   7   2   0 88.5611 5.71284   1
   8   2   8 212.778 21.6498  -2
   8   2   0 212.778 21.6498   1
   9   2   9 396.725 37.6915  -2
   9   2   0 396.725 37.6915   1
  10   2  10 67.1609 10.5468  -2
  10   2   0 67.1609 10.5468   1
  11   2  11 285.650 15.3940  -2
  11   2   0 285.650 15.3940   1
  12   2  12 1.22197 11.2239  -2
  12   2   0 1.22197 11.2239   1
  13   2  13 513.728 22.3461  -2
  13   2   0 513.728 22.3461   1
  14   2  14 550.740 28.7658  -2
  14   2   0 550.740 28.7658   1
  15   2  15 380.983 36.4611  -2
  15   2   0 380.983 36.4611   1
  16  -3  14 202.646 44.9814  -2
 -16   3   0 202.646 44.9814   1
  15  -3  13 254.452 19.6075  -2
 -15   3   0 254.452 19.6075   1
  14  -3  12 428.212 21.1881  -2
 -14   3   0 428.212 21.1881   1
  13  -3  11 23.7396 10.3087  -2
 -13   3   0 23.7396 10.3087   1
  12  -3  10 211.596 12.6484  -2
 -12   3   0 211.596 12.6484   1
  11  -3   9 265.988 15.4950  -2
 -11   3   0 265.988 15.4950   1
  10  -3   8 82.6353 9.70557  -2
 -10   3   0 82.6353 9.70557   1
   9  -3   7 288.463 13.5055  -2
  -9   3   0 288.463 13.5055   1
   8  -3   6 79.9714 9.02392  -2
  -8   3   0 79.9714 9.02392   1
   7  -3   5 471.558 23.1646  -2
  -7   3   0 471.558 23.1646   1
   6  -3   4 284.932 22.0504  -2
  -6   3   0 284.932 22.0504   1
  -5   3   0 158.620 5.24001   1
  -4   3   0 410.410 10.9696   1
  -3   3   0 302.549 8.05303   1
  -2   3   0 194.144 5.16607   1
  -1   3   0 430.242 19.4156  -2
  -1   3   0 430.242 19.4156   1
   0   3   0 12.7093 0.86052   1
   1   3   2 486.348 15.5736  -2
   1   3   0 486.348 15.5736   1
   2   3   3 379.069 12.5428  -2
   2   3   0 379.069 12.5428   1
   3   3   4 5137.61 142.507  -2
   3   3   0 5137.61 142.507   1
   4   3   5 698.129 26.2553  -2
   4   3   0 698.129 26.2553   1
   5   3   6 908.094 26.4559  -2
   5   3   0 908.094 26.4559   1
   6   3   7 491.638 17.9697  -2
   6   3   0 491.638 17.9697   1
   7   3   8 863.645 41.0928  -2
   7   3   0 863.645 41.0928   1
   8   3   9 2059.27 93.8902  -2
   8   3   0 2059.27 93.8902   1
   9   3  10 140.005 23.8921  -2
   9   3   0 140.005 23.8921   1
  10   3  11 787.274 61.8193  -2
  10   3   0 787.274 61.8193   1
  11   3   0 212.023 10.5299   1
  12   3  12 159.298 26.7494  -2
  12   3   0 159.298 26.7494   1
  13   3  13 181.539 20.7970  -2
  13   3   0 181.539 20.7970   1
  14   3  14 99.8299 25.1359  -2
  14   3   0 99.8299 25.1359   1
  16  -4  13 33.5522 32.4262  -2
 -16   4   0 33.5522 32.4262   1
  15  -4  12 -32.048 28.8348  -2
 -15   4   0 -32.048 28.8348   1
  14  -4  11 137.552 34.9942  -2
 -14   4   0 137.552 34.9942   1
 -13   4   0 149.715 10.1541   1
  12  -4  10 110.596 25.6239  -2
 -12   4   0 110.596 25.6239   1
  11  -4   9 112.521 18.0603  -2
 -11   4   0 112.521 18.0603   1
  10  -4   8 156.963 15.6204  -2
 -10   4   0 156.963 15.6204   1
   9  -4   7 341.615 15.2012  -2
  -9   4   0 341.615 15.2012   1
   8  -4   6 88.3924 7.36443  -2
  -8   4   0 88.3924 7.36443   1
   7  -4   5 549.477 19.0039  -2
  -7   4   0 549.477 19.0039   1
   6  -4   4 556.485 18.5277  -2
  -6   4   0 556.485 18.5277   1
   5  -4   3 1076.96 33.8563  -2
  -5   4   0 1076.96 33.8563   1
   4  -4   2 36.1515 3.12331  -2
  -4   4   0 36.1515 3.12331   1
   3  -4   1 2837.87 87.1335  -2
  -3   4   0 2837.87 87.1335   1
  -2   4   0 2027.09 63.0807  -2
  -2   4   0 2027.09 63.0807   1
  -1   4   1 1348.24 47.8685  -2
  -1   4   0 1348.24 47.8685   1
   0   4   2 452.050 30.1170  -2
   0   4   0 452.050 30.1170   1
   1   4   0 27.9418 1.63138   1
   2   4   0 3872.22 97.6943   1
   3   4   0 1188.13 30.6704   1
   4   4   0 13.4124 2.15245   1
   5   4   6 51.6579 8.57091  -2
   5   4   0 51.6579 8.57091   1
   6   4   7 1339.23 49.7597  -2
   6   4   0 1339.23 49.7597   1
   7   4   8 1855.85 59.2926  -2
   7   4   0 1855.85 59.2926   1
   8   4   9 21.8160 9.63148  -2
   8   4   0 21.8160 9.63148   1
   9   4  10 319.540 12.7085  -2
   9   4   0 319.540 12.7085   1
  10   4  11 319.375 15.1226  -2
  10   4   0 319.375 15.1226   1
  11   4  12 573.412 20.1579  -2
  11   4   0 573.412 20.1579   1
  12   4  13 757.782 33.8713  -2
  12   4   0 757.782 33.8713   1
  13   4  14 177.896 18.1259  -2
  13   4   0 177.896 18.1259   1
  14   4  15 184.039 29.5665  -2
  14   4   0 184.039 29.5665   1
  15   4  16 54.8552 24.1905  -2
  15   4   0 54.8552 24.1905   1
  15  -5  12 152.556 17.5851  -2
 -15   5   0 152.556 17.5851   1
  14  -5  11 120.188 12.5656  -2
 -14   5   0 120.188 12.5656   1
  13  -5  10 157.667 15.8944  -2
 -13   5   0 157.667 15.8944   1
  12  -5   9 89.5339 12.4980  -2
 -12   5   0 89.5339 12.4980   1
  11  -5   8 112.421 13.9819  -2
 -11   5   0 112.421 13.9819   1
  10  -5   7 621.284 25.7247  -2
 -10   5   0 621.284 25.7247   1
   9  -5   6 965.678 65.6390  -2
  -9   5   0 965.678 65.6390   1
   8  -5   5 2896.39 175.968  -2
  -8   5   0 2896.39 175.968   1
  -7   5   0 133.559 5.50092   1
  -6   5   0 149.160 5.42159   1
   5  -5   3 345.153 24.1987  -2
  -5   5   0 345.153 24.1987   1
   4  -5   2 746.728 33.3617  -2
  -4   5   0 746.728 33.3617   1
   3  -5   1 1337.75 48.3080  -2
  -3   5   0 1337.75 48.3080   1
  -2   5   0 50.3126 3.85837  -2
  -2   5   0 50.3126 3.85837   1
  -1   5   1 992.780 43.6476  -2
  -1   5   0 992.780 43.6476   1
   0   5   2 1453.74 52.4726  -2
   0   5   0 1453.74 52.4726   1
   1   5   3 5906.65 182.531  -2
   1   5   0 5906.65 182.531   1
   2   5   4 809.062 21.1472  -2
   2   5   0 809.062 21.1472   1
   3   5   5 33.0033 3.42045  -2
   3   5   0 33.0033 3.42045   1
   4   5   6 1618.06 59.4695  -2
   4   5   0 1618.06 59.4695   1
   5   5   7 726.564 29.1416  -2
   5   5   0 726.564 29.1416   1
   6   5   8 812.924 32.9200  -2
   6   5   0 812.924 32.9200   1
   7   5   9 106.645 13.6800  -2
   7   5   0 106.645 13.6800   1
   8   5   0 7.19401 3.82971   1
   9   5   0 54.8668 5.74950   1
  10   5   0 41.9847 5.87641   1
  11   5  12 132.536 21.9830  -2
  11   5   0 132.536 21.9830   1
  12   5  13 261.201 19.0362  -2
  12   5   0 261.201 19.0362   1
  13   5  14 281.844 20.3618  -2
  13   5   0 281.844 20.3618   1
  14   5  15 175.458 23.7661  -2
  14   5   0 175.458 23.7661   1
  15   5  16 65.8703 25.6251  -2
  15   5   0 65.8703 25.6251   1
 -15   6   0 95.9429 10.8627   1
  14  -6  11 397.730 19.1819  -2
 -14   6   0 397.730 19.1819   1
  13  -6  10 -28.553 12.5803  -2
 -13   6   0 -28.553 12.5803   1
  12  -6   9 114.104 13.0840  -2
 -12   6   0 114.104 13.0840   1
  11  -6   8 484.640 17.6836  -2
 -11   6   0 484.640 17.6836   1
  10  -6   7 942.789 28.4317  -2
 -10   6   0 942.789 28.4317   1
   9  -6   6 13.4271 6.11174  -2
  -9   6   0 13.4271 6.11174   1
   8  -6   5 248.679 9.60835  -2
  -8   6   0 248.679 9.60835   1
   7  -6   4 1642.63 51.4781  -2
  -7   6   0 1642.63 51.4781   1
   6  -6   3 687.203 20.1145  -2
  -6   6   0 687.203 20.1145   1
   5  -6   2 119.501 5.47659  -2
  -5   6   0 119.501 5.47659   1
   4  -6   1 2970.18 105.012  -2
  -4   6   0 2970.18 105.012   1
  -3   6   0 58.6024 7.08310  -2
  -3   6   0 58.6024 7.08310   1
  -2   6   1 461.207 30.0550  -2
  -2   6   0 461.207 30.0550   1
  -1   6   0 335.070 11.2856   1
   0   6   0 119.104 4.72888   1
   1   6   0 28.2995 1.88306   1
   2   6   4 594.971 22.4153  -2
   2   6   0 594.971 22.4153   1
   3   6   5 117.885 6.83146  -2
   3   6   0 117.885 6.83146   1
   4   6   6 334.330 13.5412  -2
   4   6   0 334.330 13.5412   1
   5   6   7 1933.19 61.1454  -2
   5   6   0 1933.19 61.1454   1
   6   6   8 369.447 16.2671  -2
   6   6   0 369.447 16.2671   1
   7   6   9 56.2912 7.33966  -2
   7   6   0 56.2912 7.33966   1
   8   6  10 731.448 29.7883  -2
   8   6   0 731.448 29.7883   1
   9   6  11 347.151 19.6075  -2
   9   6   0 347.151 19.6075   1
  10   6  12 103.857 12.8238  -2
  10   6   0 103.857 12.8238   1
  11   6  13 -15.851 16.7373  -2
  11   6   0 -15.851 16.7373   1
  12   6  14 330.535 20.6653  -2
  12   6   0 330.535 20.6653   1
  13   6  15 125.316 28.5472  -2
  13   6   0 125.316 28.5472   1
  14   6  16 35.2424 30.4886  -2
  14   6   0 35.2424 30.4886   1
  15  -7  11 252.194 30.7249  -2
 -15   7   0 252.194 30.7249   1
  14  -7  10 254.168 19.4124  -2
 -14   7   0 254.168 19.4124   1
  13  -7   9 314.203 17.3750  -2
 -13   7   0 314.203 17.3750   1
  12  -7   8 2003.11 64.1562  -2
 -12   7   0 2003.11 64.1562   1
  11  -7   7 356.946 20.4723  -2
 -11   7   0 356.946 20.4723   1
 -10   7   0 153.827 7.78410   1
  -9   7   0 0.87813 3.04527   1
  -8   7   0 22.7516 3.09215   1
   7  -7   4 15.7554 7.81235  -2
  -7   7   0 15.7554 7.81235   1
   6  -7   3 99.2900 6.40382  -2
  -6   7   0 99.2900 6.40382   1
   5  -7   2 239.641 9.23871  -2
  -5   7   0 239.641 9.23871   1
   4  -7   1 2629.07 80.8129  -2
  -4   7   0 2629.07 80.8129   1
  -3   7   0 1821.60 56.2593  -2
  -3   7   0 1821.60 56.2593   1
  -2   7   1 1075.00 33.9471  -2
  -2   7   0 1075.00 33.9471   1
  -1   7   2 146.544 6.87001  -2
  -1   7   0 146.544 6.87001   1
   0   7   3 193.039 7.77234  -2
   0   7   0 193.039 7.77234   1
   1   7   4 3547.24 110.535  -2
   1   7   0 3547.24 110.535   1
   2   7   5 521.242 20.6457  -2
   2   7   0 521.242 20.6457   1
   3   7   6 654.100 22.3149  -2
   3   7   0 654.100 22.3149   1
   4   7   7 19.0866 7.35178  -2
   4   7   0 19.0866 7.35178   1
   5   7   0 1659.56 47.3890   1
   6   7   0 3.59804 3.35588   1
   7   7   0 20.3663 4.42789   1
   8   7  10 192.078 22.5593  -2
   8   7   0 192.078 22.5593   1
   9   7  11 367.923 19.9121  -2
   9   7   0 367.923 19.9121   1
  10   7  12 1209.42 41.9335  -2
  10   7   0 1209.42 41.9335   1
  11   7  13 205.487 17.3174  -2
  11   7   0 205.487 17.3174   1
  12   7  14 173.016 14.5763  -2
  12   7   0 173.016 14.5763   1
  13   7  15 255.541 22.6010  -2
  13   7   0 255.541 22.6010   1
  14   7  16 356.928 30.0448  -2
  14   7   0 356.928 30.0448   1
  15  -8  11 -12.198 45.2716  -2
 -15   8   0 -12.198 45.2716   1
  14  -8  10 41.5069 12.3317  -2
 -14   8   0 41.5069 12.3317   1
  13  -8   9 43.2914 10.8766  -2
 -13   8   0 43.2914 10.8766   1
  12  -8   8 76.6587 9.25553  -2
 -12   8   0 76.6587 9.25553   1
  11  -8   7 321.200 14.8742  -2
 -11   8   0 321.200 14.8742   1
  10  -8   6 3.35836 6.47402  -2
 -10   8   0 3.35836 6.47402   1
   9  -8   5 151.522 7.92179  -2
  -9   8   0 151.522 7.92179   1
   8  -8   4 125.774 7.71458  -2
  -8   8   0 125.774 7.71458   1
   7  -8   3 175.823 8.20294  -2
  -7   8   0 175.823 8.20294   1
   6  -8   2 66.6505 10.9784  -2
  -6   8   0 66.6505 10.9784   1
   5  -8   1 179.729 17.9433  -2
  -5   8   0 179.729 17.9433   1
  -4   8   0 72.4434 4.62458   1
  -3   8   0 550.307 16.2681   1
  -2   8   0 9.89647 2.41176   1
  -1   8   2 681.788 43.7795  -2
  -1   8   0 681.788 43.7795   1
   0   8   3 970.226 30.9428  -2
   0   8   0 970.226 30.9428   1
   1   8   4 395.946 16.3468  -2
   1   8   0 395.946 16.3468   1
   2   8   5 885.897 29.0093  -2
   2   8   0 885.897 29.0093   1
   3   8   6 242.531 10.5534  -2
   3   8   0 242.531 10.5534   1
   4   8   7 951.619 27.9008  -2
   4   8   0 951.619 27.9008   1
   5   8   8 1473.34 47.2460  -2
   5   8   0 1473.34 47.2460   1
   6   8   9 189.146 12.1069  -2
   6   8   0 189.146 12.1069   1
   7   8  10 211.610 12.7301  -2
   7   8   0 211.610 12.7301   1
   8   8  11 983.530 34.3195  -2
   8   8   0 983.530 34.3195   1
   9   8  12 1807.98 69.4665  -2
   9   8   0 1807.98 69.4665   1
  10   8  13 301.754 22.7396  -2
  10   8   0 301.754 22.7396   1
  11   8  14 53.8945 21.1870  -2
  11   8   0 53.8945 21.1870   1
  12   8   0 52.1810 9.98029   1
  13   8  15 124.101 53.4830  -2
  13   8   0 124.101 53.4830   1
  14  -9   9 30.8580 34.9751  -2
 -14   9   0 30.8580 34.9751   1
  13  -9   8 192.911 18.3803  -2
 -13   9   0 192.911 18.3803   1
  12  -9   7 209.450 34.6221  -2
 -12   9   0 209.450 34.6221   1
  11  -9   7 742.276 54.4425  -2
 -11   9   0 742.276 54.4425   1
  10  -9   6 63.3324 10.9728  -2
 -10   9   0 63.3324 10.9728   1
   9  -9   5 66.5810 6.56218  -2
  -9   9   0 66.5810 6.56218   1
   8  -9   4 421.948 17.2236  -2
  -8   9   0 421.948 17.2236   1
   7  -9   3 1842.30 66.5887  -2
  -7   9   0 1842.30 66.5887   1
   6  -9   2 547.073 26.7529  -2
  -6   9   0 547.073 26.7529   1
   5  -9   1 13.9416 5.04079  -2
  -5   9   0 13.9416 5.04079   1
  -4   9   0 98.8402 5.90931  -2
  -4   9   0 98.8402 5.90931   1
  -3   9   1 519.633 20.2138  -2
  -3   9   0 519.633 20.2138   1
  -2   9   2 74.0952 6.39956  -2
  -2   9   0 74.0952 6.39956   1
  -1   9   3 49.3215 5.98761  -2
  -1   9   0 49.3215 5.98761   1
   0   9   4 1.24597 6.15266  -2
   0   9   0 1.24597 6.15266   1
   1   9   5 2185.34 96.7380  -2
   1   9   0 2185.34 96.7380   1
   2   9   0 779.824 23.2977   1
   3   9   0 215.942 7.65664   1
   4   9   0 28.7732 3.32507   1
   5   9   8 77.5384 13.3499  -2
   5   9   0 77.5384 13.3499   1
   6   9   9 12.1477 20.6347  -2
   6   9   0 12.1477 20.6347   1
   7   9  10 37.3213 13.2518  -2
   7   9   0 37.3213 13.2518   1
   8   9  11 979.779 34.7575  -2
   8   9   0 979.779 34.7575   1
   9   9  12 28.5845 12.8886  -2
   9   9   0 28.5845 12.8886   1
  10   9  13 414.216 19.9985  -2
  10   9   0 414.216 19.9985   1
  11   9  14 32.6100 13.9457  -2
  11   9   0 32.6100 13.9457   1
  12   9  15 138.838 18.9800  -2
  12   9   0 138.838 18.9800   1
  13   9  16 45.4649 23.6974  -2
  13   9   0 45.4649 23.6974   1
  14 -10   9 72.9987 25.2675  -2
 -14  10   0 72.9987 25.2675   1
  13 -10   8 1262.02 38.3150  -2
 -13  10   0 1262.02 38.3150   1
  12 -10   7 264.006 11.1916  -2
 -12  10   0 264.006 11.1916   1
  11 -10   6 188.386 10.3904  -2
 -11  10   0 188.386 10.3904   1
  10 -10   5 209.522 15.7622  -2
 -10  10   0 209.522 15.7622   1
   9 -10   4 754.225 31.2477  -2
  -9  10   0 754.225 31.2477   1
   8 -10   3 83.5646 21.3977  -2
  -8  10   0 83.5646 21.3977   1
   7 -10   2 633.139 44.5452  -2
  -7  10   0 633.139 44.5452   1
  -6  10   0 29.4080 4.17230   1
  -5  10   0 352.297 12.9787   1
  -4  10   0 3753.54 226.679  -2
  -4  10   0 3753.54 226.679   1
  -3  10   1 334.244 18.2677  -2
  -3  10   0 334.244 18.2677   1
  -2  10   2 211.975 10.7441  -2
  -2  10   0 211.975 10.7441   1
  -1  10   3 237.037 11.4882  -2
  -1  10   0 237.037 11.4882   1
   0  10   4 653.110 25.1231  -2
   0  10   0 653.110 25.1231   1
   1  10   5 324.385 14.6589  -2
   1  10   0 324.385 14.6589   1
   2  10   6 24.5917 5.87299  -2
   2  10   0 24.5917 5.87299   1
   3  10   7 361.929 12.4690  -2
   3  10   0 361.929 12.4690   1
   4  10   8 158.436 11.1235  -2
   4  10   0 158.436 11.1235   1
   5  10   9 90.2154 11.1739  -2
   5  10   0 90.2154 11.1739   1
   6  10  10 898.089 31.3917  -2
   6  10   0 898.089 31.3917   1
   7  10  11 57.7002 13.5979  -2
   7  10   0 57.7002 13.5979   1
   8  10  12 74.7561 18.2173  -2
   8  10   0 74.7561 18.2173   1
   9  10  13 10.4945 31.2954  -2
   9  10   0 10.4945 31.2954   1
  10  10   0 26.5105 8.84586   1
  11  10   0 192.164 19.2562   1
  12  10  15 27.4335 25.6651  -2
  12  10   0 27.4335 25.6651   1
  13 -11   8 112.118 23.3683  -2
 -13  11   0 112.118 23.3683   1
  12 -11   7 327.216 24.2292  -2
 -12  11   0 327.216 24.2292   1
  11 -11   6 72.0946 13.2717  -2
 -11  11   0 72.0946 13.2717   1
  10 -11   5 244.975 14.5035  -2
 -10  11   0 244.975 14.5035   1
   9 -11   4 194.444 13.8010  -2
  -9  11   0 194.444 13.8010   1
   8 -11   3 12.2372 9.12650  -2
  -8  11   0 12.2372 9.12650   1
   7 -11   2 31.1988 7.20136  -2
  -7  11   0 31.1988 7.20136   1
   6 -11   1 183.083 11.3008  -2
  -6  11   0 183.083 11.3008   1
  -5  11   0 34.2099 7.43346  -2
  -5  11   0 34.2099 7.43346   1
  -4  11   1 168.886 10.9475  -2
  -4  11   0 168.886 10.9475   1
  -3  11   2 591.661 23.7149  -2
  -3  11   0 591.661 23.7149   1
  -2  11   3 171.867 10.0120  -2
  -2  11   0 171.867 10.0120   1
  -1  11   4 41.2247 14.0160  -2
  -1  11   0 41.2247 14.0160   1
   0  11   0 159.609 8.31762   1
   1  11   0 304.189 12.5572   1
   2  11   6 166.765 23.3068  -2
   2  11   0 166.765 23.3068   1
   3  11   7 225.536 14.6451  -2
   3  11   0 225.536 14.6451   1
   4  11   8 17.1663 12.0799  -2
   4  11   0 17.1663 12.0799   1
   5  11   9 146.895 10.7321  -2
   5  11   0 146.895 10.7321   1
   6  11  10 720.713 29.6994  -2
   6  11   0 720.713 29.6994   1
   7  11  11 783.978 28.7063  -2
   7  11   0 783.978 28.7063   1
   8  11  12 480.871 23.8054  -2
   8  11   0 480.871 23.8054   1
   9  11  13 294.068 17.0158  -2
   9  11   0 294.068 17.0158   1
  10  11  14 92.8533 14.1329  -2
  10  11   0 92.8533 14.1329   1
  11  11  15 109.563 25.1769  -2
  11  11   0 109.563 25.1769   1
  12 -12   6 199.539 22.0506  -2
 -12  12   0 199.539 22.0506   1
  11 -12   5 1214.86 42.5229  -2
 -11  12   0 1214.86 42.5229   1
  10 -12   4 43.2315 20.0288  -2
 -10  12   0 43.2315 20.0288   1
  -9  12   0 -0.3783 5.55274   1
  -8  12   0 224.415 11.8605   1
   7 -12   2 67.7984 16.5537  -2
  -7  12   0 67.7984 16.5537   1
   6 -12   1 33.8481 11.5503  -2
  -6  12   0 33.8481 11.5503   1
  -5  12   0 54.7236 10.2819  -2
  -5  12   0 54.7236 10.2819   1
  -4  12   1 7.48216 10.3580  -2
  -4  12   0 7.48216 10.3580   1
  -3  12   2 648.892 26.2421  -2
  -3  12   0 648.892 26.2421   1
  -2  12   3 275.633 13.5528  -2
  -2  12   0 275.633 13.5528   1
  -1  12   4 71.7984 10.2400  -2
  -1  12   0 71.7984 10.2400   1
   0  12   5 1319.79 49.3755  -2
   0  12   0 1319.79 49.3755   1
   1  12   6 577.721 21.0199  -2
   1  12   0 577.721 21.0199   1
   2  12   7 1775.13 56.6009  -2
   2  12   0 1775.13 56.6009   1
   3  12   8 94.7187 13.0708  -2
   3  12   0 94.7187 13.0708   1
   4  12   9 498.504 28.4660  -2
   4  12   0 498.504 28.4660   1
   5  12  10 91.5442 19.9034  -2
   5  12   0 91.5442 19.9034   1
   6  12  11 440.669 42.0211  -2
   6  12   0 440.669 42.0211   1
   7  12   0 494.143 18.1384   1
   8  12  12 149.238 39.1607  -2
   8  12   0 149.238 39.1607   1
   9  12  13 180.840 22.8516  -2
   9  12   0 180.840 22.8516   1
  10  12  14 657.102 34.9712  -2
  10  12   0 657.102 34.9712   1
  11  12  15 660.910 30.9421  -2
  11  12   0 660.910 30.9421   1
  12 -13   6 286.573 39.0048  -2
 -12  13   0 286.573 39.0048   1
  11 -13   5 216.034 21.8624  -2
 -11  13   0 216.034 21.8624   1
  10 -13   4 177.882 12.9754  -2
 -10  13   0 177.882 12.9754   1
   9 -13   3 276.238 16.4954  -2
  -9  13   0 276.238 16.4954   1
   8 -13   2 10.3600 11.5822  -2
  -8  13   0 10.3600 11.5822   1
   7 -13   1 425.652 17.8304  -2
  -7  13   0 425.652 17.8304   1
  -6  13   0 609.502 26.1740  -2
  -6  13   0 609.502 26.1740   1
  -5  13   1 825.798 32.9808  -2
  -5  13   0 825.798 32.9808   1
  -4  13   2 302.862 20.4372  -2
  -4  13   0 302.862 20.4372   1
  -3  13   0 15.7495 4.76691   1
  -2  13   0 300.612 13.1407   1
  -1  13   0 3.62751 4.54633   1
   0  13   5 167.289 12.1264  -2
   0  13   0 167.289 12.1264   1
   1  13   6 128.576 11.9301  -2
   1  13   0 128.576 11.9301   1
   2  13   7 185.116 14.1717  -2
   2  13   0 185.116 14.1717   1
   3  13   8 442.449 26.4336  -2
   3  13   0 442.449 26.4336   1
   4  13   9 108.117 12.4995  -2
   4  13   0 108.117 12.4995   1
   5  13  10 172.064 17.5448  -2
   5  13   0 172.064 17.5448   1
   6  13  11 352.194 18.4366  -2
   6  13   0 352.194 18.4366   1
   7  13  12 -3.7987 10.6377  -2
   7  13   0 -3.7987 10.6377   1
   8  13  13 97.7244 13.5059  -2
   8  13   0 97.7244 13.5059   1
   9  13  14 33.3957 17.5706  -2
   9  13   0 33.3957 17.5706   1
  10  13   0 142.533 13.0673   1
 -11  14   0 128.894 12.3079   1
  10 -14   4 537.423 36.2222  -2
 -10  14   0 537.423 36.2222   1
   9 -14   3 123.142 18.2584  -2
  -9  14   0 123.142 18.2584   1
   8 -14   2 229.403 21.8819  -2
  -8  14   0 229.403 21.8819   1
   7 -14   1 1476.95 68.4442  -2
  -7  14   0 1476.95 68.4442   1
  -6  14   0 13.6074 10.3191  -2
  -6  14   0 13.6074 10.3191   1
  -5  14   1 477.858 21.0394  -2
  -5  14   0 477.858 21.0394   1
  -4  14   2 16.5899 6.91214  -2
  -4  14   0 16.5899 6.91214   1
  -3  14   3 2.02128 7.21784  -2
  -3  14   0 2.02128 7.21784   1
  -2  14   4 1925.52 61.2191  -2
  -2  14   0 1925.52 61.2191   1
  -1  14   5 599.265 22.6541  -2
  -1  14   0 599.265 22.6541   1
   0  14   6 101.351 11.7943  -2
   0  14   0 101.351 11.7943   1
   1  14   7 185.869 13.6146  -2
   1  14   0 185.869 13.6146   1
   2  14   8 1223.03 58.3193  -2
   2  14   0 1223.03 58.3193   1
   3  14   9 -5.5325 25.1169  -2
   3  14   0 -5.5325 25.1169   1
   4  14   0 40.9179 8.24941   1
   5  14  10 92.6507 37.9602  -2
   5  14   0 92.6507 37.9602   1
   6  14  11 396.895 46.9360  -2
   6  14   0 396.895 46.9360   1
   7  14  12 301.671 30.2860  -2
   7  14   0 301.671 30.2860   1
   8  14  13 126.729 34.2864  -2
   8  14   0 126.729 34.2864   1
   9 -15   2 41.4338 16.3220  -2
  -9  15   0 41.4338 16.3220   1
   8 -15   1 41.9887 16.2049  -2
  -8  15   0 41.9887 16.2049   1
  -7  15   0 31.7798 20.1569  -2
  -7  15   0 31.7798 20.1569   1
  -6  15   1 442.955 29.2081  -2
  -6  15   0 442.955 29.2081   1
  -5  15   0 4.33516 6.06605   1
  -4  15   0 41.2941 6.76690   1
  -3  15   3 130.111 18.6414  -2
  -3  15   0 130.111 18.6414   1
  -2  15   4 872.053 35.7694  -2
  -2  15   0 872.053 35.7694   1
  -1  15   5 242.111 14.9329  -2
  -1  15   0 242.111 14.9329   1
   0  15   6 42.2173 11.3794  -2
   0  15   0 42.2173 11.3794   1
   1  15   7 48.4193 12.6705  -2
   1  15   0 48.4193 12.6705   1
   2  15   8 335.099 19.1657  -2
   2  15   0 335.099 19.1657   1
   3  15   9 73.2973 11.2347  -2
   3  15   0 73.2973 11.2347   1
   4  15  10 -2.6210 11.9021  -2
   4  15   0 -2.6210 11.9021   1
   5  15  11 70.7137 16.9684  -2
   5  15   0 70.7137 16.9684   1
   6  15  12 97.9802 24.9446  -2
   6  15   0 97.9802 24.9446   1
   7  15  13 167.028 28.4228  -2
   7  15   0 167.028 28.4228   1
   8 -16   1 33.9427 15.0710  -2
  -8  16   0 33.9427 15.0710   1
  -7  16   0 12.1458 15.5895  -2
  -7  16   0 12.1458 15.5895   1
  -6  16   1 25.1559 8.55924  -2
  -6  16   0 25.1559 8.55924   1
  -5  16   2 15.5464 14.6082  -2
  -5  16   0 15.5464 14.6082   1
  -4  16   3 -10.070 14.9694  -2
  -4  16   0 -10.070 14.9694   1
  -3  16   4 58.7570 17.1926  -2
  -3  16   0 58.7570 17.1926   1
  -2  16   5 246.904 21.5569  -2
  -2  16   0 246.904 21.5569   1
  -1  16   6 353.505 25.1663  -2
  -1  16   0 353.505 25.1663   1
   0  16   7 56.5371 22.6849  -2
   0  16   0 56.5371 22.6849   1
   1  16   0 19.9778 8.40171   1
   2  16   0 160.853 12.5201   1
   3  16   9 -12.343 20.0263  -2
   3  16   0 -12.343 20.0263   1
   4  16  10 222.887 22.3245  -2
   4  16   0 222.887 22.3245   1
   5  16  11 98.8961 26.8515  -2
   5  16   0 98.8961 26.8515   1
  -6  17   1 691.455 53.8726  -2
  -6  17   0 691.455 53.8726   1
  -5  17   2 256.838 36.6067  -2
  -5  17   0 256.838 36.6067   1
  -4  17   3 144.544 22.2443  -2
  -4  17   0 144.544 22.2443   1
  -3  17   4 595.834 48.1876  -2
  -3  17   0 595.834 48.1876   1
  -2  17   5 444.300 40.1744  -2
  -2  17   0 444.300 40.1744   1
  -1  17   6 32.5808 15.8871  -2
  -1  17   0 32.5808 15.8871   1
   0  17   7 4.63010 12.2748  -2
   0  17   0 4.63010 12.2748   1
   1  17   8 1066.95 42.3125  -2
   1  17   0 1066.95 42.3125   1
   2  17   9 57.4019 31.4424  -2
   2  17   0 57.4019 31.4424   1
   3  17  10 114.960 31.0247  -2
   3  17   0 114.960 31.0247   1
   2  17  10 696.744 54.2731  -2
  -2 -17   1 696.744 54.2731   1
   1  17   9 294.265 23.6735  -2
  -1 -17   1 294.265 23.6735   1
   0  17   8 279.158 20.9256  -2
   0 -17   1 279.158 20.9256   1
  -1  17   7 8.58823 14.1835  -2
   1 -17   1 8.58823 14.1835   1
  -2  17   6 30.9340 14.2263  -2
   2 -17   1 30.9340 14.2263   1
  -3  17   5 129.269 16.6964  -2
   3 -17   1 129.269 16.6964   1
  -4  17   4 80.3578 17.2113  -2
   4 -17   1 80.3578 17.2113   1
  -5  17   3 51.0695 17.4849  -2
   5 -17   1 51.0695 17.4849   1
   5  16  12 254.986 31.4945  -2
  -5 -16   1 254.986 31.4945   1
   4  16  11 -31.708 27.9961  -2
  -4 -16   1 -31.708 27.9961   1
   3  16  10 428.216 27.1581  -2
  -3 -16   1 428.216 27.1581   1
  -2 -16   1 44.5379 8.70006   1
  -1 -16   1 9.03907 7.70506   1
   0  16   8 -2.8140 22.3726  -2
   0 -16   1 -2.8140 22.3726   1
  -1  16   7 209.462 22.2080  -2
   1 -16   1 209.462 22.2080   1
  -2  16   6 461.531 28.9765  -2
   2 -16   1 461.531 28.9765   1
  -3  16   5 366.823 25.6152  -2
   3 -16   1 366.823 25.6152   1
  -4  16   4 124.695 18.3279  -2
   4 -16   1 124.695 18.3279   1
  -5  16   3 41.2529 14.8541  -2
   5 -16   1 41.2529 14.8541   1
  -6  16   2 19.7064 8.76261  -2
   6 -16   1 19.7064 8.76261   1
  -7  16   1 14.6508 13.1183  -2
   7 -16   1 14.6508 13.1183   1
  -8  16   0 2.75058 15.2472  -2
   8 -16   1 2.75058 15.2472   1
   6  15  13 -30.054 26.4710  -2
  -6 -15   1 -30.054 26.4710   1
   5  15  12 239.986 26.2445  -2
  -5 -15   1 239.986 26.2445   1
   4  15  11 51.4055 14.0887  -2
  -4 -15   1 51.4055 14.0887   1
   3  15  10 19.2133 13.3114  -2
  -3 -15   1 19.2133 13.3114   1
   2  15   9 8.86029 11.6454  -2
  -2 -15   1 8.86029 11.6454   1
   1  15   8 37.8541 13.3491  -2
  -1 -15   1 37.8541 13.3491   1
   0  15   7 109.924 16.4532  -2
   0 -15   1 109.924 16.4532   1
  -1  15   6 112.523 15.8999  -2
   1 -15   1 112.523 15.8999   1
  -2  15   5 349.712 20.6843  -2
   2 -15   1 349.712 20.6843   1
  -3  15   4 339.143 20.8701  -2
   3 -15   1 339.143 20.8701   1
  -4  15   3 52.9725 29.1814  -2
   4 -15   1 52.9725 29.1814   1
   5 -15   1 58.6465 7.94151   1
  -6  15   2 10.1886 19.8480  -2
   6 -15   1 10.1886 19.8480   1
  -7  15   1 216.999 23.9275  -2
   7 -15   1 216.999 23.9275   1
  -8  15   0 49.4037 20.8603  -2
   8 -15   1 49.4037 20.8603   1
   9 -15   1 217.861 23.6098  -2
   9 -15   1 217.861 23.6098   1
  10 -15   2 231.615 19.5960  -2
  10 -15   1 231.615 19.5960   1
   7  14  13 200.124 23.8137  -2
  -7 -14   1 200.124 23.8137   1
   6  14  12 471.611 34.7230  -2
  -6 -14   1 471.611 34.7230   1
   5  14  11 -10.353 38.6593  -2
  -5 -14   1 -10.353 38.6593   1
  -4 -14   1 8.09784 7.50427   1
   3  14  10 728.182 33.1896  -2
  -3 -14   1 728.182 33.1896   1
   2  14   9 69.6170 17.5363  -2
  -2 -14   1 69.6170 17.5363   1
   1  14   8 -9.1739 17.7628  -2
  -1 -14   1 -9.1739 17.7628   1
   0  14   7 60.1784 16.6608  -2
   0 -14   1 60.1784 16.6608   1
  -1  14   6 311.886 15.6390  -2
   1 -14   1 311.886 15.6390   1
  -2  14   5 41.6985 9.49957  -2
   2 -14   1 41.6985 9.49957   1
  -3  14   4 196.757 11.0538  -2
   3 -14   1 196.757 11.0538   1
  -4  14   3 161.260 10.5622  -2
   4 -14   1 161.260 10.5622   1
  -5  14   2 347.963 17.5603  -2
   5 -14   1 347.963 17.5603   1
  -6  14   1 1384.62 52.5805  -2
   6 -14   1 1384.62 52.5805   1
  -7  14   0 1258.92 48.2460  -2
   7 -14   1 1258.92 48.2460   1
   8 -14   1 164.702 21.2724  -2
   8 -14   1 164.702 21.2724   1
   9 -14   2 212.164 19.8816  -2
   9 -14   1 212.164 19.8816   1
  10 -14   3 360.496 30.7359  -2
  10 -14   1 360.496 30.7359   1
  11 -14   1 36.9815 9.89173   1
   9  13  15 88.3044 30.5126  -2
  -9 -13   1 88.3044 30.5126   1
   8  13  14 204.425 18.2938  -2
  -8 -13   1 204.425 18.2938   1
   7  13  13 186.783 19.0866  -2
  -7 -13   1 186.783 19.0866   1
   6  13  12 515.759 24.5205  -2
  -6 -13   1 515.759 24.5205   1
   5  13  11 61.0622 8.23073  -2
  -5 -13   1 61.0622 8.23073   1
   4  13  10 106.981 7.96794  -2
  -4 -13   1 106.981 7.96794   1
   3  13   9 659.498 27.7978  -2
  -3 -13   1 659.498 27.7978   1
   2  13   8 229.527 16.5993  -2
  -2 -13   1 229.527 16.5993   1
   1  13   7 137.268 15.5784  -2
  -1 -13   1 137.268 15.5784   1
   0  13   6 147.895 15.0960  -2
   0 -13   1 147.895 15.0960   1
   1 -13   1 2.12456 4.72280   1
   2 -13   1 11.7738 4.98242   1
   3 -13   1 89.1864 7.13673   1
  -4  13   3 213.400 15.3760  -2
   4 -13   1 213.400 15.3760   1
  -5  13   2 186.486 14.5188  -2
   5 -13   1 186.486 14.5188   1
  -6  13   1 250.274 16.0407  -2
   6 -13   1 250.274 16.0407   1
  -7  13   0 463.353 26.8763  -2
   7 -13   1 463.353 26.8763   1
   8 -13   1 47.5116 10.5293  -2
   8 -13   1 47.5116 10.5293   1
   9 -13   2 26.5083 10.3612  -2
   9 -13   1 26.5083 10.3612   1
  10 -13   3 605.864 23.4502  -2
  10 -13   1 605.864 23.4502   1
  11 -13   4 302.147 19.8680  -2
  11 -13   1 302.147 19.8680   1
  12 -13   5 80.5177 18.4708  -2
  12 -13   1 80.5177 18.4708   1
  10  12  15 38.2641 23.6658  -2
 -10 -12   1 38.2641 23.6658   1
   9  12  14 98.7226 29.2589  -2
  -9 -12   1 98.7226 29.2589   1
   8  12  13 659.049 67.8663  -2
  -8 -12   1 659.049 67.8663   1
  -7 -12   1 167.930 12.5246   1
   6  12  12 745.967 63.3636  -2
  -6 -12   1 745.967 63.3636   1
   5  12  11 97.8678 13.6659  -2
  -5 -12   1 97.8678 13.6659   1
   4  12  10 409.736 21.3226  -2
  -4 -12   1 409.736 21.3226   1
   3  12   9 683.991 35.5164  -2
  -3 -12   1 683.991 35.5164   1
   2  12   8 1938.61 62.1380  -2
  -2 -12   1 1938.61 62.1380   1
   1  12   7 2283.27 83.0977  -2
  -1 -12   1 2283.27 83.0977   1
   0  12   6 219.219 10.7640  -2
   0 -12   1 219.219 10.7640   1
  -1  12   5 938.188 30.8528  -2
   1 -12   1 938.188 30.8528   1
  -2  12   4 109.761 8.37985  -2
   2 -12   1 109.761 8.37985   1
  -3  12   3 1549.18 49.3918  -2
   3 -12   1 1549.18 49.3918   1
  -4  12   2 45.9763 10.0161  -2
   4 -12   1 45.9763 10.0161   1
  -5  12   1 608.835 25.4208  -2
   5 -12   1 608.835 25.4208   1
  -6  12   0 37.0586 14.1300  -2
   6 -12   1 37.0586 14.1300   1
   7 -12   1 148.806 18.1157  -2
   7 -12   1 148.806 18.1157   1
   8 -12   1 108.695 9.39520   1
   9 -12   2 38.5549 27.4090  -2
   9 -12   1 38.5549 27.4090   1
  10 -12   3 219.697 22.8191  -2
  10 -12   1 219.697 22.8191   1
  11 -12   4 620.624 26.4899  -2
  11 -12   1 620.624 26.4899   1
  12 -12   5 293.737 23.0876  -2
  12 -12   1 293.737 23.0876   1
  13 -12   6 154.866 28.6948  -2
  13 -12   1 154.866 28.6948   1
  11  11  16 306.358 29.7186  -2
 -11 -11   1 306.358 29.7186   1
  10  11  15 305.736 22.9675  -2
 -10 -11   1 305.736 22.9675   1
   9  11  14 177.410 13.9804  -2
  -9 -11   1 177.410 13.9804   1
   8  11  13 44.6920 10.6916  -2
  -8 -11   1 44.6920 10.6916   1
   7  11  12 1101.33 43.6496  -2
  -7 -11   1 1101.33 43.6496   1
   6  11  11 379.594 18.0584  -2
  -6 -11   1 379.594 18.0584   1
   5  11  10 59.0684 11.9496  -2
  -5 -11   1 59.0684 11.9496   1
   4  11   9 43.3344 12.1237  -2
  -4 -11   1 43.3344 12.1237   1
   3  11   8 3.88350 16.0753  -2
  -3 -11   1 3.88350 16.0753   1
   2  11   7 231.783 26.1068  -2
  -2 -11   1 231.783 26.1068   1
  -1 -11   1 110.009 7.77754   1
   0 -11   1 79.1637 6.25745   1
  -1  11   5 628.956 43.9519  -2
   1 -11   1 628.956 43.9519   1
  -2  11   4 221.180 11.6876  -2
   2 -11   1 221.180 11.6876   1
  -3  11   3 1516.15 55.7873  -2
   3 -11   1 1516.15 55.7873   1
  -4  11   2 638.993 31.7089  -2
   4 -11   1 638.993 31.7089   1
  -5  11   1 6.05290 9.99051  -2
   5 -11   1 6.05290 9.99051   1
  -6  11   0 181.646 11.4471  -2
   6 -11   1 181.646 11.4471   1
   7 -11   1 373.718 14.8277  -2
   7 -11   1 373.718 14.8277   1
   8 -11   2 37.2173 8.51976  -2
   8 -11   1 37.2173 8.51976   1
   9 -11   3 391.307 19.4744  -2
   9 -11   1 391.307 19.4744   1
  10 -11   4 110.692 12.3433  -2
  10 -11   1 110.692 12.3433   1
  11 -11   5 637.548 25.0444  -2
  11 -11   1 637.548 25.0444   1
  12 -11   6 188.948 16.6695  -2
  12 -11   1 188.948 16.6695   1
  13 -11   7 334.134 26.0312  -2
  13 -11   1 334.134 26.0312   1
  12  10  16 107.409 31.1716  -2
 -12 -10   1 107.409 31.1716   1
 -11 -10   1 -7.3444 10.0184   1
 -10 -10   1 52.1763 7.51195   1
   9  10  14 304.462 39.3889  -2
  -9 -10   1 304.462 39.3889   1
   8  10  13 96.9841 23.7669  -2
  -8 -10   1 96.9841 23.7669   1
   7  10  12 11.5351 14.1100  -2
  -7 -10   1 11.5351 14.1100   1
   6  10  11 60.1108 14.5406  -2
  -6 -10   1 60.1108 14.5406   1
   5  10  10 531.391 20.6090  -2
  -5 -10   1 531.391 20.6090   1
   4  10   9 348.208 17.3258  -2
  -4 -10   1 348.208 17.3258   1
   3  10   8 283.318 12.3615  -2
  -3 -10   1 283.318 12.3615   1
   2  10   7 61.3260 5.75793  -2
  -2 -10   1 61.3260 5.75793   1
   1  10   6 332.101 11.2510  -2
  -1 -10   1 332.101 11.2510   1
   0  10   5 821.234 31.2885  -2
   0 -10   1 821.234 31.2885   1
  -1  10   4 127.279 9.42280  -2
   1 -10   1 127.279 9.42280   1
  -2  10   3 41.0705 7.92040  -2
   2 -10   1 41.0705 7.92040   1
  -3  10   2 1117.95 50.4575  -2
   3 -10   1 1117.95 50.4575   1
  -4  10   1 790.356 51.8243  -2
   4 -10   1 790.356 51.8243   1
   5 -10   1 121.164 7.31362   1
   6 -10   1 10.1114 4.00421   1
   7 -10   1 9.59676 18.0954  -2
   7 -10   1 9.59676 18.0954   1
   8 -10   2 179.130 17.6277  -2
   8 -10   1 179.130 17.6277   1
   9 -10   3 190.620 15.2801  -2
   9 -10   1 190.620 15.2801   1
  10 -10   4 1.28107 6.49656  -2
  10 -10   1 1.28107 6.49656   1
  11 -10   5 142.516 9.13065  -2
  11 -10   1 142.516 9.13065   1
  12 -10   6 753.264 25.1295  -2
  12 -10   1 753.264 25.1295   1
  13 -10   7 339.550 13.7069  -2
  13 -10   1 339.550 13.7069   1
  14 -10   8 13.4956 12.4968  -2
  14 -10   1 13.4956 12.4968   1
  12   9  16 11.7953 17.3752  -2
 -12  -9   1 11.7953 17.3752   1
  11   9  15 505.184 32.9053  -2
 -11  -9   1 505.184 32.9053   1
  10   9  14 -3.6906 16.3033  -2
 -10  -9   1 -3.6906 16.3033   1
   9   9  13 82.8309 14.3796  -2
  -9  -9   1 82.8309 14.3796   1
   8   9  12 148.969 14.8004  -2
  -8  -9   1 148.969 14.8004   1
   7   9  11 86.5037 13.4751  -2
  -7  -9   1 86.5037 13.4751   1
   6   9  10 27.3130 16.8789  -2
  -6  -9   1 27.3130 16.8789   1
   5   9   9 235.273 27.5687  -2
  -5  -9   1 235.273 27.5687   1
  -4  -9   1 406.242 12.7737   1
  -3  -9   1 519.314 16.5503   1
  -2  -9   1 807.574 21.9491   1
   1   9   6 578.779 30.4722  -2
  -1  -9   1 578.779 30.4722   1
   0   9   5 170.940 9.24782  -2
   0  -9   1 170.940 9.24782   1
  -1   9   4 379.267 14.2440  -2
   1  -9   1 379.267 14.2440   1
  -2   9   3 37.0995 6.32262  -2
   2  -9   1 37.0995 6.32262   1
  -3   9   2 408.864 16.6574  -2
   3  -9   1 408.864 16.6574   1
  -4   9   1 900.671 28.8795  -2
   4  -9   1 900.671 28.8795   1
  -5   9   0 18.4441 5.42540  -2
   5  -9   1 18.4441 5.42540   1
   6  -9   1 562.954 22.6071  -2
   6  -9   1 562.954 22.6071   1
   7  -9   2 2768.31 77.2499  -2
   7  -9   1 2768.31 77.2499   1
   8  -9   3 2650.95 83.2033  -2
   8  -9   1 2650.95 83.2033   1
   9  -9   4 112.386 7.86391  -2
   9  -9   1 112.386 7.86391   1
  10  -9   5 101.989 12.5427  -2
  10  -9   1 101.989 12.5427   1
  11  -9   6 0.87450 19.8365  -2
  11  -9   1 0.87450 19.8365   1
  12  -9   6 602.429 49.8112  -2
  12  -9   1 602.429 49.8112   1
  13  -9   7 20.7021 22.2900  -2
  13  -9   1 20.7021 22.2900   1
  14  -9   8 68.8339 21.5930  -2
  14  -9   1 68.8339 21.5930   1
 -13  -8   1 46.6982 14.5290   1
  12   8  16 275.394 54.6989  -2
 -12  -8   1 275.394 54.6989   1
  11   8  15 208.234 27.8890  -2
 -11  -8   1 208.234 27.8890   1
  10   8  14 750.428 37.9325  -2
 -10  -8   1 750.428 37.9325   1
   9   8  13 1172.81 41.9199  -2
  -9  -8   1 1172.81 41.9199   1
   8   8  12 356.684 17.7924  -2
  -8  -8   1 356.684 17.7924   1
   7   8  11 136.418 16.1216  -2
  -7  -8   1 136.418 16.1216   1
   6   8  10 401.214 19.1141  -2
  -6  -8   1 401.214 19.1141   1
   5   8   9 629.077 31.1170  -2
  -5  -8   1 629.077 31.1170   1
   4   8   8 458.801 13.7315  -2
  -4  -8   1 458.801 13.7315   1
   3   8   7 91.4331 5.95020  -2
  -3  -8   1 91.4331 5.95020   1
   2   8   6 91.2372 6.25187  -2
  -2  -8   1 91.2372 6.25187   1
   1   8   5 797.497 26.2760  -2
  -1  -8   1 797.497 26.2760   1
   0   8   4 1906.31 59.5603  -2
   0  -8   1 1906.31 59.5603   1
  -1   8   3 102.071 10.1770  -2
   1  -8   1 102.071 10.1770   1
   2  -8   1 1457.34 52.5855   1
   3  -8   1 392.596 12.3170   1
   4  -8   1 500.126 16.6645   1
  -5   8   0 180.082 13.2736  -2
   5  -8   1 180.082 13.2736   1
   6  -8   1 16.1772 5.52564  -2
   6  -8   1 16.1772 5.52564   1
   7  -8   2 430.564 15.4369  -2
   7  -8   1 430.564 15.4369   1
   8  -8   3 99.1725 7.62467  -2
   8  -8   1 99.1725 7.62467   1
   9  -8   4 224.214 10.0852  -2
   9  -8   1 224.214 10.0852   1
  10  -8   5 164.518 10.5699  -2
  10  -8   1 164.518 10.5699   1
  11  -8   6 545.412 20.6590  -2
  11  -8   1 545.412 20.6590   1
  12  -8   7 52.8699 8.30208  -2
  12  -8   1 52.8699 8.30208   1
  13  -8   8 -12.232 10.9946  -2
  13  -8   1 -12.232 10.9946   1
  14  -8   9 11.8262 20.4083  -2
  14  -8   1 11.8262 20.4083   1
  15  -8  10 39.7031 29.2897  -2
  15  -8   1 39.7031 29.2897   1
  13   7  16 162.400 20.8158  -2
 -13  -7   1 162.400 20.8158   1
  12   7  15 128.513 19.0625  -2
 -12  -7   1 128.513 19.0625   1
  11   7  14 59.1061 15.0555  -2
 -11  -7   1 59.1061 15.0555   1
  10   7  13 395.120 21.5979  -2
 -10  -7   1 395.120 21.5979   1
   9   7  12 626.339 36.9891  -2
  -9  -7   1 626.339 36.9891   1
   8   7  11 135.508 19.2196  -2
  -8  -7   1 135.508 19.2196   1
  -7  -7   1 373.673 13.9310   1
  -6  -7   1 1017.35 30.5128   1
   5   7   9 68.4644 18.2595  -2
  -5  -7   1 68.4644 18.2595   1
   4   7   8 327.032 14.5878  -2
  -4  -7   1 327.032 14.5878   1
   3   7   7 81.1718 6.95119  -2
  -3  -7   1 81.1718 6.95119   1
   2   7   6 295.515 11.8095  -2
  -2  -7   1 295.515 11.8095   1
   1   7   5 -1.0321 4.33543  -2
  -1  -7   1 -1.0321 4.33543   1
   0   7   4 1162.03 30.0193  -2
   0  -7   1 1162.03 30.0193   1
  -1   7   3 266.711 13.1595  -2
   1  -7   1 266.711 13.1595   1
  -2   7   2 1609.01 45.0740  -2
   2  -7   1 1609.01 45.0740   1
  -3   7   1 743.886 21.2939  -2
   3  -7   1 743.886 21.2939   1
  -4   7   0 2030.76 51.7064  -2
   4  -7   1 2030.76 51.7064   1
   5  -7   1 204.857 7.42037  -2
   5  -7   1 204.857 7.42037   1
   6  -7   2 169.368 9.37967  -2
   6  -7   1 169.368 9.37967   1
   7  -7   3 2.84771 7.84467  -2
   7  -7   1 2.84771 7.84467   1
   8  -7   1 131.672 6.28934   1
   9  -7   1 6.78514 3.19299   1
  10  -7   1 2.47524 3.68678   1
  11  -7   6 333.496 19.6519  -2
  11  -7   1 333.496 19.6519   1
  12  -7   7 527.268 22.5486  -2
  12  -7   1 527.268 22.5486   1
  13  -7   8 210.231 13.9835  -2
  13  -7   1 210.231 13.9835   1
  14  -7   9 14.6495 15.7699  -2
  14  -7   1 14.6495 15.7699   1
  15  -7  10 -7.3608 20.3697  -2
  15  -7   1 -7.3608 20.3697   1
  14   6  17 14.2603 30.9132  -2
 -14  -6   1 14.2603 30.9132   1
  13   6  16 122.128 29.5141  -2
 -13  -6   1 122.128 29.5141   1
  12   6  15 24.6310 18.1566  -2
 -12  -6   1 24.6310 18.1566   1
  11   6  14 46.3769 15.6024  -2
 -11  -6   1 46.3769 15.6024   1
  10   6  13 266.146 15.7420  -2
 -10  -6   1 266.146 15.7420   1
   9   6  12 37.5582 16.4832  -2
  -9  -6   1 37.5582 16.4832   1
   8   6  11 109.071 10.7441  -2
  -8  -6   1 109.071 10.7441   1
   7   6  10 278.382 14.6950  -2
  -7  -6   1 278.382 14.6950   1
   6   6   9 436.619 15.0284  -2
  -6  -6   1 436.619 15.0284   1
   5   6   8 1257.58 40.8573  -2
  -5  -6   1 1257.58 40.8573   1
   4   6   7 164.328 7.80117  -2
  -4  -6   1 164.328 7.80117   1
   3   6   6 134.571 8.86201  -2
  -3  -6   1 134.571 8.86201   1
   2   6   5 33.5710 8.46150  -2
  -2  -6   1 33.5710 8.46150   1
  -1  -6   1 278.941 8.27927   1
   0  -6   1 129.209 4.13813   1
   1  -6   1 776.361 20.0844   1
   2  -6   1 1.64841 1.11446   1
  -3   6   1 1076.19 38.6817  -2
   3  -6   1 1076.19 38.6817   1
  -4   6   0 2595.85 79.7737  -2
   4  -6   1 2595.85 79.7737   1
   5  -6   1 7.99768 4.62119  -2
   5  -6   1 7.99768 4.62119   1
   6  -6   2 1663.33 42.5955  -2
   6  -6   1 1663.33 42.5955   1
   7  -6   3 993.192 31.9176  -2
   7  -6   1 993.192 31.9176   1
   8  -6   4 1281.36 40.8251  -2
   8  -6   1 1281.36 40.8251   1
   9  -6   5 82.6120 5.99198  -2
   9  -6   1 82.6120 5.99198   1
  10  -6   6 323.667 11.9668  -2
  10  -6   1 323.667 11.9668   1
  11  -6   7 823.635 25.7345  -2
  11  -6   1 823.635 25.7345   1
  12  -6   8 395.065 15.3922  -2
  12  -6   1 395.065 15.3922   1
  13  -6   9 13.5108 14.0658  -2
  13  -6   1 13.5108 14.0658   1
  14  -6  10 137.514 21.2150  -2
  14  -6   1 137.514 21.2150   1
  15  -6   1 565.450 24.6693   1
  16  -6   1 33.9721 10.0525   1
  14   5  16 96.0041 22.8777  -2
 -14  -5   1 96.0041 22.8777   1
  13   5  15 628.706 43.5641  -2
 -13  -5   1 628.706 43.5641   1
  12   5  14 213.784 19.4912  -2
 -12  -5   1 213.784 19.4912   1
  11   5  13 101.990 24.3666  -2
 -11  -5   1 101.990 24.3666   1
  10   5  12 682.680 56.3865  -2
 -10  -5   1 682.680 56.3865   1
  -9  -5   1 -0.9328 4.51553   1
  -8  -5   1 61.7586 5.45166   1
   7   5  10 95.4398 16.0467  -2
  -7  -5   1 95.4398 16.0467   1
   6   5   9 729.519 30.4019  -2
  -6  -5   1 729.519 30.4019   1
   5   5   8 154.402 11.1918  -2
  -5  -5   1 154.402 11.1918   1
   4   5   7 717.209 27.5365  -2
  -4  -5   1 717.209 27.5365   1
   3   5   6 860.680 22.8290  -2
  -3  -5   1 860.680 22.8290   1
   2   5   5 896.945 28.7715  -2
  -2  -5   1 896.945 28.7715   1
   1   5   4 4214.61 130.286  -2
  -1  -5   1 4214.61 130.286   1
   0   5   3 2022.42 51.5445  -2
   0  -5   1 2022.42 51.5445   1
  -1   5   2 1420.16 39.7908  -2
   1  -5   1 1420.16 39.7908   1
  -2   5   1 744.008 23.3701  -2
   2  -5   1 744.008 23.3701   1
  -3   5   0 1688.89 52.0935  -2
   3  -5   1 1688.89 52.0935   1
   4  -5   1 79.2149 5.69881  -2
   4  -5   1 79.2149 5.69881   1
   5  -5   2 1047.20 64.8683  -2
   5  -5   1 1047.20 64.8683   1
   6  -5   1 704.092 18.6326   1
   7  -5   1 14.1748 2.52394   1
   8  -5   1 1530.05 39.5669   1
   9  -5   5 769.063 37.0714  -2
   9  -5   1 769.063 37.0714   1
  10  -5   6 726.120 29.4602  -2
  10  -5   1 726.120 29.4602   1
  11  -5   7 692.081 28.8605  -2
  11  -5   1 692.081 28.8605   1
  12  -5   8 75.3503 10.7733  -2
  12  -5   1 75.3503 10.7733   1
  13  -5   9 69.0380 12.5499  -2
  13  -5   1 69.0380 12.5499   1
  14  -5  10 62.7859 12.9101  -2
  14  -5   1 62.7859 12.9101   1
  15  -5  11 237.769 17.0572  -2
  15  -5   1 237.769 17.0572   1
  16  -5  12 71.8542 20.0065  -2
  16  -5   1 71.8542 20.0065   1
 -15  -4   1 7.10531 20.8981   1
  14   4  16 -1.1026 21.7117  -2
 -14  -4   1 -1.1026 21.7117   1
  13   4  15 180.132 20.2891  -2
 -13  -4   1 180.132 20.2891   1
  12   4  14 1.36268 16.8541  -2
 -12  -4   1 1.36268 16.8541   1
  11   4  13 135.259 11.0148  -2
 -11  -4   1 135.259 11.0148   1
  10   4  12 49.8277 9.35221  -2
 -10  -4   1 49.8277 9.35221   1
   9   4  11 1575.59 50.7570  -2
  -9  -4   1 1575.59 50.7570   1
   8   4  10 648.787 27.6930  -2
  -8  -4   1 648.787 27.6930   1
   7   4   9 30.6754 7.96375  -2
  -7  -4   1 30.6754 7.96375   1
   6   4   8 2065.88 65.4019  -2
  -6  -4   1 2065.88 65.4019   1
   5   4   7 262.037 17.0446  -2
  -5  -4   1 262.037 17.0446   1
  -4  -4   1 1265.72 36.1432   1
  -3  -4   1 828.734 21.8556   1
  -2  -4   1 244.325 7.25699   1
  -1  -4   1 267.095 7.61906   1
   0   4   3 637.895 40.9602  -2
   0  -4   1 637.895 40.9602   1
  -1   4   2 4476.56 268.790  -2
   1  -4   1 4476.56 268.790   1
  -2   4   1 5392.21 189.262  -2
   2  -4   1 5392.21 189.262   1
  -3   4   0 3018.80 92.5070  -2
   3  -4   1 3018.80 92.5070   1
   4  -4   1 4315.61 108.437  -2
   4  -4   1 4315.61 108.437   1
   5  -4   2 623.405 20.1055  -2
   5  -4   1 623.405 20.1055   1
   6  -4   3 306.160 11.1697  -2
   6  -4   1 306.160 11.1697   1
   7  -4   4 145.991 7.97599  -2
   7  -4   1 145.991 7.97599   1
   8  -4   5 2976.50 82.6927  -2
   8  -4   1 2976.50 82.6927   1
   9  -4   6 138.910 9.81272  -2
   9  -4   1 138.910 9.81272   1
  10  -4   7 227.047 15.3172  -2
  10  -4   1 227.047 15.3172   1
  11  -4   8 68.7355 23.9749  -2
  11  -4   1 68.7355 23.9749   1
  12  -4   9 1125.52 75.5479  -2
  12  -4   1 1125.52 75.5479   1
  13  -4   1 389.075 14.2843   1
  14  -4  10 -12.969 22.3617  -2
  14  -4   1 -12.969 22.3617   1
  15  -4  11 27.1627 20.6920  -2
  15  -4   1 27.1627 20.6920   1
  16  -4  12 49.3104 26.0569  -2
  16  -4   1 49.3104 26.0569   1
  15   3  16 171.438 30.1835  -2
 -15  -3   1 171.438 30.1835   1
  14   3  15 32.6977 31.7857  -2
 -14  -3   1 32.6977 31.7857   1
  13   3  14 88.4606 20.8090  -2
 -13  -3   1 88.4606 20.8090   1
  12   3  13 136.489 28.8424  -2
 -12  -3   1 136.489 28.8424   1
 -11  -3   1 136.398 8.93785   1
  10   3  12 576.051 46.1272  -2
 -10  -3   1 576.051 46.1272   1
   9   3  11 69.4621 14.1159  -2
  -9  -3   1 69.4621 14.1159   1
   8   3  10 926.725 67.0252  -2
  -8  -3   1 926.725 67.0252   1
   7   3   9 880.113 35.1849  -2
  -7  -3   1 880.113 35.1849   1
   6   3   8 66.4029 7.76531  -2
  -6  -3   1 66.4029 7.76531   1
   5   3   7 102.927 5.92768  -2
  -5  -3   1 102.927 5.92768   1
   4   3   6 116.457 5.91628  -2
  -4  -3   1 116.457 5.91628   1
   3   3   5 1270.07 56.4222  -2
  -3  -3   1 1270.07 56.4222   1
   2   3   4 843.541 21.8909  -2
  -2  -3   1 843.541 21.8909   1
   1   3   3 275.669 9.42437  -2
  -1  -3   1 275.669 9.42437   1
   0   3   2 1304.30 80.6959  -2
   0  -3   1 1304.30 80.6959   1
  -1   3   1 90.4303 4.37372  -2
   1  -3   1 90.4303 4.37372   1
   2  -3   1 457.020 11.7795   1
   3  -3   1 129.766 3.94833   1
   4  -3   1 148.314 4.65034   1
   5  -3   1 47.1796 3.07995   1
   6  -3   1 850.129 24.4222   1
   7  -3   4 585.556 28.1191  -2
   7  -3   1 585.556 28.1191   1
   8  -3   5 42.7418 8.22392  -2
   8  -3   1 42.7418 8.22392   1
   9  -3   6 211.799 10.3685  -2
   9  -3   1 211.799 10.3685   1
  10  -3   7 278.417 16.2102  -2
  10  -3   1 278.417 16.2102   1
  11  -3   8 96.4153 13.9535  -2
  11  -3   1 96.4153 13.9535   1
  12  -3   9 395.627 17.1422  -2
  12  -3   1 395.627 17.1422   1
  13  -3  10 850.945 27.8065  -2
  13  -3   1 850.945 27.8065   1
  14  -3  11 216.026 14.7727  -2
  14  -3   1 216.026 14.7727   1
  15  -3  12 1.06111 15.2497  -2
  15  -3   1 1.06111 15.2497   1
  16  -3  13 356.180 39.2569  -2
  16  -3   1 356.180 39.2569   1
  15   2  16 250.817 31.8235  -2
 -15  -2   1 250.817 31.8235   1
  14   2  15 136.061 19.2664  -2
 -14  -2   1 136.061 19.2664   1
  13   2  14 88.5689 13.9289  -2
 -13  -2   1 88.5689 13.9289   1
  12   2  13 74.0240 14.0332  -2
 -12  -2   1 74.0240 14.0332   1
  11   2  12 348.997 19.7101  -2
 -11  -2   1 348.997 19.7101   1
  10   2  11 584.974 29.8725  -2
 -10  -2   1 584.974 29.8725   1
   9   2  10 161.168 16.7283  -2
  -9  -2   1 161.168 16.7283   1
   8   2   9 186.103 21.9836  -2
  -8  -2   1 186.103 21.9836   1
   7   2   8 126.482 22.0023  -2
  -7  -2   1 126.482 22.0023   1
  -6  -2   1 538.296 18.7424   1
  -5  -2   1 344.957 12.5608   1
  -4  -2   1 853.720 27.6553   1
  -3  -2   1 695.959 20.1057   1
   2   2   4 1985.18 122.179  -2
  -2  -2   1 1985.18 122.179   1
   1   2   3 139.940 5.12891  -2
  -1  -2   1 139.940 5.12891   1
   0   2   2 261.243 11.9942  -2
   0  -2   1 261.243 11.9942   1
  -1   2   1 223.214 7.27618  -2
   1  -2   1 223.214 7.27618   1
  -2   2   0 445.242 11.6206  -2
   2  -2   1 445.242 11.6206   1
   3  -2   1 216.764 6.63126  -2
   3  -2   1 216.764 6.63126   1
   4  -2   2 1236.14 34.5523  -2
   4  -2   1 1236.14 34.5523   1
   5  -2   3 523.482 17.5197  -2
   5  -2   1 523.482 17.5197   1
   6  -2   4 1350.07 48.6230  -2
   6  -2   1 1350.07 48.6230   1
   7  -2   5 299.247 16.1727  -2
   7  -2   1 299.247 16.1727   1
   8  -2   6 873.521 55.8862  -2
   8  -2   1 873.521 55.8862   1
   9  -2   1 541.206 15.6043   1
  10  -2   1 10.4366 3.81963   1
  11  -2   1 -4.5248 5.15441   1
  12  -2   9 136.954 26.1826  -2
  12  -2   1 136.954 26.1826   1
  13  -2  10 152.834 20.6759  -2
  13  -2   1 152.834 20.6759   1
  14  -2  11 383.077 21.8579  -2
  14  -2   1 383.077 21.8579   1
  15  -2  12 1.10060 18.6975  -2
  15  -2   1 1.10060 18.6975   1
  16  -2  13 29.0843 29.3611  -2
  16  -2   1 29.0843 29.3611   1
 -15  -1   1 143.790 18.2534   1
 -14  -1   1 72.7386 12.2517   1
  13   1  14 141.450 24.6613  -2
 -13  -1   1 141.450 24.6613   1
  12   1  13 208.835 18.4556  -2
 -12  -1   1 208.835 18.4556   1
  11   1  12 30.2571 14.4079  -2
 -11  -1   1 30.2571 14.4079   1
  10   1  11 175.539 16.3004  -2
 -10  -1   1 175.539 16.3004   1
   9   1  10 42.3536 10.1335  -2
  -9  -1   1 42.3536 10.1335   1
   8   1   9 120.500 10.3838  -2
  -8  -1   1 120.500 10.3838   1
   7   1   8 325.267 15.0417  -2
  -7  -1   1 325.267 15.0417   1
   6   1   7 112.000 5.99958  -2
  -6  -1   1 112.000 5.99958   1
   5   1   6 901.670 41.6430  -2
  -5  -1   1 901.670 41.6430   1
   4   1   5 1573.46 57.5446  -2
  -4  -1   1 1573.46 57.5446   1
  -3  -1   1 386.861 14.8517   1
  -2  -1   1 5.83153 1.18161   1
   1   1   2 9.95484 2.72790  -2
  -1  -1   1 9.95484 2.72790   1
   0  -1   1 1180.72 42.2458   1
   1  -1   1 24.0758 1.60277   1
   2  -1   1 244.669 6.47661   1
   3  -1   1 914.855 25.4892   1
   4  -1   1 707.019 18.3322   1
   5  -1   3 5064.22 304.332  -2
   5  -1   1 5064.22 304.332   1
   6  -1   4 56.7501 10.4423  -2
   6  -1   1 56.7501 10.4423   1
   7  -1   5 2530.29 79.0854  -2
   7  -1   1 2530.29 79.0854   1
   8  -1   6 288.722 12.2524  -2
   8  -1   1 288.722 12.2524   1
   9  -1   7 394.258 12.4518  -2
   9  -1   1 394.258 12.4518   1
  10  -1   8 333.777 21.7219  -2
  10  -1   1 333.777 21.7219   1
  11  -1   9 145.780 12.6705  -2
  11  -1   1 145.780 12.6705   1
  12  -1  10 1827.83 59.7705  -2
  12  -1   1 1827.83 59.7705   1
  13  -1  11 354.415 19.6318  -2
  13  -1   1 354.415 19.6318   1
  14  -1  12 12.7511 24.3657  -2
  14  -1   1 12.7511 24.3657   1
  15  -1  13 132.642 21.4886  -2
  15  -1   1 132.642 21.4886   1
  16  -1  14 464.306 61.9822  -2
  16  -1   1 464.306 61.9822   1
  15   0  15 0.30529 24.1959  -2
 -15   0   1 0.30529 24.1959   1
  14   0  14 -15.817 19.0851  -2
 -14   0   1 -15.817 19.0851   1
  13   0  13 288.620 18.1107  -2
 -13   0   1 288.620 18.1107   1
  12   0  12 437.472 20.7891  -2
 -12   0   1 437.472 20.7891   1
  11   0  11 46.7887 14.4853  -2
 -11   0   1 46.7887 14.4853   1
  10   0  10 751.056 37.1361  -2
 -10   0   1 751.056 37.1361   1
   9   0   9 794.709 54.5632  -2
  -9   0   1 794.709 54.5632   1
  -8   0   1 250.285 9.80526   1
  -7   0   1 331.725 11.3285   1
   6   0   7 268.942 22.3264  -2
  -6   0   1 268.942 22.3264   1
  -5   0   1 6.79254 2.18420   1
  -4   0   1 1633.99 51.4620   1
  -3   0   1 945.104 29.9862   1
  -2   0   1 31.8940 1.89743   1
   1   0   2 2522.98 91.8539  -2
  -1   0   1 2522.98 91.8539   1
   2   0   1 4.14421 0.77371   1
   3   0   1 2298.53 63.1474   1
   4   0   3 589.263 37.0202  -2
   4   0   1 589.263 37.0202   1
   5   0   1 1616.22 41.1420   1
   6   0   1 164.533 5.82063   1
   7   0   1 0.74442 2.33135   1
   8   0   1 1559.16 44.4647   1
   9   0   7 844.545 57.0365  -2
   9   0   1 844.545 57.0365   1
  10   0   1 13.5879 4.24452   1
  11   0   9 300.969 21.6357  -2
  11   0   1 300.969 21.6357   1
  12   0  10 32.7688 12.9305  -2
  12   0   1 32.7688 12.9305   1
  13   0  11 300.041 17.7935  -2
  13   0   1 300.041 17.7935   1
  14   0  12 227.153 17.6791  -2
  14   0   1 227.153 17.6791   1
  15   0  13 65.2406 14.1930  -2
  15   0   1 65.2406 14.1930   1
  16   0  14 214.762 28.1542  -2
  16   0   1 214.762 28.1542   1
  15  -1  15 -14.399 47.8318  -2
 -15   1   1 -14.399 47.8318   1
  14  -1  14 68.0266 22.7804  -2
 -14   1   1 68.0266 22.7804   1
  13  -1  13 857.419 33.2766  -2
 -13   1   1 857.419 33.2766   1
  12  -1  12 211.213 14.2644  -2
 -12   1   1 211.213 14.2644   1
  11  -1  11 172.242 13.7908  -2
 -11   1   1 172.242 13.7908   1
  10  -1  10 96.5863 10.3028  -2
 -10   1   1 96.5863 10.3028   1
   9  -1   9 132.420 9.30046  -2
  -9   1   1 132.420 9.30046   1
   8  -1   8 2890.00 90.5160  -2
  -8   1   1 2890.00 90.5160   1
   7  -1   7 46.8118 6.09852  -2
  -7   1   1 46.8118 6.09852   1
   6  -1   6 894.781 33.4089  -2
  -6   1   1 894.781 33.4089   1
   5  -1   5 4652.27 279.643  -2
  -5   1   1 4652.27 279.643   1
   4  -1   4 89.7677 9.34459  -2
  -4   1   1 89.7677 9.34459   1
  -3   1   1 131.314 4.14210   1
  -2   1   1 62.9076 2.21743   1
  -1   1   1 1.90363 0.44523   1
   2   1   1 25.1198 1.56139   1
   3   1   1 82.8465 3.18261   1
   4   1   1 2983.99 92.9689   1
   5   1   4 1422.09 52.3229  -2
   5   1   1 1422.09 52.3229   1
   6   1   5 1118.41 41.9597  -2
   6   1   1 1118.41 41.9597   1
   7   1   6 411.404 14.9667  -2
   7   1   1 411.404 14.9667   1
   8   1   7 70.5048 7.63216  -2
   8   1   1 70.5048 7.63216   1
   9   1   8 173.753 10.7011  -2
   9   1   1 173.753 10.7011   1
  10   1   9 284.672 16.7924  -2
  10   1   1 284.672 16.7924   1
  11   1  10 22.1307 13.2740  -2
  11   1   1 22.1307 13.2740   1
  12   1  11 320.274 29.0654  -2
  12   1   1 320.274 29.0654   1
  13   1  12 1083.53 54.9605  -2
  13   1   1 1083.53 54.9605   1
  14   1  12 57.5814 39.3072  -2
  14   1   1 57.5814 39.3072   1
  15   1   1 48.8137 14.2205   1
  16   1  14 224.077 55.9449  -2
  16   1   1 224.077 55.9449   1
  15  -2  14 102.520 23.9605  -2
 -15   2   1 102.520 23.9605   1
  14  -2  13 167.630 18.7650  -2
 -14   2   1 167.630 18.7650   1
  13  -2  12 1632.39 76.3777  -2
 -13   2   1 1632.39 76.3777   1
  12  -2  11 50.0999 18.8297  -2
 -12   2   1 50.0999 18.8297   1
  11  -2  10 99.6564 24.0874  -2
 -11   2   1 99.6564 24.0874   1
 -10   2   1 130.741 7.54397   1
   9  -2   9 2081.67 128.240  -2
  -9   2   1 2081.67 128.240   1
   8  -2   8 682.559 33.0001  -2
  -8   2   1 682.559 33.0001   1
   7  -2   7 589.254 28.3211  -2
  -7   2   1 589.254 28.3211   1
   6  -2   6 242.940 14.4337  -2
  -6   2   1 242.940 14.4337   1
   5  -2   5 927.999 29.8078  -2
  -5   2   1 927.999 29.8078   1
   4  -2   4 1734.47 53.7497  -2
  -4   2   1 1734.47 53.7497   1
   3  -2   3 288.174 9.64596  -2
  -3   2   1 288.174 9.64596   1
   2  -2   2 1246.43 31.7768  -2
  -2   2   1 1246.43 31.7768   1
   1  -2   1 276.834 10.3761  -2
  -1   2   1 276.834 10.3761   1
   1   2   1 298.681 13.6382  -2
   1   2   1 298.681 13.6382   1
   2   2   2 412.666 26.1716  -2
   2   2   1 412.666 26.1716   1
   3   2   1 696.930 22.2713   1
   4   2   1 4684.06 145.480   1
   5   2   1 25.3373 2.44051   1
   6   2   1 128.345 5.69401   1
   7   2   1 1.18388 2.75497   1
   8   2   7 371.536 29.5792  -2
   8   2   1 371.536 29.5792   1
   9   2   8 162.594 18.1671  -2
   9   2   1 162.594 18.1671   1
  10   2   9 247.248 13.1346  -2
  10   2   1 247.248 13.1346   1
  11   2  10 680.187 28.6172  -2
  11   2   1 680.187 28.6172   1
  12   2  11 -7.1970 10.8796  -2
  12   2   1 -7.1970 10.8796   1
  13   2  12 120.784 12.9651  -2
  13   2   1 120.784 12.9651   1
  14   2  13 789.769 35.2997  -2
  14   2   1 789.769 35.2997   1
  15   2  14 80.8620 27.7111  -2
  15   2   1 80.8620 27.7111   1
  16   2  15 125.585 33.2558  -2
  16   2   1 125.585 33.2558   1
  15  -3  14 33.0729 21.8157  -2
 -15   3   1 33.0729 21.8157   1
  14  -3  13 114.755 15.1957  -2
 -14   3   1 114.755 15.1957   1
  13  -3  12 86.3516 11.6589  -2
 -13   3   1 86.3516 11.6589   1
  12  -3  11 525.906 24.3377  -2
 -12   3   1 525.906 24.3377   1
  11  -3  10 45.8511 9.79400  -2
 -11   3   1 45.8511 9.79400   1
  10  -3   9 34.4534 15.1346  -2
 -10   3   1 34.4534 15.1346   1
   9  -3   8 499.381 19.2977  -2
  -9   3   1 499.381 19.2977   1
   8  -3   7 443.590 23.7964  -2
  -8   3   1 443.590 23.7964   1
   7  -3   6 18.4124 9.87533  -2
  -7   3   1 18.4124 9.87533   1
   6  -3   5 -2.3354 11.1403  -2
  -6   3   1 -2.3354 11.1403   1
  -5   3   1 6.58930 1.76128   1
  -4   3   1 477.723 12.6696   1
  -3   3   1 5358.91 163.141   1
  -2   3   1 726.463 18.3428   1
   1  -3   1 99.5079 7.48418  -2
  -1   3   1 99.5079 7.48418   1
   1   3   1 1812.97 65.7749  -2
   1   3   1 1812.97 65.7749   1
   2   3   2 747.497 23.6736  -2
   2   3   1 747.497 23.6736   1
   3   3   3 3063.91 109.975  -2
   3   3   1 3063.91 109.975   1
   4   3   4 1851.05 58.0696  -2
   4   3   1 1851.05 58.0696   1
   5   3   5 50.4912 6.08163  -2
   5   3   1 50.4912 6.08163   1
   6   3   6 1185.26 55.1064  -2
   6   3   1 1185.26 55.1064   1
   7   3   7 317.098 19.8620  -2
   7   3   1 317.098 19.8620   1
   8   3   8 1954.07 90.0528  -2
   8   3   1 1954.07 90.0528   1
   9   3   1 1321.76 60.0645   1
  10   3   1 0.29396 4.24751   1
  11   3   1 196.459 9.85266   1
  12   3   1 187.139 12.6288   1
  13   3  12 75.8776 22.7613  -2
  13   3   1 75.8776 22.7613   1
  14   3  13 391.380 25.8732  -2
  14   3   1 391.380 25.8732   1
  15   3  14 777.004 49.5084  -2
  15   3   1 777.004 49.5084   1
  15  -4  13 44.7724 31.8458  -2
 -15   4   1 44.7724 31.8458   1
  14  -4  12 66.1014 34.0540  -2
 -14   4   1 66.1014 34.0540   1
  13  -4  11 100.485 31.0588  -2
 -13   4   1 100.485 31.0588   1
  12  -4  11 177.432 30.5874  -2
 -12   4   1 177.432 30.5874   1
  11  -4  10 31.0098 17.0824  -2
 -11   4   1 31.0098 17.0824   1
  10  -4   9 160.822 18.4781  -2
 -10   4   1 160.822 18.4781   1
   9  -4   8 372.416 15.9806  -2
  -9   4   1 372.416 15.9806   1
   8  -4   7 128.036 8.06011  -2
  -8   4   1 128.036 8.06011   1
   7  -4   6 76.7197 5.99276  -2
  -7   4   1 76.7197 5.99276   1
   6  -4   5 329.065 9.85623  -2
  -6   4   1 329.065 9.85623   1
   5  -4   4 1453.55 45.2247  -2
  -5   4   1 1453.55 45.2247   1
   4  -4   3 120.144 4.35509  -2
  -4   4   1 120.144 4.35509   1
   3  -4   2 1928.56 59.6840  -2
  -3   4   1 1928.56 59.6840   1
   2  -4   1 4777.14 202.833  -2
  -2   4   1 4777.14 202.833   1
  -1   4   0 1365.60 58.4836  -2
  -1   4   1 1365.60 58.4836   1
   1   4   1 627.486 19.9010   1
   2   4   1 79.2854 3.36948   1
   3   4   1 99.4044 3.73034   1
   4   4   1 3.31444 1.74622   1
   5   4   5 363.170 27.1017  -2
   5   4   1 363.170 27.1017   1
   6   4   6 151.624 13.8188  -2
   6   4   1 151.624 13.8188   1
   7   4   7 2144.84 78.3105  -2
   7   4   1 2144.84 78.3105   1
   8   4   8 177.257 16.2394  -2
   8   4   1 177.257 16.2394   1
   9   4   9 16.3946 10.5039  -2
   9   4   1 16.3946 10.5039   1
  10   4  10 1412.16 53.4235  -2
  10   4   1 1412.16 53.4235   1
  11   4  11 217.755 15.9534  -2
  11   4   1 217.755 15.9534   1
  12   4  12 112.711 16.4946  -2
  12   4   1 112.711 16.4946   1
  13   4  13 219.658 17.2348  -2
  13   4   1 219.658 17.2348   1
  14   4  14 57.8548 17.1824  -2
  14   4   1 57.8548 17.1824   1
  15   4  15 30.7901 32.1690  -2
  15   4   1 30.7901 32.1690   1
  15  -5  13 68.6234 16.8021  -2
 -15   5   1 68.6234 16.8021   1
  14  -5  12 133.334 14.8070  -2
 -14   5   1 133.334 14.8070   1
  13  -5  11 160.342 16.9180  -2
 -13   5   1 160.342 16.9180   1
  12  -5  10 24.7479 13.3281  -2
 -12   5   1 24.7479 13.3281   1
  11  -5   9 576.904 26.6927  -2
 -11   5   1 576.904 26.6927   1
  10  -5   8 132.569 12.7144  -2
 -10   5   1 132.569 12.7144   1
   9  -5   7 59.8234 19.1162  -2
  -9   5   1 59.8234 19.1162   1
   8  -5   6 135.762 18.5976  -2
  -8   5   1 135.762 18.5976   1
  -7   5   1 47.8365 3.35802   1
  -6   5   1 1966.95 49.9433   1
   5  -5   4 799.704 50.1136  -2
  -5   5   1 799.704 50.1136   1
   4  -5   3 181.045 9.76980  -2
  -4   5   1 181.045 9.76980   1
   3  -5   2 539.099 24.1540  -2
  -3   5   1 539.099 24.1540   1
   2  -5   1 789.210 28.3705  -2
  -2   5   1 789.210 28.3705   1
  -1   5   0 1082.27 65.9074  -2
  -1   5   1 1082.27 65.9074   1
   0   5   1 165.702 5.88164  -2
   0   5   1 165.702 5.88164   1
   1   5   2 1546.93 55.7431  -2
   1   5   1 1546.93 55.7431   1
   2   5   3 405.529 10.9925  -2
   2   5   1 405.529 10.9925   1
   3   5   4 206.157 7.64234  -2
   3   5   1 206.157 7.64234   1
   4   5   5 644.967 24.7640  -2
   4   5   1 644.967 24.7640   1
   5   5   6 1410.88 51.5403  -2
   5   5   1 1410.88 51.5403   1
   6   5   7 1674.63 61.4805  -2
   6   5   1 1674.63 61.4805   1
   7   5   8 64.1039 16.7720  -2
   7   5   1 64.1039 16.7720   1
   8   5   1 256.223 10.2910   1
   9   5   1 191.878 8.62597   1
  10   5   1 12.6907 4.71624   1
  11   5  11 69.3700 21.8056  -2
  11   5   1 69.3700 21.8056   1
  12   5  12 -10.531 15.7657  -2
  12   5   1 -10.531 15.7657   1
  13   5  13 29.1701 16.2895  -2
  13   5   1 29.1701 16.2895   1
  14   5  14 608.761 28.3971  -2
  14   5   1 608.761 28.3971   1
  15   5  15 50.2682 21.3062  -2
  15   5   1 50.2682 21.3062   1
 -15   6   1 24.4263 10.7687   1
  14  -6  12 632.055 33.6883  -2
 -14   6   1 632.055 33.6883   1
  13  -6  11 592.684 27.9126  -2
 -13   6   1 592.684 27.9126   1
  12  -6  10 436.050 19.8641  -2
 -12   6   1 436.050 19.8641   1
  11  -6   9 463.476 19.5030  -2
 -11   6   1 463.476 19.5030   1
  10  -6   8 829.444 28.6612  -2
 -10   6   1 829.444 28.6612   1
   9  -6   7 244.428 11.7609  -2
  -9   6   1 244.428 11.7609   1
   8  -6   6 353.936 13.7512  -2
  -8   6   1 353.936 13.7512   1
   7  -6   5 817.321 26.7771  -2
  -7   6   1 817.321 26.7771   1
   6  -6   4 215.094 8.03708  -2
  -6   6   1 215.094 8.03708   1
   5  -6   3 229.958 8.46568  -2
  -5   6   1 229.958 8.46568   1
   4  -6   2 360.599 17.5006  -2
  -4   6   1 360.599 17.5006   1
   3  -6   1 949.747 58.6251  -2
  -3   6   1 949.747 58.6251   1
  -2   6   1 382.412 14.1489   1
  -1   6   1 229.335 7.89841   1
   0   6   1 609.591 19.3385   1
   1   6   1 310.190 10.8477   1
   2   6   3 1197.32 53.5114  -2
   2   6   1 1197.32 53.5114   1
   3   6   4 854.946 27.3185  -2
   3   6   1 854.946 27.3185   1
   4   6   5 561.360 19.3342  -2
   4   6   1 561.360 19.3342   1
   5   6   6 1308.30 41.8705  -2
   5   6   1 1308.30 41.8705   1
   6   6   7 956.247 31.5161  -2
   6   6   1 956.247 31.5161   1
   7   6   8 252.564 13.1117  -2
   7   6   1 252.564 13.1117   1
   8   6   9 2820.96 102.694  -2
   8   6   1 2820.96 102.694   1
   9   6  10 74.7599 11.3770  -2
   9   6   1 74.7599 11.3770   1
  10   6  11 12.8708 14.3991  -2
  10   6   1 12.8708 14.3991   1
  11   6  12 127.673 14.9743  -2
  11   6   1 127.673 14.9743   1
  12   6  13 92.7408 24.7947  -2
  12   6   1 92.7408 24.7947   1
  13   6  14 65.1228 21.6487  -2
  13   6   1 65.1228 21.6487   1
  14   6  15 213.218 32.1418  -2
  14   6   1 213.218 32.1418   1
  15   6  16 41.7968 40.8548  -2
  15   6   1 41.7968 40.8548   1
  15  -7  12 192.652 24.0012  -2
 -15   7   1 192.652 24.0012   1
  14  -7  11 15.4461 17.3070  -2
 -14   7   1 15.4461 17.3070   1
  13  -7  10 249.468 18.0988  -2
 -13   7   1 249.468 18.0988   1
  12  -7   9 393.503 25.2494  -2
 -12   7   1 393.503 25.2494   1
  11  -7   8 44.8686 14.9941  -2
 -11   7   1 44.8686 14.9941   1
  10  -7   7 76.5717 23.1501  -2
 -10   7   1 76.5717 23.1501   1
  -9   7   1 123.375 5.96198   1
   8  -7   6 28.4843 11.0882  -2
  -8   7   1 28.4843 11.0882   1
   7  -7   5 505.434 20.5610  -2
  -7   7   1 505.434 20.5610   1
   6  -7   4 171.606 7.46956  -2
  -6   7   1 171.606 7.46956   1
   5  -7   3 115.663 8.30211  -2
  -5   7   1 115.663 8.30211   1
   4  -7   2 1568.09 55.8357  -2
  -4   7   1 1568.09 55.8357   1
   3  -7   1 645.964 23.6375  -2
  -3   7   1 645.964 23.6375   1
  -2   7   0 803.612 29.2525  -2
  -2   7   1 803.612 29.2525   1
  -1   7   1 209.068 7.75824  -2
  -1   7   1 209.068 7.75824   1
   0   7   2 882.454 28.0235  -2
   0   7   1 882.454 28.0235   1
   1   7   3 606.929 22.8558  -2
   1   7   1 606.929 22.8558   1
   2   7   4 71.7204 6.12034  -2
   2   7   1 71.7204 6.12034   1
   3   7   5 531.546 17.9216  -2
   3   7   1 531.546 17.9216   1
   4   7   6 387.456 16.3289  -2
   4   7   1 387.456 16.3289   1
   5   7   7 35.1793 18.8501  -2
   5   7   1 35.1793 18.8501   1
   6   7   1 298.670 10.7324   1
   7   7   1 162.581 7.87793   1
   8   7   9 79.9078 24.5482  -2
   8   7   1 79.9078 24.5482   1
   9   7  10 581.761 28.7680  -2
   9   7   1 581.761 28.7680   1
  10   7  11 797.325 35.1728  -2
  10   7   1 797.325 35.1728   1
  11   7  12 14.5504 13.7757  -2
  11   7   1 14.5504 13.7757   1
  12   7  13 857.046 28.8091  -2
  12   7   1 857.046 28.8091   1
  13   7  14 104.478 16.9352  -2
  13   7   1 104.478 16.9352   1
  14   7  15 263.536 27.8281  -2
  14   7   1 263.536 27.8281   1
  14  -8  11 169.772 20.1945  -2
 -14   8   1 169.772 20.1945   1
  13  -8  10 64.7832 14.5018  -2
 -13   8   1 64.7832 14.5018   1
  12  -8   9 259.823 15.1272  -2
 -12   8   1 259.823 15.1272   1
  11  -8   8 117.428 8.59625  -2
 -11   8   1 117.428 8.59625   1
  10  -8   7 65.0408 8.67447  -2
 -10   8   1 65.0408 8.67447   1
   9  -8   6 315.668 13.1251  -2
  -9   8   1 315.668 13.1251   1
   8  -8   5 163.197 9.00252  -2
  -8   8   1 163.197 9.00252   1
   7  -8   4 1965.26 70.5487  -2
  -7   8   1 1965.26 70.5487   1
   6  -8   3 120.275 11.7671  -2
  -6   8   1 120.275 11.7671   1
   5  -8   2 112.237 10.9401  -2
  -5   8   1 112.237 10.9401   1
   4  -8   1 418.959 29.6100  -2
  -4   8   1 418.959 29.6100   1
  -3   8   1 462.175 15.0862   1
  -2   8   1 26.5048 2.60480   1
  -1   8   1 37.6457 11.4753  -2
  -1   8   1 37.6457 11.4753   1
   0   8   2 1138.20 41.7156  -2
   0   8   1 1138.20 41.7156   1
   1   8   3 2230.78 98.5300  -2
   1   8   1 2230.78 98.5300   1
   2   8   4 1943.17 70.3858  -2
   2   8   1 1943.17 70.3858   1
   3   8   5 26.9167 3.73348  -2
   3   8   1 26.9167 3.73348   1
   4   8   6 2742.66 76.6339  -2
   4   8   1 2742.66 76.6339   1
   5   8   7 1899.72 59.9902  -2
   5   8   1 1899.72 59.9902   1
   6   8   8 389.579 15.5767  -2
   6   8   1 389.579 15.5767   1
   7   8   9 25.9980 10.2977  -2
   7   8   1 25.9980 10.2977   1
   8   8  10 540.229 30.7228  -2
   8   8   1 540.229 30.7228   1
   9   8  11 597.729 29.5536  -2
   9   8   1 597.729 29.5536   1
  10   8  12 873.518 46.2076  -2
  10   8   1 873.518 46.2076   1
  11   8  13 126.990 20.8412  -2
  11   8   1 126.990 20.8412   1
  12   8   1 4.43621 6.26472   1
  13   8  14 326.425 59.1735  -2
  13   8   1 326.425 59.1735   1
  14   8  15 -7.4440 54.4074  -2
  14   8   1 -7.4440 54.4074   1
 -14   9   1 5.14955 25.4054   1
  13  -9   9 111.133 19.7496  -2
 -13   9   1 111.133 19.7496   1
 -12   9   1 28.0237 5.09126   1
  11  -9   8 413.355 33.9188  -2
 -11   9   1 413.355 33.9188   1
  10  -9   7 10.5335 14.0331  -2
 -10   9   1 10.5335 14.0331   1
   9  -9   6 175.620 16.5750  -2
  -9   9   1 175.620 16.5750   1
   8  -9   5 2116.76 77.2668  -2
  -8   9   1 2116.76 77.2668   1
   7  -9   4 236.652 13.5122  -2
  -7   9   1 236.652 13.5122   1
   6  -9   3 248.772 10.6894  -2
  -6   9   1 248.772 10.6894   1
   5  -9   2 195.817 9.75104  -2
  -5   9   1 195.817 9.75104   1
   4  -9   1 1053.80 38.1532  -2
  -4   9   1 1053.80 38.1532   1
  -3   9   0 658.758 24.6931  -2
  -3   9   1 658.758 24.6931   1
  -2   9   1 425.355 16.7021  -2
  -2   9   1 425.355 16.7021   1
  -1   9   2 2137.21 66.4377  -2
  -1   9   1 2137.21 66.4377   1
   0   9   3 201.209 8.90640  -2
   0   9   1 201.209 8.90640   1
   1   9   4 1712.46 77.3374  -2
   1   9   1 1712.46 77.3374   1
   2   9   1 464.902 16.6421   1
   3   9   1 93.9650 4.00867   1
   4   9   1 659.758 19.9821   1
   5   9   7 92.7988 20.6387  -2
   5   9   1 92.7988 20.6387   1
   6   9   8 280.300 17.0019  -2
   6   9   1 280.300 17.0019   1
   7   9   9 261.302 20.5378  -2
   7   9   1 261.302 20.5378   1
   8   9  10 399.415 24.1243  -2
   8   9   1 399.415 24.1243   1
   9   9  11 36.0495 12.2111  -2
   9   9   1 36.0495 12.2111   1
  10   9  12 700.901 31.3247  -2
  10   9   1 700.901 31.3247   1
  11   9  13 148.219 16.0805  -2
  11   9   1 148.219 16.0805   1
  12   9  14 38.0596 14.4447  -2
  12   9   1 38.0596 14.4447   1
  13   9  15 41.9478 17.4706  -2
  13   9   1 41.9478 17.4706   1
  13 -10   9 25.0604 13.4993  -2
 -13  10   1 25.0604 13.4993   1
  12 -10   8 125.056 14.4629  -2
 -12  10   1 125.056 14.4629   1
  11 -10   7 365.417 18.6630  -2
 -11  10   1 365.417 18.6630   1
  10 -10   6 33.2072 13.4712  -2
 -10  10   1 33.2072 13.4712   1
   9 -10   5 47.0593 22.7331  -2
  -9  10   1 47.0593 22.7331   1
   8 -10   4 989.379 64.9267  -2
  -8  10   1 989.379 64.9267   1
   7 -10   3 1844.15 114.190  -2
  -7  10   1 1844.15 114.190   1
  -6  10   1 214.223 9.67059   1
  -5  10   1 293.448 12.7814   1
   4 -10   1 867.030 39.7262  -2
  -4  10   1 867.030 39.7262   1
  -3  10   0 336.840 17.8678  -2
  -3  10   1 336.840 17.8678   1
  -2  10   1 550.855 21.3213  -2
  -2  10   1 550.855 21.3213   1
  -1  10   2 307.266 13.1309  -2
  -1  10   1 307.266 13.1309   1
   0  10   3 167.803 8.89531  -2
   0  10   1 167.803 8.89531   1
   1  10   4 24.2528 5.06927  -2
   1  10   1 24.2528 5.06927   1
   2  10   5 108.841 7.97583  -2
   2  10   1 108.841 7.97583   1
   3  10   6 773.392 30.0328  -2
   3  10   1 773.392 30.0328   1
   4  10   7 106.500 5.88169  -2
   4  10   1 106.500 5.88169   1
   5  10   8 527.211 19.7244  -2
   5  10   1 527.211 19.7244   1
   6  10   9 883.815 30.1985  -2
   6  10   1 883.815 30.1985   1
   7  10  10 158.237 14.1237  -2
   7  10   1 158.237 14.1237   1
   8  10  11 25.8749 15.5889  -2
   8  10   1 25.8749 15.5889   1
   9  10  12 139.976 23.5154  -2
   9  10   1 139.976 23.5154   1
  10  10   1 237.588 12.4671   1
  11  10  13 227.314 48.4698  -2
  11  10   1 227.314 48.4698   1
  12  10  14 76.6017 21.1408  -2
  12  10   1 76.6017 21.1408   1
  13  10  15 68.9880 32.6941  -2
  13  10   1 68.9880 32.6941   1
  13 -11   9 378.820 28.0805  -2
 -13  11   1 378.820 28.0805   1
  12 -11   8 377.188 20.7680  -2
 -12  11   1 377.188 20.7680   1
  11 -11   7 104.208 14.0527  -2
 -11  11   1 104.208 14.0527   1
  10 -11   6 106.783 12.1561  -2
 -10  11   1 106.783 12.1561   1
   9 -11   5 80.7445 11.6629  -2
  -9  11   1 80.7445 11.6629   1
   8 -11   4 -1.0360 7.97476  -2
  -8  11   1 -1.0360 7.97476   1
   7 -11   3 82.6903 9.33566  -2
  -7  11   1 82.6903 9.33566   1
   6 -11   2 178.515 9.55502  -2
  -6  11   1 178.515 9.55502   1
   5 -11   1 -2.2421 6.09358  -2
  -5  11   1 -2.2421 6.09358   1
  -4  11   0 184.138 10.8480  -2
  -4  11   1 184.138 10.8480   1
  -3  11   1 36.9764 7.72088  -2
  -3  11   1 36.9764 7.72088   1
  -2  11   2 802.466 30.4861  -2
  -2  11   1 802.466 30.4861   1
  -1  11   3 -9.3933 10.1054  -2
  -1  11   1 -9.3933 10.1054   1
   0  11   1 273.796 11.1419   1
   1  11   1 1.75637 3.29526   1
   2  11   1 16.8485 3.93425   1
   3  11   6 191.068 15.7772  -2
   3  11   1 191.068 15.7772   1
   4  11   7 127.299 12.1945  -2
   4  11   1 127.299 12.1945   1
   5  11   8 96.8917 7.17067  -2
   5  11   1 96.8917 7.17067   1
   6  11   9 556.026 18.7906  -2
   6  11   1 556.026 18.7906   1
   7  11  10 -1.2876 9.44979  -2
   7  11   1 -1.2876 9.44979   1
   8  11  11 195.756 13.1928  -2
   8  11   1 195.756 13.1928   1
   9  11  12 208.096 16.8821  -2
   9  11   1 208.096 16.8821   1
  10  11  13 256.461 17.0342  -2
  10  11   1 256.461 17.0342   1
  11  11  14 353.857 21.1004  -2
  11  11   1 353.857 21.1004   1
  12  11  15 385.466 23.4607  -2
  12  11   1 385.466 23.4607   1
  12 -12   7 289.081 23.2882  -2
 -12  12   1 289.081 23.2882   1
  11 -12   6 166.601 17.4191  -2
 -11  12   1 166.601 17.4191   1
  10 -12   5 141.192 21.4992  -2
 -10  12   1 141.192 21.4992   1
  -9  12   1 36.2700 6.24557   1
  -8  12   1 25.2587 5.56291   1
   7 -12   3 13.7139 15.7914  -2
  -7  12   1 13.7139 15.7914   1
   6 -12   2 248.109 14.8995  -2
  -6  12   1 248.109 14.8995   1
   5 -12   1 643.685 32.0080  -2
  -5  12   1 643.685 32.0080   1
  -4  12   0 10.4652 7.44719  -2
  -4  12   1 10.4652 7.44719   1
  -3  12   1 110.250 11.4227  -2
  -3  12   1 110.250 11.4227   1
  -2  12   2 729.598 28.0952  -2
  -2  12   1 729.598 28.0952   1
  -1  12   3 297.424 14.0405  -2
  -1  12   1 297.424 14.0405   1
   0  12   4 490.606 20.5520  -2
   0  12   1 490.606 20.5520   1
   1  12   5 207.141 12.2045  -2
   1  12   1 207.141 12.2045   1
   2  12   6 417.573 15.2009  -2
   2  12   1 417.573 15.2009   1
   3  12   7 398.341 19.3977  -2
   3  12   1 398.341 19.3977   1
   4  12   8 2.84613 16.1383  -2
   4  12   1 2.84613 16.1383   1
   5  12   9 175.913 19.3320  -2
   5  12   1 175.913 19.3320   1
   6  12  10 66.0954 28.8913  -2
   6  12   1 66.0954 28.8913   1
   7  12   1 16.4130 4.85951   1
   8  12  11 23.0469 35.8534  -2
   8  12   1 23.0469 35.8534   1
   9  12  12 -5.1043 26.6305  -2
   9  12   1 -5.1043 26.6305   1
  10  12  13 72.2481 17.3847  -2
  10  12   1 72.2481 17.3847   1
  11  12  14 91.0845 22.7534  -2
  11  12   1 91.0845 22.7534   1
  11 -13   6 98.5578 16.8162  -2
 -11  13   1 98.5578 16.8162   1
  10 -13   5 134.180 12.4674  -2
 -10  13   1 134.180 12.4674   1
   9 -13   4 488.780 22.3230  -2
  -9  13   1 488.780 22.3230   1
   8 -13   3 750.289 30.4435  -2
  -8  13   1 750.289 30.4435   1
   7 -13   2 616.780 20.7161  -2
  -7  13   1 616.780 20.7161   1
   6 -13   1 219.154 14.6065  -2
  -6  13   1 219.154 14.6065   1
  -5  13   0 849.239 33.4445  -2
  -5  13   1 849.239 33.4445   1
  -4  13   1 106.725 14.7323  -2
  -4  13   1 106.725 14.7323   1
  -3  13   1 2.43962 4.19902   1
  -2  13   1 611.558 21.6610   1
  -1  13   1 1250.36 40.6249   1
   0  13   4 327.172 15.3262  -2
   0  13   1 327.172 15.3262   1
   1  13   5 219.369 15.0629  -2
   1  13   1 219.369 15.0629   1
   2  13   6 1417.48 45.8533  -2
   2  13   1 1417.48 45.8533   1
   3  13   7 1129.15 54.6135  -2
   3  13   1 1129.15 54.6135   1
   4  13   8 448.129 27.9785  -2
   4  13   1 448.129 27.9785   1
   5  13   9 434.349 20.8708  -2
   5  13   1 434.349 20.8708   1
   6  13  10 192.259 14.6594  -2
   6  13   1 192.259 14.6594   1
   7  13  11 11.0944 8.69327  -2
   7  13   1 11.0944 8.69327   1
   8  13  12 235.884 13.8112  -2
   8  13   1 235.884 13.8112   1
   9  13  13 93.9681 15.1639  -2
   9  13   1 93.9681 15.1639   1
  10  13  14 -36.493 29.3312  -2
  10  13   1 -36.493 29.3312   1
  10 -14   5 197.107 25.8527  -2
 -10  14   1 197.107 25.8527   1
   9 -14   4 338.971 19.2310  -2
  -9  14   1 338.971 19.2310   1
   8 -14   3 134.989 14.0632  -2
  -8  14   1 134.989 14.0632   1
   7 -14   2 335.668 16.4201  -2
  -7  14   1 335.668 16.4201   1
   6 -14   1 1299.81 49.0690  -2
  -6  14   1 1299.81 49.0690   1
  -5  14   0 406.163 16.4105  -2
  -5  14   1 406.163 16.4105   1
  -4  14   1 12.6697 7.13900  -2
  -4  14   1 12.6697 7.13900   1
  -3  14   2 342.080 14.1446  -2
  -3  14   1 342.080 14.1446   1
  -2  14   3 96.7153 9.10587  -2
  -2  14   1 96.7153 9.10587   1
  -1  14   4 38.3172 9.08935  -2
  -1  14   1 38.3172 9.08935   1
   0  14   5 182.678 12.0652  -2
   0  14   1 182.678 12.0652   1
   1  14   6 426.991 18.3965  -2
   1  14   1 426.991 18.3965   1
   2  14   7 202.993 14.4133  -2
   2  14   1 202.993 14.4133   1
   3  14   8 152.951 30.2572  -2
   3  14   1 152.951 30.2572   1
   4  14   1 42.1355 11.2206   1
   5  14   9 146.465 35.1447  -2
   5  14   1 146.465 35.1447   1
   6  14  10 281.924 30.3736  -2
   6  14   1 281.924 30.3736   1
   7  14  11 345.413 29.3090  -2
   7  14   1 345.413 29.3090   1
   8  14  12 81.2089 27.2705  -2
   8  14   1 81.2089 27.2705   1
   9  14  13 248.165 30.4939  -2
   9  14   1 248.165 30.4939   1
   9 -15   3 203.574 19.1094  -2
  -9  15   1 203.574 19.1094   1
   8 -15   2 44.4050 19.8580  -2
  -8  15   1 44.4050 19.8580   1
   7 -15   1 221.401 22.0616  -2
  -7  15   1 221.401 22.0616   1
  -6  15   0 455.794 41.4395  -2
  -6  15   1 455.794 41.4395   1
  -5  15   1 -0.0585 5.90961   1
  -4  15   1 10.0380 5.58797   1
  -3  15   2 762.775 31.3870  -2
  -3  15   1 762.775 31.3870   1
  -2  15   3 791.271 28.6573  -2
  -2  15   1 791.271 28.6573   1
  -1  15   4 242.799 13.5497  -2
  -1  15   1 242.799 13.5497   1
   0  15   5 87.7367 12.5610  -2
   0  15   1 87.7367 12.5610   1
   1  15   6 55.8219 10.7131  -2
   1  15   1 55.8219 10.7131   1
   2  15   7 30.9411 11.7398  -2
   2  15   1 30.9411 11.7398   1
   3  15   8 79.6676 10.5283  -2
   3  15   1 79.6676 10.5283   1
   4  15   9 31.4547 9.78391  -2
   4  15   1 31.4547 9.78391   1
   5  15  10 225.176 18.7126  -2
   5  15   1 225.176 18.7126   1
   6  15  11 687.468 40.0983  -2
   6  15   1 687.468 40.0983   1
   7  15  12 319.916 31.5401  -2
   7  15   1 319.916 31.5401   1
   8  15  13 26.9060 39.0424  -2
   8  15   1 26.9060 39.0424   1
   8 -16   2 138.272 29.1562  -2
  -8  16   1 138.272 29.1562   1
   7 -16   1 75.8093 15.6809  -2
  -7  16   1 75.8093 15.6809   1
  -6  16   0 30.1657 10.8114  -2
  -6  16   1 30.1657 10.8114   1
  -5  16   1 29.5855 11.4379  -2
  -5  16   1 29.5855 11.4379   1
  -4  16   2 32.0015 11.6949  -2
  -4  16   1 32.0015 11.6949   1
  -3  16   3 196.165 15.2683  -2
  -3  16   1 196.165 15.2683   1
  -2  16   4 172.618 15.3636  -2
  -2  16   1 172.618 15.3636   1
  -1  16   5 501.384 24.4756  -2
  -1  16   1 501.384 24.4756   1
   0  16   6 137.120 21.1298  -2
   0  16   1 137.120 21.1298   1
   1  16   1 66.2296 9.01337   1
   2  16   1 244.946 15.7787   1
   3  16   8 35.4829 23.1762  -2
   3  16   1 35.4829 23.1762   1
   4  16   9 102.889 19.3924  -2
   4  16   1 102.889 19.3924   1
   5  16  10 201.168 21.3417  -2
   5  16   1 201.168 21.3417   1
   6  16  11 74.2280 25.5360  -2
   6  16   1 74.2280 25.5360   1
  -5  17   1 97.5040 20.8861  -2
  -5  17   1 97.5040 20.8861   1
  -4  17   2 251.972 22.6210  -2
  -4  17   1 251.972 22.6210   1
  -3  17   3 270.249 18.3823  -2
  -3  17   1 270.249 18.3823   1
  -2  17   4 180.599 15.3614  -2
  -2  17   1 180.599 15.3614   1
  -1  17   5 13.9735 14.7465  -2
  -1  17   1 13.9735 14.7465   1
   0  17   6 25.8718 14.3952  -2
   0  17   1 25.8718 14.3952   1
   1  17   7 676.190 35.8356  -2
   1  17   1 676.190 35.8356   1
   2  17   8 45.4385 15.1005  -2
   2  17   1 45.4385 15.1005   1
   3  17   9 526.508 26.4479  -2
   3  17   1 526.508 26.4479   1
  -1  18   1 184.173 26.8180   1
   1  17  10 -16.884 29.1327  -2
  -1 -17   2 -16.884 29.1327   1
   0  17   9 88.6726 25.2576  -2
   0 -17   2 88.6726 25.2576   1
  -1  17   8 71.0185 29.0014  -2
   1 -17   2 71.0185 29.0014   1
  -2  17   7 101.957 21.5862  -2
   2 -17   2 101.957 21.5862   1
  -3  17   6 63.4984 22.5864  -2
   3 -17   2 63.4984 22.5864   1
  -4  17   5 193.521 18.4548  -2
   4 -17   2 193.521 18.4548   1
  -5  17   4 21.0095 22.9814  -2
   5 -17   2 21.0095 22.9814   1
   4  16  12 19.1928 29.9145  -2
  -4 -16   2 19.1928 29.9145   1
   3  16  11 -43.560 42.9662  -2
  -3 -16   2 -43.560 42.9662   1
   2  16  10 69.9268 43.9859  -2
  -2 -16   2 69.9268 43.9859   1
  -1 -16   2 435.766 21.9884   1
   0  16   9 0.44045 19.7154  -2
   0 -16   2 0.44045 19.7154   1
  -1  16   8 106.929 18.3462  -2
   1 -16   2 106.929 18.3462   1
  -2  16   7 909.185 38.6745  -2
   2 -16   2 909.185 38.6745   1
  -3  16   6 117.775 21.4154  -2
   3 -16   2 117.775 21.4154   1
  -4  16   5 62.0586 18.1216  -2
   4 -16   2 62.0586 18.1216   1
  -5  16   4 58.4848 16.0707  -2
   5 -16   2 58.4848 16.0707   1
  -6  16   3 64.1882 10.0560  -2
   6 -16   2 64.1882 10.0560   1
  -7  16   2 13.7815 13.7288  -2
   7 -16   2 13.7815 13.7288   1
  -8  16   1 138.640 21.3627  -2
   8 -16   2 138.640 21.3627   1
   5  15  13 -17.750 24.1991  -2
  -5 -15   2 -17.750 24.1991   1
   4  15  12 4.07092 28.2584  -2
  -4 -15   2 4.07092 28.2584   1
   3  15  11 96.3803 14.8298  -2
  -3 -15   2 96.3803 14.8298   1
   2  15  10 71.5089 14.1886  -2
  -2 -15   2 71.5089 14.1886   1
   1  15   9 201.001 17.3553  -2
  -1 -15   2 201.001 17.3553   1
   0  15   8 57.2267 13.4735  -2
   0 -15   2 57.2267 13.4735   1
  -1  15   7 19.2057 16.0302  -2
   1 -15   2 19.2057 16.0302   1
  -2  15   6 184.673 19.0967  -2
   2 -15   2 184.673 19.0967   1
  -3  15   5 289.329 20.1874  -2
   3 -15   2 289.329 20.1874   1
   4 -15   2 -0.2530 7.91881   1
   5 -15   2 4.04873 8.90247   1
  -6  15   3 73.9460 31.7125  -2
   6 -15   2 73.9460 31.7125   1
  -7  15   2 302.769 21.1091  -2
   7 -15   2 302.769 21.1091   1
  -8  15   1 19.9088 16.9674  -2
   8 -15   2 19.9088 16.9674   1
  -9  15   0 50.5616 16.9876  -2
   9 -15   2 50.5616 16.9876   1
  10 -15   1 148.220 36.0164  -2
  10 -15   2 148.220 36.0164   1
   7  14  14 25.9441 42.2756  -2
  -7 -14   2 25.9441 42.2756   1
   6  14  13 137.524 30.8015  -2
  -6 -14   2 137.524 30.8015   1
   5  14  12 69.4060 45.2690  -2
  -5 -14   2 69.4060 45.2690   1
  -4 -14   2 7.75093 3.90173   1
   3  14  11 216.472 25.0392  -2
  -3 -14   2 216.472 25.0392   1
   2  14  10 213.136 16.7977  -2
  -2 -14   2 213.136 16.7977   1
   1  14   9 90.2074 14.3845  -2
  -1 -14   2 90.2074 14.3845   1
   0  14   8 79.1910 17.6454  -2
   0 -14   2 79.1910 17.6454   1
  -1  14   7 77.6055 16.5470  -2
   1 -14   2 77.6055 16.5470   1
  -2  14   6 33.3061 14.4855  -2
   2 -14   2 33.3061 14.4855   1
  -3  14   5 533.897 23.1099  -2
   3 -14   2 533.897 23.1099   1
  -4  14   4 255.833 15.0500  -2
   4 -14   2 255.833 15.0500   1
  -5  14   3 13.1895 10.5060  -2
   5 -14   2 13.1895 10.5060   1
  -6  14   2 136.942 13.7937  -2
   6 -14   2 136.942 13.7937   1
  -7  14   1 363.893 25.8184  -2
   7 -14   2 363.893 25.8184   1
  -8  14   0 252.343 19.5735  -2
   8 -14   2 252.343 19.5735   1
   9 -14   1 210.873 19.5116  -2
   9 -14   2 210.873 19.5116   1
  10 -14   2 84.4844 34.5381  -2
  10 -14   2 84.4844 34.5381   1
  11 -14   3 36.9586 38.3206  -2
  11 -14   2 36.9586 38.3206   1
   8  13  15 270.228 38.8904  -2
  -8 -13   2 270.228 38.8904   1
   7  13  14 381.605 24.5817  -2
  -7 -13   2 381.605 24.5817   1
   6  13  13 215.522 13.7431  -2
  -6 -13   2 215.522 13.7431   1
   5  13  12 182.637 12.0902  -2
  -5 -13   2 182.637 12.0902   1
   4  13  11 51.3349 12.4532  -2
  -4 -13   2 51.3349 12.4532   1
   3  13  10 133.029 11.2614  -2
  -3 -13   2 133.029 11.2614   1
   2  13   9 1623.79 61.2943  -2
  -2 -13   2 1623.79 61.2943   1
   1  13   8 354.714 20.1677  -2
  -1 -13   2 354.714 20.1677   1
   0  13   7 128.995 15.1515  -2
   0 -13   2 128.995 15.1515   1
  -1  13   6 606.581 46.0613  -2
   1 -13   2 606.581 46.0613   1
   2 -13   2 170.018 10.2754   1
  -3  13   5 201.727 28.6721  -2
   3 -13   2 201.727 28.6721   1
  -4  13   4 308.434 18.4069  -2
   4 -13   2 308.434 18.4069   1
  -5  13   3 296.972 21.2414  -2
   5 -13   2 296.972 21.2414   1
  -6  13   2 43.0952 21.6617  -2
   6 -13   2 43.0952 21.6617   1
  -7  13   1 594.513 43.5598  -2
   7 -13   2 594.513 43.5598   1
  -8  13   0 12.1188 12.2620  -2
   8 -13   2 12.1188 12.2620   1
   9 -13   1 27.4760 10.3161  -2
   9 -13   2 27.4760 10.3161   1
  10 -13   2 484.657 20.0165  -2
  10 -13   2 484.657 20.0165   1
  11 -13   3 51.1339 14.5977  -2
  11 -13   2 51.1339 14.5977   1
  12 -13   4 208.296 19.7492  -2
  12 -13   2 208.296 19.7492   1
   9  12  15 130.759 33.9343  -2
  -9 -12   2 130.759 33.9343   1
   8  12  14 136.054 43.9221  -2
  -8 -12   2 136.054 43.9221   1
  -7 -12   2 357.534 16.1330   1
   6  12  13 454.425 34.3506  -2
  -6 -12   2 454.425 34.3506   1
   5  12  12 81.5301 16.1372  -2
  -5 -12   2 81.5301 16.1372   1
   4  12  11 297.863 17.3411  -2
  -4 -12   2 297.863 17.3411   1
   3  12  10 602.798 26.5344  -2
  -3 -12   2 602.798 26.5344   1
   2  12   9 763.340 24.0252  -2
  -2 -12   2 763.340 24.0252   1
   1  12   8 253.546 13.4169  -2
  -1 -12   2 253.546 13.4169   1
   0  12   7 98.2832 8.84393  -2
   0 -12   2 98.2832 8.84393   1
  -1  12   6 104.191 8.64509  -2
   1 -12   2 104.191 8.64509   1
  -2  12   5 491.612 18.4641  -2
   2 -12   2 491.612 18.4641   1
  -3  12   4 19.8735 9.56922  -2
   3 -12   2 19.8735 9.56922   1
  -4  12   3 141.780 12.3112  -2
   4 -12   2 141.780 12.3112   1
  -5  12   2 424.068 20.3422  -2
   5 -12   2 424.068 20.3422   1
  -6  12   1 292.372 30.1438  -2
   6 -12   2 292.372 30.1438   1
  -7  12   0 42.9505 16.8879  -2
   7 -12   2 42.9505 16.8879   1
   8 -12   2 119.221 8.41818   1
   9 -12   2 24.8210 6.50719   1
  10 -12   2 125.538 20.9777  -2
  10 -12   2 125.538 20.9777   1
  11 -12   3 83.2312 16.5345  -2
  11 -12   2 83.2312 16.5345   1
  12 -12   4 265.992 22.1794  -2
  12 -12   2 265.992 22.1794   1
  13 -12   5 47.5305 26.3032  -2
  13 -12   2 47.5305 26.3032   1
  10  11  16 229.379 22.7123  -2
 -10 -11   2 229.379 22.7123   1
   9  11  15 90.9764 19.8100  -2
  -9 -11   2 90.9764 19.8100   1
   8  11  14 71.6445 11.7243  -2
  -8 -11   2 71.6445 11.7243   1
   7  11  13 307.882 19.3829  -2
  -7 -11   2 307.882 19.3829   1
   6  11  12 995.090 36.3521  -2
  -6 -11   2 995.090 36.3521   1
   5  11  11 50.5150 12.9329  -2
  -5 -11   2 50.5150 12.9329   1
   4  11  10 20.7102 13.6294  -2
  -4 -11   2 20.7102 13.6294   1
   3  11   9 3.84161 12.5115  -2
  -3 -11   2 3.84161 12.5115   1
   2  11   8 158.603 23.4712  -2
  -2 -11   2 158.603 23.4712   1
  -1 -11   2 11.9199 2.71429   1
   0 -11   2 2.06018 2.00627   1
   1 -11   2 2.61940 4.60691   1
  -2  11   5 863.933 34.2816  -2
   2 -11   2 863.933 34.2816   1
  -3  11   4 248.664 17.3464  -2
   3 -11   2 248.664 17.3464   1
  -4  11   3 104.755 12.7116  -2
   4 -11   2 104.755 12.7116   1
  -5  11   2 84.3627 10.1053  -2
   5 -11   2 84.3627 10.1053   1
  -6  11   1 174.174 9.90460  -2
   6 -11   2 174.174 9.90460   1
  -7  11   0 21.8200 7.39734  -2
   7 -11   2 21.8200 7.39734   1
   8 -11   1 47.9311 9.73137  -2
   8 -11   2 47.9311 9.73137   1
   9 -11   2 183.631 13.7837  -2
   9 -11   2 183.631 13.7837   1
  10 -11   3 21.5304 13.5225  -2
  10 -11   2 21.5304 13.5225   1
  11 -11   4 361.829 21.4508  -2
  11 -11   2 361.829 21.4508   1
  12 -11   5 453.993 23.0814  -2
  12 -11   2 453.993 23.0814   1
  13 -11   6 363.832 26.6363  -2
  13 -11   2 363.832 26.6363   1
  14 -11   7 250.048 49.6478  -2
  14 -11   2 250.048 49.6478   1
 -11 -10   2 -4.2817 10.8101   1
 -10 -10   2 45.4172 8.52113   1
   9  10  15 242.973 42.0430  -2
  -9 -10   2 242.973 42.0430   1
   8  10  14 102.322 20.0601  -2
  -8 -10   2 102.322 20.0601   1
   7  10  13 289.290 17.8314  -2
  -7 -10   2 289.290 17.8314   1
   6  10  12 218.370 15.6556  -2
  -6 -10   2 218.370 15.6556   1
   5  10  11 999.895 34.6713  -2
  -5 -10   2 999.895 34.6713   1
   4  10  10 161.277 11.0510  -2
  -4 -10   2 161.277 11.0510   1
   3  10   9 113.449 8.69068  -2
  -3 -10   2 113.449 8.69068   1
   2  10   8 675.529 19.1393  -2
  -2 -10   2 675.529 19.1393   1
   1  10   7 24.4020 5.27001  -2
  -1 -10   2 24.4020 5.27001   1
   0  10   6 286.522 9.44960  -2
   0 -10   2 286.522 9.44960   1
  -1  10   5 371.012 14.7732  -2
   1 -10   2 371.012 14.7732   1
  -2  10   4 1055.83 34.3729  -2
   2 -10   2 1055.83 34.3729   1
  -3  10   3 1131.75 51.2950  -2
   3 -10   2 1131.75 51.2950   1
  -4  10   2 65.6427 17.4155  -2
   4 -10   2 65.6427 17.4155   1
   5 -10   2 59.4951 5.14625   1
   6 -10   2 22.2671 4.57687   1
   7 -10   2 273.947 9.76622   1
   8 -10   1 160.804 16.7588  -2
   8 -10   2 160.804 16.7588   1
   9 -10   2 7.74503 7.23707  -2
   9 -10   2 7.74503 7.23707   1
  10 -10   3 -6.3451 8.03971  -2
  10 -10   2 -6.3451 8.03971   1
  11 -10   4 67.0018 8.91533  -2
  11 -10   2 67.0018 8.91533   1
  12 -10   5 398.973 15.8355  -2
  12 -10   2 398.973 15.8355   1
  13 -10   6 24.7444 9.69895  -2
  13 -10   2 24.7444 9.69895   1
  14 -10   7 18.6339 10.5320  -2
  14 -10   2 18.6339 10.5320   1
  12   9  17 17.2818 21.0234  -2
 -12  -9   2 17.2818 21.0234   1
  11   9  16 137.845 18.7245  -2
 -11  -9   2 137.845 18.7245   1
  10   9  15 70.0211 15.5001  -2
 -10  -9   2 70.0211 15.5001   1
   9   9  14 433.898 21.8512  -2
  -9  -9   2 433.898 21.8512   1
   8   9  13 89.7361 16.7501  -2
  -8  -9   2 89.7361 16.7501   1
   7   9  12 99.3509 17.0688  -2
  -7  -9   2 99.3509 17.0688   1
   6   9  11 358.678 27.0364  -2
  -6  -9   2 358.678 27.0364   1
   5   9  10 3206.63 204.774  -2
  -5  -9   2 3206.63 204.774   1
  -4  -9   2 22.1571 3.85859   1
  -3  -9   2 116.178 6.07069   1
  -2  -9   2 950.347 28.1023   1
   1   9   7 128.544 9.43792  -2
  -1  -9   2 128.544 9.43792   1
   0   9   6 4578.05 115.612  -2
   0  -9   2 4578.05 115.612   1
  -1   9   5 152.639 6.77306  -2
   1  -9   2 152.639 6.77306   1
  -2   9   4 50.3966 4.45340  -2
   2  -9   2 50.3966 4.45340   1
  -3   9   3 945.305 30.4608  -2
   3  -9   2 945.305 30.4608   1
  -4   9   2 1534.22 55.8567  -2
   4  -9   2 1534.22 55.8567   1
  -5   9   1 209.321 7.72516  -2
   5  -9   2 209.321 7.72516   1
  -6   9   0 405.659 11.9456  -2
   6  -9   2 405.659 11.9456   1
   7  -9   1 3527.05 89.2171  -2
   7  -9   2 3527.05 89.2171   1
   8  -9   2 259.627 12.2078  -2
   8  -9   2 259.627 12.2078   1
   9  -9   3 878.257 26.6498  -2
   9  -9   2 878.257 26.6498   1
  10  -9   4 85.5126 15.5367  -2
  10  -9   2 85.5126 15.5367   1
  11  -9   5 21.4897 17.1301  -2
  11  -9   2 21.4897 17.1301   1
  12  -9   5 445.447 43.2607  -2
  12  -9   2 445.447 43.2607   1
  13  -9   6 39.5413 21.3756  -2
  13  -9   2 39.5413 21.3756   1
  14  -9   7 155.738 21.1154  -2
  14  -9   2 155.738 21.1154   1
  15  -9   8 78.2253 28.1569  -2
  15  -9   2 78.2253 28.1569   1
  12   8  17 4.60616 30.0258  -2
 -12  -8   2 4.60616 30.0258   1
  11   8  16 4.04788 28.6569  -2
 -11  -8   2 4.04788 28.6569   1
  10   8  15 172.552 18.3029  -2
 -10  -8   2 172.552 18.3029   1
   9   8  14 106.346 16.6150  -2
  -9  -8   2 106.346 16.6150   1
   8   8  13 83.4388 15.7738  -2
  -8  -8   2 83.4388 15.7738   1
   7   8  12 176.456 13.4942  -2
  -7  -8   2 176.456 13.4942   1
   6   8  11 61.0442 10.8419  -2
  -6  -8   2 61.0442 10.8419   1
   5   8  10 869.236 42.3609  -2
  -5  -8   2 869.236 42.3609   1
   4   8   9 1068.41 40.5393  -2
  -4  -8   2 1068.41 40.5393   1
   3   8   8 519.156 15.3923  -2
  -3  -8   2 519.156 15.3923   1
   2   8   7 665.982 20.5013  -2
  -2  -8   2 665.982 20.5013   1
   1   8   6 1824.32 51.6631  -2
  -1  -8   2 1824.32 51.6631   1
   0   8   5 489.727 17.2672  -2
   0  -8   2 489.727 17.2672   1
  -1   8   4 266.443 16.5949  -2
   1  -8   2 266.443 16.5949   1
   2  -8   2 4.09845 1.62889   1
   3  -8   2 651.282 19.1659   1
   4  -8   2 622.278 16.5175   1
  -5   8   1 131.061 11.9625  -2
   5  -8   2 131.061 11.9625   1
  -6   8   0 52.7628 6.76610  -2
   6  -8   2 52.7628 6.76610   1
   7  -8   1 431.774 15.8059  -2
   7  -8   2 431.774 15.8059   1
   8  -8   2 451.873 13.9342  -2
   8  -8   2 451.873 13.9342   1
   9  -8   3 157.284 10.0055  -2
   9  -8   2 157.284 10.0055   1
  10  -8   4 242.803 10.8428  -2
  10  -8   2 242.803 10.8428   1
  11  -8   5 53.8585 7.64238  -2
  11  -8   2 53.8585 7.64238   1
  12  -8   6 218.284 11.0846  -2
  12  -8   2 218.284 11.0846   1
  13  -8   7 272.472 14.8609  -2
  13  -8   2 272.472 14.8609   1
  14  -8   8 15.6254 13.2528  -2
  14  -8   2 15.6254 13.2528   1
  15  -8   9 28.7403 43.6264  -2
  15  -8   2 28.7403 43.6264   1
  13   7  17 153.852 24.3923  -2
 -13  -7   2 153.852 24.3923   1
  12   7  16 67.7090 19.2076  -2
 -12  -7   2 67.7090 19.2076   1
  11   7  15 220.427 19.2867  -2
 -11  -7   2 220.427 19.2867   1
  10   7  14 58.9833 15.7603  -2
 -10  -7   2 58.9833 15.7603   1
   9   7  13 1215.70 47.7254  -2
  -9  -7   2 1215.70 47.7254   1
   8   7  12 185.231 22.3341  -2
  -8  -7   2 185.231 22.3341   1
   7   7  11 104.945 25.8042  -2
  -7  -7   2 104.945 25.8042   1
  -6  -7   2 58.7771 5.22313   1
   5   7  10 446.605 35.8511  -2
  -5  -7   2 446.605 35.8511   1
   4   7   9 610.448 21.3019  -2
  -4  -7   2 610.448 21.3019   1
   3   7   8 38.0561 7.40219  -2
  -3  -7   2 38.0561 7.40219   1
   2   7   7 457.350 14.7091  -2
  -2  -7   2 457.350 14.7091   1
   1   7   6 63.5018 5.39609  -2
  -1  -7   2 63.5018 5.39609   1
   0   7   5 880.808 23.1955  -2
   0  -7   2 880.808 23.1955   1
  -1   7   4 242.051 7.58008  -2
   1  -7   2 242.051 7.58008   1
  -2   7   3 354.357 10.9571  -2
   2  -7   2 354.357 10.9571   1
  -3   7   2 102.131 4.63730  -2
   3  -7   2 102.131 4.63730   1
  -4   7   1 1551.42 43.3648  -2
   4  -7   2 1551.42 43.3648   1
  -5   7   0 244.125 9.77864  -2
   5  -7   2 244.125 9.77864   1
   6  -7   1 160.215 8.47392  -2
   6  -7   2 160.215 8.47392   1
   7  -7   2 -3.4123 8.09709  -2
   7  -7   2 -3.4123 8.09709   1
   8  -7   3 4.75579 15.1208  -2
   8  -7   2 4.75579 15.1208   1
   9  -7   2 87.1839 5.31915   1
  10  -7   2 44.5766 4.42289   1
  11  -7   5 682.038 36.0574  -2
  11  -7   2 682.038 36.0574   1
  12  -7   6 160.351 16.3610  -2
  12  -7   2 160.351 16.3610   1
  13  -7   7 638.899 21.2467  -2
  13  -7   2 638.899 21.2467   1
  14  -7   8 60.6234 15.3658  -2
  14  -7   2 60.6234 15.3658   1
  15  -7   9 294.830 24.5473  -2
  15  -7   2 294.830 24.5473   1
  16  -7  10 96.6027 26.3077  -2
  16  -7   2 96.6027 26.3077   1
  13   6  17 57.7881 23.7272  -2
 -13  -6   2 57.7881 23.7272   1
  12   6  16 48.5121 21.3662  -2
 -12  -6   2 48.5121 21.3662   1
  11   6  15 89.4289 16.3880  -2
 -11  -6   2 89.4289 16.3880   1
  10   6  14 113.585 14.1374  -2
 -10  -6   2 113.585 14.1374   1
   9   6  13 483.450 18.3959  -2
  -9  -6   2 483.450 18.3959   1
   8   6  12 224.443 14.2921  -2
  -8  -6   2 224.443 14.2921   1
   7   6  11 625.884 26.0378  -2
  -7  -6   2 625.884 26.0378   1
   6   6  10 154.820 10.3512  -2
  -6  -6   2 154.820 10.3512   1
   5   6   9 225.014 10.2875  -2
  -5  -6   2 225.014 10.2875   1
   4   6   8 64.5826 6.92208  -2
  -4  -6   2 64.5826 6.92208   1
   3   6   7 39.0656 6.22615  -2
  -3  -6   2 39.0656 6.22615   1
   2   6   6 785.465 29.5093  -2
  -2  -6   2 785.465 29.5093   1
  -1  -6   2 340.873 10.0620   1
   0  -6   2 177.928 5.53832   1
   1  -6   2 21.0206 1.88615   1
   2  -6   2 11.0269 1.61977   1
  -3   6   2 1827.03 56.4535  -2
   3  -6   2 1827.03 56.4535   1
  -4   6   1 364.984 12.6831  -2
   4  -6   2 364.984 12.6831   1
  -5   6   0 142.589 7.04089  -2
   5  -6   2 142.589 7.04089   1
   6  -6   1 1917.22 48.8925  -2
   6  -6   2 1917.22 48.8925   1
   7  -6   2 146.943 6.54539  -2
   7  -6   2 146.943 6.54539   1
   8  -6   3 736.080 28.4338  -2
   8  -6   2 736.080 28.4338   1
   9  -6   4 13.7051 5.81535  -2
   9  -6   2 13.7051 5.81535   1
  10  -6   5 554.670 20.8457  -2
  10  -6   2 554.670 20.8457   1
  11  -6   6 95.1050 10.3501  -2
  11  -6   2 95.1050 10.3501   1
  12  -6   7 514.851 17.9305  -2
  12  -6   2 514.851 17.9305   1
  13  -6   8 164.266 14.1967  -2
  13  -6   2 164.266 14.1967   1
  14  -6   9 25.7809 27.8107  -2
  14  -6   2 25.7809 27.8107   1
  15  -6   2 232.500 13.3300   1
  16  -6   2 -10.520 9.55261   1
  13   5  16 383.420 27.8409  -2
 -13  -5   2 383.420 27.8409   1
  12   5  15 47.4198 18.5883  -2
 -12  -5   2 47.4198 18.5883   1
  11   5  14 117.891 21.7814  -2
 -11  -5   2 117.891 21.7814   1
  10   5  13 54.0968 22.5916  -2
 -10  -5   2 54.0968 22.5916   1
  -9  -5   2 51.8257 6.15607   1
  -8  -5   2 -2.2218 4.35974   1
   7   5  11 355.835 25.5279  -2
  -7  -5   2 355.835 25.5279   1
   6   5  10 64.5822 13.6591  -2
  -6  -5   2 64.5822 13.6591   1
   5   5   9 1334.54 43.7560  -2
  -5  -5   2 1334.54 43.7560   1
   4   5   8 407.453 13.7471  -2
  -4  -5   2 407.453 13.7471   1
   3   5   7 1495.75 38.6815  -2
  -3  -5   2 1495.75 38.6815   1
   2   5   6 2230.36 56.9372  -2
  -2  -5   2 2230.36 56.9372   1
   1   5   5 1507.69 67.6362  -2
  -1  -5   2 1507.69 67.6362   1
   0   5   4 173.045 5.67896  -2
   0  -5   2 173.045 5.67896   1
  -1   5   3 503.728 14.7847  -2
   1  -5   2 503.728 14.7847   1
  -2   5   2 130.976 5.52089  -2
   2  -5   2 130.976 5.52089   1
  -3   5   1 433.717 14.3371  -2
   3  -5   2 433.717 14.3371   1
  -4   5   0 717.891 26.2843  -2
   4  -5   2 717.891 26.2843   1
   5  -5   2 718.305 18.8205   1
   6  -5   2 3161.77 79.6844   1
   7  -5   2 2517.09 63.8449   1
   8  -5   2 62.1159 4.00340   1
   9  -5   4 397.113 23.1782  -2
   9  -5   2 397.113 23.1782   1
  10  -5   5 971.767 37.4632  -2
  10  -5   2 971.767 37.4632   1
  11  -5   6 114.269 13.5463  -2
  11  -5   2 114.269 13.5463   1
  12  -5   7 280.719 14.8430  -2
  12  -5   2 280.719 14.8430   1
  13  -5   8 270.111 15.6291  -2
  13  -5   2 270.111 15.6291   1
  14  -5   9 336.473 16.1386  -2
  14  -5   2 336.473 16.1386   1
  15  -5  10 221.138 14.1844  -2
  15  -5   2 221.138 14.1844   1
  16  -5  11 27.5570 19.4617  -2
  16  -5   2 27.5570 19.4617   1
  14   4  17 48.0325 21.7197  -2
 -14  -4   2 48.0325 21.7197   1
  13   4  16 154.724 17.7005  -2
 -13  -4   2 154.724 17.7005   1
  12   4  15 35.3192 14.6670  -2
 -12  -4   2 35.3192 14.6670   1
  11   4  14 32.0148 10.5748  -2
 -11  -4   2 32.0148 10.5748   1
  10   4  13 711.643 30.2034  -2
 -10  -4   2 711.643 30.2034   1
   9   4  12 739.711 26.2608  -2
  -9  -4   2 739.711 26.2608   1
   8   4  11 691.392 25.4121  -2
  -8  -4   2 691.392 25.4121   1
   7   4  10 72.8850 11.1795  -2
  -7  -4   2 72.8850 11.1795   1
   6   4   9 180.547 10.7313  -2
  -6  -4   2 180.547 10.7313   1
   5   4   8 190.845 12.8313  -2
  -5  -4   2 190.845 12.8313   1
   4   4   7 356.762 28.1351  -2
  -4  -4   2 356.762 28.1351   1
  -3  -4   2 405.077 12.7025   1
  -2  -4   2 67.2734 3.41863   1
  -1  -4   2 2265.47 57.5937   1
   0  -4   2 1651.70 46.2291   1
  -1   4   3 2641.13 94.2313  -2
   1  -4   2 2641.13 94.2313   1
  -2   4   2 3069.74 94.0041  -2
   2  -4   2 3069.74 94.0041   1
  -3   4   1 1735.09 53.4724  -2
   3  -4   2 1735.09 53.4724   1
  -4   4   0 35.7372 3.40142  -2
   4  -4   2 35.7372 3.40142   1
   5  -4   1 612.514 17.8351  -2
   5  -4   2 612.514 17.8351   1
   6  -4   2 101.750 5.28680  -2
   6  -4   2 101.750 5.28680   1
   7  -4   3 424.677 12.5004  -2
   7  -4   2 424.677 12.5004   1
   8  -4   4 1464.51 38.1769  -2
   8  -4   2 1464.51 38.1769   1
   9  -4   5 418.132 16.8253  -2
   9  -4   2 418.132 16.8253   1
  10  -4   6 15.7009 10.9897  -2
  10  -4   2 15.7009 10.9897   1
  11  -4   7 536.689 41.5333  -2
  11  -4   2 536.689 41.5333   1
  12  -4   8 978.955 48.6226  -2
  12  -4   2 978.955 48.6226   1
  13  -4   2 51.8114 5.78938   1
  14  -4   9 88.0391 29.6210  -2
  14  -4   2 88.0391 29.6210   1
  15  -4  10 24.0695 23.6430  -2
  15  -4   2 24.0695 23.6430   1
  16  -4  11 11.4305 25.0098  -2
  16  -4   2 11.4305 25.0098   1
  14   3  16 298.680 52.5816  -2
 -14  -3   2 298.680 52.5816   1
  13   3  15 65.8782 35.3457  -2
 -13  -3   2 65.8782 35.3457   1
  12   3  14 852.141 66.6081  -2
 -12  -3   2 852.141 66.6081   1
 -11  -3   2 211.925 11.4696   1
  10   3  13 332.191 25.7031  -2
 -10  -3   2 332.191 25.7031   1
   9   3  12 762.900 39.9987  -2
  -9  -3   2 762.900 39.9987   1
   8   3  11 6.32342 12.3825  -2
  -8  -3   2 6.32342 12.3825   1
   7   3  10 433.811 16.8107  -2
  -7  -3   2 433.811 16.8107   1
   6   3   9 1152.89 33.9092  -2
  -6  -3   2 1152.89 33.9092   1
   5   3   8 669.201 26.0054  -2
  -5  -3   2 669.201 26.0054   1
   4   3   7 1978.02 71.8555  -2
  -4  -3   2 1978.02 71.8555   1
   3   3   6 1424.72 52.0043  -2
  -3  -3   2 1424.72 52.0043   1
   2   3   5 1302.04 33.5188  -2
  -2  -3   2 1302.04 33.5188   1
   1   3   4 319.839 8.92825  -2
  -1  -3   2 319.839 8.92825   1
   0   3   3 2355.91 103.286  -2
   0  -3   2 2355.91 103.286   1
  -1   3   2 505.754 18.5924  -2
   1  -3   2 505.754 18.5924   1
   2  -3   2 62.8847 2.48926   1
   3  -3   2 2154.10 54.1777   1
   4  -3   2 1499.62 46.3041   1
   5  -3   2 158.007 5.21948   1
   6  -3   2 9.34786 2.14518   1
   7  -3   3 84.4133 10.0330  -2
   7  -3   2 84.4133 10.0330   1
   8  -3   4 214.142 12.1449  -2
   8  -3   2 214.142 12.1449   1
   9  -3   5 120.912 7.64938  -2
   9  -3   2 120.912 7.64938   1
  10  -3   6 351.475 18.3870  -2
  10  -3   2 351.475 18.3870   1
  11  -3   7 138.792 12.4624  -2
  11  -3   2 138.792 12.4624   1
  12  -3   8 743.265 26.6218  -2
  12  -3   2 743.265 26.6218   1
  13  -3   9 856.834 35.2579  -2
  13  -3   2 856.834 35.2579   1
  14  -3  10 37.4475 11.9524  -2
  14  -3   2 37.4475 11.9524   1
  15  -3  11 20.6099 15.1153  -2
  15  -3   2 20.6099 15.1153   1
  16  -3  12 352.111 28.8963  -2
  16  -3   2 352.111 28.8963   1
 -15  -2   2 138.000 21.2388   1
  14   2  16 222.702 29.3398  -2
 -14  -2   2 222.702 29.3398   1
  13   2  15 202.797 17.3289  -2
 -13  -2   2 202.797 17.3289   1
  12   2  14 490.902 21.4863  -2
 -12  -2   2 490.902 21.4863   1
  11   2  13 67.5856 15.7842  -2
 -11  -2   2 67.5856 15.7842   1
  10   2  12 325.483 17.1435  -2
 -10  -2   2 325.483 17.1435   1
   9   2  11 26.5931 12.6512  -2
  -9  -2   2 26.5931 12.6512   1
  -8  -2   2 562.971 23.1047   1
   7   2   9 127.615 19.8874  -2
  -7  -2   2 127.615 19.8874   1
  -6  -2   2 204.485 9.03090   1
  -5  -2   2 173.083 7.78137   1
  -4  -2   2 1113.16 35.8142   1
  -3  -2   2 417.392 12.7075   1
   2   2   5 112.954 11.0343  -2
  -2  -2   2 112.954 11.0343   1
   1   2   4 10.3178 2.73498  -2
  -1  -2   2 10.3178 2.73498   1
   0   2   3 1190.57 33.5524  -2
   0  -2   2 1190.57 33.5524   1
  -1   2   2 19.8954 1.84708  -2
   1  -2   2 19.8954 1.84708   1
  -2   2   1 1169.45 29.7683  -2
   2  -2   2 1169.45 29.7683   1
  -3   2   0 712.586 18.4915  -2
   3  -2   2 712.586 18.4915   1
   4  -2   1 1330.74 37.1153  -2
   4  -2   2 1330.74 37.1153   1
   5  -2   2 2742.48 84.3838  -2
   5  -2   2 2742.48 84.3838   1
   6  -2   3 24.6010 7.27977  -2
   6  -2   2 24.6010 7.27977   1
   7  -2   4 120.610 10.8313  -2
   7  -2   2 120.610 10.8313   1
   8  -2   5 2038.09 88.6817  -2
   8  -2   2 2038.09 88.6817   1
   9  -2   6 443.538 33.9449  -2
   9  -2   2 443.538 33.9449   1
  10  -2   2 52.6046 5.44041   1
  11  -2   2 125.915 8.00656   1
  12  -2   8 1186.18 56.2174  -2
  12  -2   2 1186.18 56.2174   1
  13  -2   9 220.404 17.9367  -2
  13  -2   2 220.404 17.9367   1
  14  -2  10 880.416 34.0319  -2
  14  -2   2 880.416 34.0319   1
  15  -2  11 257.420 17.5400  -2
  15  -2   2 257.420 17.5400   1
  16  -2  12 13.7290 28.6514  -2
  16  -2   2 13.7290 28.6514   1
  17  -2  13 465.073 55.6917  -2
  17  -2   2 465.073 55.6917   1
 -15  -1   2 -5.2991 15.2640   1
  14   1  15 431.802 43.5412  -2
 -14  -1   2 431.802 43.5412   1
  13   1  15 143.399 24.3936  -2
 -13  -1   2 143.399 24.3936   1
  12   1  14 35.4210 18.6194  -2
 -12  -1   2 35.4210 18.6194   1
  11   1  13 129.596 24.1276  -2
 -11  -1   2 129.596 24.1276   1
  10   1  12 250.260 13.3006  -2
 -10  -1   2 250.260 13.3006   1
   9   1  11 62.6243 10.9869  -2
  -9  -1   2 62.6243 10.9869   1
   8   1  10 499.908 21.5367  -2
  -8  -1   2 499.908 21.5367   1
   7   1   9 573.431 18.0905  -2
  -7  -1   2 573.431 18.0905   1
   6   1   8 156.081 7.19598  -2
  -6  -1   2 156.081 7.19598   1
   5   1   7 194.014 8.97607  -2
  -5  -1   2 194.014 8.97607   1
   4   1   6 142.237 7.04203  -2
  -4  -1   2 142.237 7.04203   1
   3   1   5 977.145 63.7530  -2
  -3  -1   2 977.145 63.7530   1
   2   1   4 185.451 13.9432  -2
  -2  -1   2 185.451 13.9432   1
   1   1   3 1513.18 95.7405  -2
  -1  -1   2 1513.18 95.7405   1
   0  -1   2 571.100 14.7256   1
   1  -1   2 31.4058 1.39904   1
   2  -1   2 53.2642 2.05320   1
   3  -1   2 394.139 10.4190   1
   4  -1   2 680.730 19.3917   1
   5  -1   2 907.332 39.8469  -2
   5  -1   2 907.332 39.8469   1
   6  -1   3 100.848 8.63339  -2
   6  -1   2 100.848 8.63339   1
   7  -1   4 567.136 17.7794  -2
   7  -1   2 567.136 17.7794   1
   8  -1   5 1524.73 56.0557  -2
   8  -1   2 1524.73 56.0557   1
   9  -1   6 4472.40 137.680  -2
   9  -1   2 4472.40 137.680   1
  10  -1   7 289.170 15.5794  -2
  10  -1   2 289.170 15.5794   1
  11  -1   8 202.685 12.1626  -2
  11  -1   2 202.685 12.1626   1
  12  -1   9 1697.60 55.6329  -2
  12  -1   2 1697.60 55.6329   1
  13  -1  10 187.042 13.7337  -2
  13  -1   2 187.042 13.7337   1
  14  -1  11 114.754 19.1208  -2
  14  -1   2 114.754 19.1208   1
  15  -1  12 42.0342 28.9629  -2
  15  -1   2 42.0342 28.9629   1
  16  -1   2 179.207 27.0143   1
  17  -1   2 31.5411 17.8208   1
  15   0  16 -48.188 35.2362  -2
 -15   0   2 -48.188 35.2362   1
  14   0  15 130.151 18.5590  -2
 -14   0   2 130.151 18.5590   1
  13   0  14 566.989 25.3741  -2
 -13   0   2 566.989 25.3741   1
  12   0  13 108.002 15.7501  -2
 -12   0   2 108.002 15.7501   1
  11   0  12 33.4788 13.6175  -2
 -11   0   2 33.4788 13.6175   1
  10   0  11 41.1491 14.2925  -2
 -10   0   2 41.1491 14.2925   1
  -9   0   2 211.523 10.7927   1
  -8   0   2 63.0645 4.87845   1
  -7   0   2 316.493 11.2535   1
  -6   0   2 4.95108 2.81076   1
  -5   0   2 1005.51 32.6246   1
   4   0   6 209.775 16.8898  -2
  -4   0   2 209.775 16.8898   1
   3   0   5 470.687 31.7893  -2
  -3   0   2 470.687 31.7893   1
   2   0   4 928.427 34.1409  -2
  -2   0   2 928.427 34.1409   1
   1   0   3 1693.31 61.3770  -2
  -1   0   2 1693.31 61.3770   1
  -1   0   1 2354.95 66.1698  -2
   1   0   2 2354.95 66.1698   1
   2   0   0 119.456 8.28859  -2
   2   0   2 119.456 8.28859   1
   3   0   2 61.5721 3.18237   1
   4   0   2 13.1030 1.82712   1
   5   0   2 151.323 5.15836   1
   6   0   2 491.478 13.5762   1
   7   0   2 7.62120 2.97033   1
   8   0   2 170.713 7.83460   1
   9   0   6 43.7240 17.5032  -2
   9   0   2 43.7240 17.5032   1
  10   0   2 409.537 22.8329   1
  11   0   8 186.752 16.4658  -2
  11   0   2 186.752 16.4658   1
  12   0   9 572.514 21.1104  -2
  12   0   2 572.514 21.1104   1
  13   0  10 275.899 14.9108  -2
  13   0   2 275.899 14.9108   1
  14   0  11 10.6288 14.1600  -2
  14   0   2 10.6288 14.1600   1
  15   0  12 304.794 16.2230  -2
  15   0   2 304.794 16.2230   1
  16   0  13 11.8603 25.7527  -2
  16   0   2 11.8603 25.7527   1
  17   0   2 -4.6519 17.1905   1
  15  -1  16 -23.985 47.4736  -2
 -15   1   2 -23.985 47.4736   1
  14  -1  15 41.7539 24.2802  -2
 -14   1   2 41.7539 24.2802   1
  13  -1  14 751.508 36.1853  -2
 -13   1   2 751.508 36.1853   1
  12  -1  13 151.146 14.9316  -2
 -12   1   2 151.146 14.9316   1
  11  -1  12 253.723 15.1056  -2
 -11   1   2 253.723 15.1056   1
  10  -1  11 486.327 17.5206  -2
 -10   1   2 486.327 17.5206   1
   9  -1  10 3821.49 166.597  -2
  -9   1   2 3821.49 166.597   1
   8  -1   9 290.154 11.3736  -2
  -8   1   2 290.154 11.3736   1
   7  -1   8 233.479 9.64299  -2
  -7   1   2 233.479 9.64299   1
   6  -1   7 942.691 35.4128  -2
  -6   1   2 942.691 35.4128   1
   5  -1   6 135.252 10.2527  -2
  -5   1   2 135.252 10.2527   1
   4  -1   5 3989.81 239.964  -2
  -4   1   2 3989.81 239.964   1
  -3   1   2 19.5398 1.76382   1
  -2   1   2 38.4695 1.86519   1
  -1   1   2 6.67911 0.72855   1
   0   1   2 1641.39 50.9608   1
  -1  -1   1 17.9990 2.84589  -2
   1   1   2 17.9990 2.84589   1
   2   1   2 86.8019 2.75335   1
   3   1   2 268.543 7.36251   1
   4   1   2 242.457 8.66148   1
   5   1   3 1584.98 49.7597  -2
   5   1   2 1584.98 49.7597   1
   6   1   4 571.738 22.1404  -2
   6   1   2 571.738 22.1404   1
   7   1   5 36.1341 5.10183  -2
   7   1   2 36.1341 5.10183   1
   8   1   6 0.47197 6.48779  -2
   8   1   2 0.47197 6.48779   1
   9   1   7 390.907 15.8615  -2
   9   1   2 390.907 15.8615   1
  10   1   8 -3.8751 20.4180  -2
  10   1   2 -3.8751 20.4180   1
  11   1   9 268.534 21.8359  -2
  11   1   2 268.534 21.8359   1
  12   1  10 186.266 22.7223  -2
  12   1   2 186.266 22.7223   1
  13   1  11 451.950 28.5680  -2
  13   1   2 451.950 28.5680   1
  14   1  11 500.557 42.8372  -2
  14   1   2 500.557 42.8372   1
  15   1  12 101.894 26.8557  -2
  15   1   2 101.894 26.8557   1
  16   1   2 32.8844 14.8991   1
  15  -2  15 -18.595 41.7873  -2
 -15   2   2 -18.595 41.7873   1
  14  -2  14 117.442 19.0232  -2
 -14   2   2 117.442 19.0232   1
  13  -2  13 283.579 19.2440  -2
 -13   2   2 283.579 19.2440   1
  12  -2  12 192.449 20.9643  -2
 -12   2   2 192.449 20.9643   1
  11  -2  11 145.499 25.5317  -2
 -11   2   2 145.499 25.5317   1
 -10   2   2 6.50485 4.44990   1
   9  -2  10 202.928 22.4181  -2
  -9   2   2 202.928 22.4181   1
   8  -2   9 1411.02 64.8096  -2
  -8   2   2 1411.02 64.8096   1
   7  -2   8 51.0808 11.5138  -2
  -7   2   2 51.0808 11.5138   1
   6  -2   7 1153.78 42.5343  -2
  -6   2   2 1153.78 42.5343   1
   5  -2   6 1919.89 53.8248  -2
  -5   2   2 1919.89 53.8248   1
   4  -2   5 165.392 6.22041  -2
  -4   2   2 165.392 6.22041   1
   3  -2   4 1448.69 36.8196  -2
  -3   2   2 1448.69 36.8196   1
   2  -2   3 1718.20 47.6525  -2
  -2   2   2 1718.20 47.6525   1
   1  -2   2 14.3751 1.57746  -2
  -1   2   2 14.3751 1.57746   1
   0  -2   1 288.836 18.3876  -2
   0   2   2 288.836 18.3876   1
   1   2   0 71.9098 4.36307  -2
   1   2   2 71.9098 4.36307   1
   2   2   1 526.087 33.5646  -2
   2   2   2 526.087 33.5646   1
   3   2   2 370.602 12.2673   1
   4   2   2 1046.33 29.5319   1
   5   2   2 723.896 20.9985   1
   6   2   2 73.5772 5.01401   1
   7   2   2 298.080 13.7443   1
   8   2   2 2528.83 92.6706   1
   9   2   7 33.0434 9.91255  -2
   9   2   2 33.0434 9.91255   1
  10   2   8 162.769 12.0037  -2
  10   2   2 162.769 12.0037   1
  11   2   9 300.711 20.1059  -2
  11   2   2 300.711 20.1059   1
  12   2  10 518.623 18.9030  -2
  12   2   2 518.623 18.9030   1
  13   2  11 -15.890 9.96184  -2
  13   2   2 -15.890 9.96184   1
  14   2  12 717.711 25.7330  -2
  14   2   2 717.711 25.7330   1
  15   2  13 228.138 29.5813  -2
  15   2   2 228.138 29.5813   1
  16   2  14 17.2890 41.5931  -2
  16   2   2 17.2890 41.5931   1
  15  -3  15 121.070 30.2147  -2
 -15   3   2 121.070 30.2147   1
  14  -3  14 19.8386 15.1082  -2
 -14   3   2 19.8386 15.1082   1
  13  -3  13 1131.48 40.0531  -2
 -13   3   2 1131.48 40.0531   1
  12  -3  12 150.777 12.8426  -2
 -12   3   2 150.777 12.8426   1
  11  -3  11 103.304 11.1779  -2
 -11   3   2 103.304 11.1779   1
  10  -3  10 68.8317 13.7625  -2
 -10   3   2 68.8317 13.7625   1
   9  -3   9 371.436 15.9663  -2
  -9   3   2 371.436 15.9663   1
   8  -3   8 78.9818 8.67761  -2
  -8   3   2 78.9818 8.67761   1
   7  -3   7 23.2343 10.4608  -2
  -7   3   2 23.2343 10.4608   1
   6  -3   6 283.337 22.5036  -2
  -6   3   2 283.337 22.5036   1
  -5   3   2 151.573 5.33676   1
  -4   3   2 605.918 15.9118   1
  -3   3   2 652.082 16.7978   1
  -2   3   2 441.992 11.3460   1
   1  -3   2 405.712 18.4225  -2
  -1   3   2 405.712 18.4225   1
   0  -3   1 1374.81 59.6675  -2
   0   3   2 1374.81 59.6675   1
   1   3   0 535.365 24.0622  -2
   1   3   2 535.365 24.0622   1
   2   3   1 744.830 23.6139  -2
   2   3   2 744.830 23.6139   1
   3   3   2 245.543 8.53149  -2
   3   3   2 245.543 8.53149   1
   4   3   3 2489.83 89.5482  -2
   4   3   2 2489.83 89.5482   1
   5   3   4 1873.95 59.1579  -2
   5   3   2 1873.95 59.1579   1
   6   3   5 1932.07 86.4745  -2
   6   3   2 1932.07 86.4745   1
   7   3   6 449.694 24.7394  -2
   7   3   2 449.694 24.7394   1
   8   3   7 1533.30 70.5065  -2
   8   3   2 1533.30 70.5065   1
   9   3   2 393.741 22.2967   1
  10   3   2 421.694 17.1058   1
  11   3   2 381.815 18.8881   1
  12   3   2 431.401 16.3774   1
  13   3  11 66.8932 21.4600  -2
  13   3   2 66.8932 21.4600   1
  14   3  12 1253.21 44.7168  -2
  14   3   2 1253.21 44.7168   1
  15   3  13 373.093 35.7481  -2
  15   3   2 373.093 35.7481   1
  16   3  14 209.771 33.9420  -2
  16   3   2 209.771 33.9420   1
  15  -4  14 23.9826 44.8049  -2
 -15   4   2 23.9826 44.8049   1
  14  -4  13 196.655 40.9815  -2
 -14   4   2 196.655 40.9815   1
 -13   4   2 5.52349 6.07988   1
  12  -4  12 808.217 59.7905  -2
 -12   4   2 808.217 59.7905   1
  11  -4  11 175.771 17.2914  -2
 -11   4   2 175.771 17.2914   1
  10  -4  10 170.020 20.6759  -2
 -10   4   2 170.020 20.6759   1
   9  -4   9 211.292 11.7895  -2
  -9   4   2 211.292 11.7895   1
   8  -4   8 93.7698 8.44732  -2
  -8   4   2 93.7698 8.44732   1
   7  -4   7 139.908 6.72402  -2
  -7   4   2 139.908 6.72402   1
   6  -4   6 305.589 11.5323  -2
  -6   4   2 305.589 11.5323   1
   5  -4   5 1111.21 34.9885  -2
  -5   4   2 1111.21 34.9885   1
   4  -4   4 394.257 10.8041  -2
  -4   4   2 394.257 10.8041   1
   3  -4   3 773.814 21.7875  -2
  -3   4   2 773.814 21.7875   1
   2  -4   2 3135.99 133.452  -2
  -2   4   2 3135.99 133.452   1
   1  -4   1 3783.60 227.590  -2
  -1   4   2 3783.60 227.590   1
   0   4   2 44.6641 4.53050   1
   1   4   2 1295.36 56.9699   1
   2   4   2 11.4824 1.12857   1
   3   4   2 354.016 9.71111   1
   4   4   2 517.507 15.3264   1
   5   4   4 653.378 42.2292  -2
   5   4   2 653.378 42.2292   1
   6   4   5 74.9707 9.17644  -2
   6   4   2 74.9707 9.17644   1
   7   4   6 54.7781 10.2138  -2
   7   4   2 54.7781 10.2138   1
   8   4   7 455.067 20.5798  -2
   8   4   2 455.067 20.5798   1
   9   4   8 354.894 22.1941  -2
   9   4   2 354.894 22.1941   1
  10   4   9 1967.13 63.1605  -2
  10   4   2 1967.13 63.1605   1
  11   4  10 6.86098 11.0013  -2
  11   4   2 6.86098 11.0013   1
  12   4  11 560.545 27.0838  -2
  12   4   2 560.545 27.0838   1
  13   4  12 351.119 17.6888  -2
  13   4   2 351.119 17.6888   1
  14   4  13 327.816 18.6442  -2
  14   4   2 327.816 18.6442   1
  15   4  14 72.8453 31.9953  -2
  15   4   2 72.8453 31.9953   1
  16   4  15 -65.599 30.5288  -2
  16   4   2 -65.599 30.5288   1
  15  -5  14 -9.7577 22.9233  -2
 -15   5   2 -9.7577 22.9233   1
  14  -5  13 231.603 16.9336  -2
 -14   5   2 231.603 16.9336   1
  13  -5  12 99.1106 14.3907  -2
 -13   5   2 99.1106 14.3907   1
  12  -5  11 5.55861 13.4012  -2
 -12   5   2 5.55861 13.4012   1
  11  -5  10 61.5224 14.5977  -2
 -11   5   2 61.5224 14.5977   1
  10  -5   9 1206.88 46.0284  -2
 -10   5   2 1206.88 46.0284   1
   9  -5   8 853.121 59.0487  -2
  -9   5   2 853.121 59.0487   1
   8  -5   7 574.014 39.8216  -2
  -8   5   2 574.014 39.8216   1
  -7   5   2 2434.94 61.8604   1
  -6   5   2 519.300 14.2521   1
   5  -5   5 449.786 30.0391  -2
  -5   5   2 449.786 30.0391   1
   4  -5   4 188.953 10.0987  -2
  -4   5   2 188.953 10.0987   1
   3  -5   3 495.661 22.2344  -2
  -3   5   2 495.661 22.2344   1
   2  -5   2 102.262 4.96438  -2
  -2   5   2 102.262 4.96438   1
   1  -5   1 1560.97 67.7011  -2
  -1   5   2 1560.97 67.7011   1
   0   5   0 1449.32 62.7634  -2
   0   5   2 1449.32 62.7634   1
   1   5   1 1586.54 59.3737  -2
   1   5   2 1586.54 59.3737   1
   2   5   2 3314.39 118.244  -2
   2   5   2 3314.39 118.244   1
   3   5   3 160.318 6.58507  -2
   3   5   2 160.318 6.58507   1
   4   5   4 1075.73 39.3964  -2
   4   5   2 1075.73 39.3964   1
   5   5   5 981.911 37.3050  -2
   5   5   2 981.911 37.3050   1
   6   5   6 471.040 25.5232  -2
   6   5   2 471.040 25.5232   1
   7   5   7 20.6112 15.6065  -2
   7   5   2 20.6112 15.6065   1
   8   5   2 84.2458 6.98542   1
   9   5   2 -1.5106 4.62008   1
  10   5   2 240.862 17.1097   1
  11   5  10 176.421 31.9625  -2
  11   5   2 176.421 31.9625   1
  12   5  11 -4.0447 13.2997  -2
  12   5   2 -4.0447 13.2997   1
  13   5  12 575.799 23.2425  -2
  13   5   2 575.799 23.2425   1
  14   5  13 182.352 14.4529  -2
  14   5   2 182.352 14.4529   1
  15   5  14 268.475 24.6754  -2
  15   5   2 268.475 24.6754   1
  16   5  15 64.8542 42.1054  -2
  16   5   2 64.8542 42.1054   1
  14  -6  13 55.3261 16.8717  -2
 -14   6   2 55.3261 16.8717   1
  13  -6  12 11.3738 16.6211  -2
 -13   6   2 11.3738 16.6211   1
  12  -6  11 278.146 16.3475  -2
 -12   6   2 278.146 16.3475   1
  11  -6  10 570.505 22.4260  -2
 -11   6   2 570.505 22.4260   1
  10  -6   9 8.57196 9.71742  -2
 -10   6   2 8.57196 9.71742   1
   9  -6   8 95.6296 8.71033  -2
  -9   6   2 95.6296 8.71033   1
   8  -6   7 201.393 8.03775  -2
  -8   6   2 201.393 8.03775   1
   7  -6   6 130.943 6.75757  -2
  -7   6   2 130.943 6.75757   1
   6  -6   5 935.596 24.5792  -2
  -6   6   2 935.596 24.5792   1
   5  -6   4 2122.71 58.8918  -2
  -5   6   2 2122.71 58.8918   1
   4  -6   3 356.223 17.1874  -2
  -4   6   2 356.223 17.1874   1
   3  -6   2 2047.10 123.764  -2
  -3   6   2 2047.10 123.764   1
   2  -6   1 164.957 13.4134  -2
  -2   6   2 164.957 13.4134   1
  -1   6   2 274.152 13.7883   1
   0   6   2 263.753 13.2606   1
   1   6   2 95.4399 4.07730   1
   2   6   2 46.2533 5.13407  -2
   2   6   2 46.2533 5.13407   1
   3   6   3 726.333 27.8133  -2
   3   6   2 726.333 27.8133   1
   4   6   4 265.234 9.79508  -2
   4   6   2 265.234 9.79508   1
   5   6   5 307.854 10.7520  -2
   5   6   2 307.854 10.7520   1
   6   6   6 480.337 15.3182  -2
   6   6   2 480.337 15.3182   1
   7   6   7 258.447 13.1355  -2
   7   6   2 258.447 13.1355   1
   8   6   8 259.565 13.5258  -2
   8   6   2 259.565 13.5258   1
   9   6   9 166.418 11.5110  -2
   9   6   2 166.418 11.5110   1
  10   6  10 558.559 25.8488  -2
  10   6   2 558.559 25.8488   1
  11   6  11 63.9960 12.7849  -2
  11   6   2 63.9960 12.7849   1
  12   6  12 20.9750 17.5742  -2
  12   6   2 20.9750 17.5742   1
  13   6  13 280.813 19.9707  -2
  13   6   2 280.813 19.9707   1
  14   6  14 749.940 46.5136  -2
  14   6   2 749.940 46.5136   1
  15   6   2 -1.5174 11.5532   1
  14  -7  12 184.487 19.4031  -2
 -14   7   2 184.487 19.4031   1
  13  -7  11 166.775 16.0143  -2
 -13   7   2 166.775 16.0143   1
  12  -7  10 189.174 22.8467  -2
 -12   7   2 189.174 22.8467   1
  11  -7   9 573.585 31.7448  -2
 -11   7   2 573.585 31.7448   1
  10  -7   8 56.1370 22.9983  -2
 -10   7   2 56.1370 22.9983   1
  -9   7   2 182.665 8.46301   1
   8  -7   7 77.6966 12.1383  -2
  -8   7   2 77.6966 12.1383   1
   7  -7   6 14.2884 7.40247  -2
  -7   7   2 14.2884 7.40247   1
   6  -7   5 300.834 17.3558  -2
  -6   7   2 300.834 17.3558   1
   5  -7   4 146.727 7.72853  -2
  -5   7   2 146.727 7.72853   1
   4  -7   3 1879.90 58.0865  -2
  -4   7   2 1879.90 58.0865   1
   3  -7   2 126.424 5.39926  -2
  -3   7   2 126.424 5.39926   1
   2  -7   1 1548.30 47.9008  -2
  -2   7   2 1548.30 47.9008   1
  -1   7   0 88.2150 9.72954  -2
  -1   7   2 88.2150 9.72954   1
   0   7   1 773.283 34.6229  -2
   0   7   2 773.283 34.6229   1
   1   7   2 210.877 11.4140  -2
   1   7   2 210.877 11.4140   1
   2   7   3 138.627 9.78592  -2
   2   7   2 138.627 9.78592   1
   3   7   4 168.862 9.05564  -2
   3   7   2 168.862 9.05564   1
   4   7   5 172.642 11.9823  -2
   4   7   2 172.642 11.9823   1
   5   7   6 113.097 16.3274  -2
   5   7   2 113.097 16.3274   1
   6   7   2 437.791 14.3269   1
   7   7   2 53.7563 4.70458   1
   8   7   8 1208.93 80.9433  -2
   8   7   2 1208.93 80.9433   1
   9   7   9 766.229 38.7160  -2
   9   7   2 766.229 38.7160   1
  10   7  10 59.2756 12.6200  -2
  10   7   2 59.2756 12.6200   1
  11   7  11 571.336 28.5325  -2
  11   7   2 571.336 28.5325   1
  12   7  12 151.864 13.6027  -2
  12   7   2 151.864 13.6027   1
  13   7  13 555.283 19.6164  -2
  13   7   2 555.283 19.6164   1
  14   7  14 139.898 16.6270  -2
  14   7   2 139.898 16.6270   1
  15   7  15 103.430 25.4965  -2
  15   7   2 103.430 25.4965   1
  14  -8  12 26.1470 43.9281  -2
 -14   8   2 26.1470 43.9281   1
  13  -8  11 134.226 17.0715  -2
 -13   8   2 134.226 17.0715   1
  12  -8  10 284.764 15.4003  -2
 -12   8   2 284.764 15.4003   1
  11  -8   9 189.076 9.35119  -2
 -11   8   2 189.076 9.35119   1
  10  -8   8 96.6833 8.82745  -2
 -10   8   2 96.6833 8.82745   1
   9  -8   7 159.435 8.38260  -2
  -9   8   2 159.435 8.38260   1
   8  -8   6 1951.68 61.6728  -2
  -8   8   2 1951.68 61.6728   1
   7  -8   5 101.877 12.5758  -2
  -7   8   2 101.877 12.5758   1
   6  -8   4 145.433 13.0137  -2
  -6   8   2 145.433 13.0137   1
   5  -8   3 339.513 25.4745  -2
  -5   8   2 339.513 25.4745   1
   4  -8   2 2052.89 124.795  -2
  -4   8   2 2052.89 124.795   1
  -3   8   2 376.220 12.3997   1
  -2   8   2 286.552 11.8267   1
  -1   8   0 113.572 11.6804  -2
  -1   8   2 113.572 11.6804   1
   0   8   1 565.834 37.3586  -2
   0   8   2 565.834 37.3586   1
   1   8   2 1775.44 78.7480  -2
   1   8   2 1775.44 78.7480   1
   2   8   3 845.404 31.6856  -2
   2   8   2 845.404 31.6856   1
   3   8   4 35.9511 5.15357  -2
   3   8   2 35.9511 5.15357   1
   4   8   5 344.040 12.7001  -2
   4   8   2 344.040 12.7001   1
   5   8   6 915.501 29.9498  -2
   5   8   2 915.501 29.9498   1
   6   8   7 22.3175 5.96009  -2
   6   8   2 22.3175 5.96009   1
   7   8   8 62.4805 7.83191  -2
   7   8   2 62.4805 7.83191   1
   8   8   9 527.469 20.7146  -2
   8   8   2 527.469 20.7146   1
   9   8  10 72.1976 13.8263  -2
   9   8   2 72.1976 13.8263   1
  10   8  11 812.609 30.1610  -2
  10   8   2 812.609 30.1610   1
  11   8  12 37.1934 20.1770  -2
  11   8   2 37.1934 20.1770   1
  12   8  13 21.1466 40.7874  -2
  12   8   2 21.1466 40.7874   1
  13   8  13 119.326 50.8164  -2
  13   8   2 119.326 50.8164   1
  14   8  14 44.6677 30.8203  -2
  14   8   2 44.6677 30.8203   1
  13  -9  10 3.07450 26.1168  -2
 -13   9   2 3.07450 26.1168   1
 -12   9   2 288.074 13.2308   1
  11  -9   9 324.213 20.2957  -2
 -11   9   2 324.213 20.2957   1
  10  -9   8 -3.1871 14.1186  -2
 -10   9   2 -3.1871 14.1186   1
   9  -9   7 357.495 23.3093  -2
  -9   9   2 357.495 23.3093   1
   8  -9   6 70.7461 11.1574  -2
  -8   9   2 70.7461 11.1574   1
   7  -9   5 315.982 20.3386  -2
  -7   9   2 315.982 20.3386   1
   6  -9   4 177.778 10.4063  -2
  -6   9   2 177.778 10.4063   1
   5  -9   3 59.9702 6.47742  -2
  -5   9   2 59.9702 6.47742   1
   4  -9   2 1456.99 52.1056  -2
  -4   9   2 1456.99 52.1056   1
   3  -9   1 464.491 18.5410  -2
  -3   9   2 464.491 18.5410   1
  -2   9   0 65.0837 5.03888  -2
  -2   9   2 65.0837 5.03888   1
  -1   9   1 2084.01 64.8379  -2
  -1   9   2 2084.01 64.8379   1
   0   9   2 4403.63 135.649  -2
   0   9   2 4403.63 135.649   1
   1   9   3 291.652 23.9173  -2
   1   9   2 291.652 23.9173   1
   2   9   2 309.195 11.8453   1
   3   9   2 62.9950 5.03901   1
   4   9   2 166.621 6.66872   1
   5   9   2 1801.53 46.7269   1
   6   9   7 62.3679 10.0567  -2
   6   9   2 62.3679 10.0567   1
   7   9   8 309.125 15.7540  -2
   7   9   2 309.125 15.7540   1
   8   9   9 433.031 18.7865  -2
   8   9   2 433.031 18.7865   1
   9   9  10 382.998 15.8655  -2
   9   9   2 382.998 15.8655   1
  10   9  11 49.0945 10.8407  -2
  10   9   2 49.0945 10.8407   1
  11   9  12 141.187 13.3281  -2
  11   9   2 141.187 13.3281   1
  12   9  13 169.004 14.7002  -2
  12   9   2 169.004 14.7002   1
  13   9  14 14.5136 15.8266  -2
  13   9   2 14.5136 15.8266   1
  14   9  15 269.373 24.5239  -2
  14   9   2 269.373 24.5239   1
  13 -10  10 188.581 16.2448  -2
 -13  10   2 188.581 16.2448   1
  12 -10   9 386.089 22.4734  -2
 -12  10   2 386.089 22.4734   1
  11 -10   8 133.317 13.9225  -2
 -11  10   2 133.317 13.9225   1
  10 -10   7 28.6184 13.8722  -2
 -10  10   2 28.6184 13.8722   1
   9 -10   6 64.6890 15.9465  -2
  -9  10   2 64.6890 15.9465   1
   8 -10   5 638.930 45.1112  -2
  -8  10   2 638.930 45.1112   1
   7 -10   4 898.634 42.3254  -2
  -7  10   2 898.634 42.3254   1
  -6  10   2 362.768 16.2085   1
  -5  10   2 61.5103 4.61927   1
   4 -10   2 73.5756 11.4416  -2
  -4  10   2 73.5756 11.4416   1
   3 -10   1 1144.74 51.0649  -2
  -3  10   2 1144.74 51.0649   1
  -2  10   0 193.849 11.6158  -2
  -2  10   2 193.849 11.6158   1
  -1  10   1 257.487 9.87168  -2
  -1  10   2 257.487 9.87168   1
   0  10   2 25.8729 4.34225  -2
   0  10   2 25.8729 4.34225   1
   1  10   3 547.251 21.3748  -2
   1  10   2 547.251 21.3748   1
   2  10   4 1608.05 72.1869  -2
   2  10   2 1608.05 72.1869   1
   3  10   5 153.900 12.1576  -2
   3  10   2 153.900 12.1576   1
   4  10   6 82.3805 7.99570  -2
   4  10   2 82.3805 7.99570   1
   5  10   7 905.839 24.4837  -2
   5  10   2 905.839 24.4837   1
   6  10   8 891.426 30.0772  -2
   6  10   2 891.426 30.0772   1
   7  10   9 175.415 16.3868  -2
   7  10   2 175.415 16.3868   1
   8  10  10 10.7161 14.5001  -2
   8  10   2 10.7161 14.5001   1
   9  10  11 92.3971 30.6815  -2
   9  10   2 92.3971 30.6815   1
  10  10   2 13.8857 5.92513   1
  11  10  12 118.170 42.8757  -2
  11  10   2 118.170 42.8757   1
  12  10  13 316.733 23.2250  -2
  12  10   2 316.733 23.2250   1
  13  10  14 28.8738 21.6432  -2
  13  10   2 28.8738 21.6432   1
  12 -11   9 106.672 16.6475  -2
 -12  11   2 106.672 16.6475   1
  11 -11   8 137.770 14.9001  -2
 -11  11   2 137.770 14.9001   1
  10 -11   7 14.4044 12.0546  -2
 -10  11   2 14.4044 12.0546   1
   9 -11   6 18.1771 11.2263  -2
  -9  11   2 18.1771 11.2263   1
   8 -11   5 208.773 11.4817  -2
  -8  11   2 208.773 11.4817   1
   7 -11   4 151.744 13.2374  -2
  -7  11   2 151.744 13.2374   1
   6 -11   3 118.414 9.58055  -2
  -6  11   2 118.414 9.58055   1
   5 -11   2 63.7168 7.53654  -2
  -5  11   2 63.7168 7.53654   1
   4 -11   1 524.412 18.4323  -2
  -4  11   2 524.412 18.4323   1
  -3  11   0 671.018 25.5665  -2
  -3  11   2 671.018 25.5665   1
  -2  11   1 877.189 40.0124  -2
  -2  11   2 877.189 40.0124   1
  -1  11   2 33.1776 16.6091  -2
  -1  11   2 33.1776 16.6091   1
   0  11   2 0.17978 2.48149   1
   1  11   2 376.166 13.9733   1
   2  11   4 196.742 29.0760  -2
   2  11   2 196.742 29.0760   1
   3  11   5 62.2812 12.6457  -2
   3  11   2 62.2812 12.6457   1
   4  11   6 20.1653 10.1285  -2
   4  11   2 20.1653 10.1285   1
   5  11   7 432.149 18.0454  -2
   5  11   2 432.149 18.0454   1
   6  11   8 670.563 27.0652  -2
   6  11   2 670.563 27.0652   1
   7  11   9 22.9653 7.76053  -2
   7  11   2 22.9653 7.76053   1
   8  11  10 38.6993 8.68095  -2
   8  11   2 38.6993 8.68095   1
   9  11  11 991.200 31.0897  -2
   9  11   2 991.200 31.0897   1
  10  11  12 498.151 19.6777  -2
  10  11   2 498.151 19.6777   1
  11  11  13 371.096 21.7832  -2
  11  11   2 371.096 21.7832   1
  12  11  14 20.3305 18.1823  -2
  12  11   2 20.3305 18.1823   1
  12 -12   8 234.497 23.3018  -2
 -12  12   2 234.497 23.3018   1
  11 -12   7 95.7451 16.0068  -2
 -11  12   2 95.7451 16.0068   1
  10 -12   6 503.633 42.5385  -2
 -10  12   2 503.633 42.5385   1
   9 -12   5 81.5132 27.9472  -2
  -9  12   2 81.5132 27.9472   1
  -8  12   2 4.47121 5.08206   1
   7 -12   4 63.7802 16.1948  -2
  -7  12   2 63.7802 16.1948   1
   6 -12   3 131.137 21.8074  -2
  -6  12   2 131.137 21.8074   1
   5 -12   2 407.721 22.0866  -2
  -5  12   2 407.721 22.0866   1
   4 -12   1 27.0904 6.14120  -2
  -4  12   2 27.0904 6.14120   1
  -3  12   0 590.926 23.4269  -2
  -3  12   2 590.926 23.4269   1
  -2  12   1 766.073 29.6270  -2
  -2  12   2 766.073 29.6270   1
  -1  12   2 86.2339 6.27496  -2
  -1  12   2 86.2339 6.27496   1
   0  12   3 746.345 24.8748  -2
   0  12   2 746.345 24.8748   1
   1  12   4 349.374 16.1388  -2
   1  12   2 349.374 16.1388   1
   2  12   5 225.974 11.3728  -2
   2  12   2 225.974 11.3728   1
   3  12   6 2362.01 86.1665  -2
   3  12   2 2362.01 86.1665   1
   4  12   7 296.400 17.0617  -2
   4  12   2 296.400 17.0617   1
   5  12   8 33.5135 17.5446  -2
   5  12   2 33.5135 17.5446   1
   6  12   9 176.976 19.3821  -2
   6  12   2 176.976 19.3821   1
   7  12   2 1085.69 32.6142   1
   8  12  10 113.444 36.7609  -2
   8  12   2 113.444 36.7609   1
   9  12  11 58.6403 27.1819  -2
   9  12   2 58.6403 27.1819   1
  10  12  12 387.195 23.3167  -2
  10  12   2 387.195 23.3167   1
  11  12  13 181.073 19.8068  -2
  11  12   2 181.073 19.8068   1
  12  12  14 258.546 26.5665  -2
  12  12   2 258.546 26.5665   1
  11 -13   7 48.7511 13.3477  -2
 -11  13   2 48.7511 13.3477   1
  10 -13   6 395.970 20.7534  -2
 -10  13   2 395.970 20.7534   1
   9 -13   5 2.15210 11.1142  -2
  -9  13   2 2.15210 11.1142   1
   8 -13   4 119.699 13.1846  -2
  -8  13   2 119.699 13.1846   1
   7 -13   3 155.689 9.94713  -2
  -7  13   2 155.689 9.94713   1
   6 -13   2 48.5628 9.77150  -2
  -6  13   2 48.5628 9.77150   1
   5 -13   1 232.494 14.0119  -2
  -5  13   2 232.494 14.0119   1
  -4  13   0 301.977 19.4394  -2
  -4  13   2 301.977 19.4394   1
  -3  13   1 15.3006 21.4463  -2
  -3  13   2 15.3006 21.4463   1
  -2  13   2 419.467 15.6931   1
  -1  13   2 596.572 20.9281   1
   0  13   3 85.9236 10.6164  -2
   0  13   2 85.9236 10.6164   1
   1  13   4 1141.19 37.3428  -2
   1  13   2 1141.19 37.3428   1
   2  13   5 1163.91 43.9580  -2
   2  13   2 1163.91 43.9580   1
   3  13   6 42.7072 10.3933  -2
   3  13   2 42.7072 10.3933   1
   4  13   7 74.7016 10.1529  -2
   4  13   2 74.7016 10.1529   1
   5  13   8 116.610 15.2123  -2
   5  13   2 116.610 15.2123   1
   6  13   9 44.8339 8.94440  -2
   6  13   2 44.8339 8.94440   1
   7  13  10 1324.56 63.7094  -2
   7  13   2 1324.56 63.7094   1
   8  13  11 96.6737 10.1463  -2
   8  13   2 96.6737 10.1463   1
   9  13  12 26.4203 13.1979  -2
   9  13   2 26.4203 13.1979   1
  10  13  13 123.517 18.9873  -2
  10  13   2 123.517 18.9873   1
 -10  14   2 129.650 10.5928   1
   9 -14   5 243.100 19.8874  -2
  -9  14   2 243.100 19.8874   1
   8 -14   4 74.3133 18.4342  -2
  -8  14   2 74.3133 18.4342   1
   7 -14   3 102.241 11.6605  -2
  -7  14   2 102.241 11.6605   1
   6 -14   2 95.5122 9.94188  -2
  -6  14   2 95.5122 9.94188   1
   5 -14   1 395.856 18.4720  -2
  -5  14   2 395.856 18.4720   1
  -4  14   0 12.9410 7.60770  -2
  -4  14   2 12.9410 7.60770   1
  -3  14   1 315.781 15.0615  -2
  -3  14   2 315.781 15.0615   1
  -2  14   2 95.0242 8.25491  -2
  -2  14   2 95.0242 8.25491   1
  -1  14   3 11.5714 8.16796  -2
  -1  14   2 11.5714 8.16796   1
   0  14   4 76.5182 9.92355  -2
   0  14   2 76.5182 9.92355   1
   1  14   5 167.792 12.0397  -2
   1  14   2 167.792 12.0397   1
   2  14   6 -0.2562 13.2772  -2
   2  14   2 -0.2562 13.2772   1
   3  14   7 644.794 49.6292  -2
   3  14   2 644.794 49.6292   1
   4  14   2 12.4208 6.11626   1
   5  14   2 431.583 21.7492   1
   6  14   9 77.5307 18.3070  -2
   6  14   2 77.5307 18.3070   1
   7  14  10 125.746 24.0496  -2
   7  14   2 125.746 24.0496   1
   8  14  11 39.1541 33.3973  -2
   8  14   2 39.1541 33.3973   1
   9  14  12 95.3053 22.6018  -2
   9  14   2 95.3053 22.6018   1
   9 -15   4 64.5693 17.0652  -2
  -9  15   2 64.5693 17.0652   1
   8 -15   3 32.0007 27.5391  -2
  -8  15   2 32.0007 27.5391   1
   7 -15   2 308.144 25.4953  -2
  -7  15   2 308.144 25.4953   1
   6 -15   1 8.51773 27.1595  -2
  -6  15   2 8.51773 27.1595   1
  -5  15   2 10.6443 5.73764   1
  -4  15   2 233.029 12.3829   1
  -3  15   1 706.237 35.7327  -2
  -3  15   2 706.237 35.7327   1
  -2  15   2 188.681 11.9386  -2
  -2  15   2 188.681 11.9386   1
  -1  15   3 216.584 12.2527  -2
  -1  15   2 216.584 12.2527   1
   0  15   4 87.0941 10.0100  -2
   0  15   2 87.0941 10.0100   1
   1  15   5 12.8143 8.51544  -2
   1  15   2 12.8143 8.51544   1
   2  15   6 59.3623 10.4112  -2
   2  15   2 59.3623 10.4112   1
   3  15   7 123.425 12.3374  -2
   3  15   2 123.425 12.3374   1
   4  15   8 76.9056 10.4314  -2
   4  15   2 76.9056 10.4314   1
   5  15   9 142.851 16.2512  -2
   5  15   2 142.851 16.2512   1
   6  15  10 389.338 29.7992  -2
   6  15   2 389.338 29.7992   1
   7  15  11 91.7863 24.9547  -2
   7  15   2 91.7863 24.9547   1
   8  15  12 87.6815 41.0514  -2
   8  15   2 87.6815 41.0514   1
   8 -16   3 62.1693 25.7258  -2
  -8  16   2 62.1693 25.7258   1
   7 -16   2 28.5409 15.0297  -2
  -7  16   2 28.5409 15.0297   1
   6 -16   1 37.8919 10.8446  -2
  -6  16   2 37.8919 10.8446   1
  -5  16   0 14.9179 10.7299  -2
  -5  16   2 14.9179 10.7299   1
  -4  16   1 33.0630 10.8849  -2
  -4  16   2 33.0630 10.8849   1
  -3  16   2 23.8237 14.9547  -2
  -3  16   2 23.8237 14.9547   1
  -2  16   3 575.617 25.3437  -2
  -2  16   2 575.617 25.3437   1
  -1  16   4 32.1103 13.3924  -2
  -1  16   2 32.1103 13.3924   1
   0  16   5 143.516 30.8687  -2
   0  16   2 143.516 30.8687   1
   1  16   2 959.266 33.1696   1
   2  16   2 0.86533 6.12395   1
   3  16   7 78.9305 21.0023  -2
   3  16   2 78.9305 21.0023   1
   4  16   8 3.02889 21.9325  -2
   4  16   2 3.02889 21.9325   1
   5  16   9 280.823 27.2656  -2
   5  16   2 280.823 27.2656   1
   6  16  10 378.996 29.7415  -2
   6  16   2 378.996 29.7415   1
   7  16  11 216.309 26.6506  -2
   7  16   2 216.309 26.6506   1
  -5  17   0 208.214 21.8979  -2
  -5  17   2 208.214 21.8979   1
  -4  17   1 147.062 19.1406  -2
  -4  17   2 147.062 19.1406   1
  -3  17   2 88.0380 13.8486  -2
  -3  17   2 88.0380 13.8486   1
  -2  17   3 16.0479 12.1662  -2
  -2  17   2 16.0479 12.1662   1
  -1  17   4 72.3009 11.7483  -2
  -1  17   2 72.3009 11.7483   1
   0  17   5 93.1505 11.8041  -2
   0  17   2 93.1505 11.8041   1
   1  17   6 31.9005 14.1881  -2
   1  17   2 31.9005 14.1881   1
   2  17   7 1021.21 69.5082  -2
   2  17   2 1021.21 69.5082   1
   3  17   8 235.727 18.9145  -2
   3  17   2 235.727 18.9145   1
   4  17   9 507.441 27.4077  -2
   4  17   2 507.441 27.4077   1
   5  17   2 283.895 18.7753   1
  -2  18   2 131.505 20.0135   1
  -1  18   2 33.0949 8.90313   1
   0  18   5 -12.202 32.8826  -2
   0  18   2 -12.202 32.8826   1
   1  18   6 -31.594 32.8187  -2
   1  18   2 -31.594 32.8187   1
  -2  17   8 -1.4784 28.7448  -2
   2 -17   3 -1.4784 28.7448   1
  -3  17   7 209.062 34.0335  -2
   3 -17   3 209.062 34.0335   1
  -2 -16   3 478.497 26.4161   1
   1  16  11 83.4774 37.5044  -2
  -1 -16   3 83.4774 37.5044   1
   0  16  10 265.102 23.7830  -2
   0 -16   3 265.102 23.7830   1
  -1  16   9 314.733 22.4859  -2
   1 -16   3 314.733 22.4859   1
  -2  16   8 413.466 24.3590  -2
   2 -16   3 413.466 24.3590   1
  -3  16   7 83.8053 16.5663  -2
   3 -16   3 83.8053 16.5663   1
  -4  16   6 20.3775 15.0386  -2
   4 -16   3 20.3775 15.0386   1
  -5  16   5 0.93486 12.9702  -2
   5 -16   3 0.93486 12.9702   1
  -6  16   4 51.7558 11.6254  -2
   6 -16   3 51.7558 11.6254   1
  -7  16   3 347.967 20.0176  -2
   7 -16   3 347.967 20.0176   1
  -5 -15   3 78.1134 16.9925   1
   4  15  13 32.7029 22.7652  -2
  -4 -15   3 32.7029 22.7652   1
   3  15  12 150.431 14.6424  -2
  -3 -15   3 150.431 14.6424   1
   2  15  11 82.6944 20.3566  -2
  -2 -15   3 82.6944 20.3566   1
   1  15  10 94.1242 16.1779  -2
  -1 -15   3 94.1242 16.1779   1
   0  15   9 197.757 17.7937  -2
   0 -15   3 197.757 17.7937   1
  -1  15   8 67.0221 14.3652  -2
   1 -15   3 67.0221 14.3652   1
  -2  15   7 172.450 15.9541  -2
   2 -15   3 172.450 15.9541   1
  -3  15   6 388.555 20.4095  -2
   3 -15   3 388.555 20.4095   1
   4 -15   3 46.8505 8.09997   1
   5 -15   3 -0.2052 7.73144   1
  -6  15   4 583.464 37.1774  -2
   6 -15   3 583.464 37.1774   1
  -7  15   3 1.55404 17.5671  -2
   7 -15   3 1.55404 17.5671   1
  -8  15   2 21.5790 17.5442  -2
   8 -15   3 21.5790 17.5442   1
  -9  15   1 159.477 19.5065  -2
   9 -15   3 159.477 19.5065   1
   6  14  14 344.104 43.2513  -2
  -6 -14   3 344.104 43.2513   1
   5  14  13 377.345 36.0600  -2
  -5 -14   3 377.345 36.0600   1
  -4 -14   3 56.7038 7.83003   1
   3  14  12 359.829 21.3871  -2
  -3 -14   3 359.829 21.3871   1
   2  14  11 -18.048 15.9406  -2
  -2 -14   3 -18.048 15.9406   1
   1  14  10 70.3157 16.6908  -2
  -1 -14   3 70.3157 16.6908   1
   0  14   9 46.7076 13.3546  -2
   0 -14   3 46.7076 13.3546   1
  -1  14   8 39.2394 11.7457  -2
   1 -14   3 39.2394 11.7457   1
  -2  14   7 70.7295 13.4859  -2
   2 -14   3 70.7295 13.4859   1
  -3  14   6 1337.33 50.8693  -2
   3 -14   3 1337.33 50.8693   1
  -4  14   5 354.298 18.5214  -2
   4 -14   3 354.298 18.5214   1
  -5  14   4 174.480 14.7186  -2
   5 -14   3 174.480 14.7186   1
  -6  14   3 2215.53 99.4589  -2
   6 -14   3 2215.53 99.4589   1
  -7  14   2 88.0850 15.6927  -2
   7 -14   3 88.0850 15.6927   1
  -8  14   1 121.262 17.5334  -2
   8 -14   3 121.262 17.5334   1
  -9  14   0 118.935 18.7588  -2
   9 -14   3 118.935 18.7588   1
  10 -14   1 355.926 43.1029  -2
  10 -14   3 355.926 43.1029   1
  11 -14   3 24.4152 10.0456   1
   7  13  15 -1.0746 32.2747  -2
  -7 -13   3 -1.0746 32.2747   1
   6  13  14 61.0777 11.4531  -2
  -6 -13   3 61.0777 11.4531   1
   5  13  13 37.0283 13.7750  -2
  -5 -13   3 37.0283 13.7750   1
   4  13  12 524.659 25.9134  -2
  -4 -13   3 524.659 25.9134   1
   3  13  11 1202.22 36.5034  -2
  -3 -13   3 1202.22 36.5034   1
   2  13  10 542.300 19.8289  -2
  -2 -13   3 542.300 19.8289   1
   1  13   9 83.1341 15.6731  -2
  -1 -13   3 83.1341 15.6731   1
   0  13   8 1.51882 18.3729  -2
   0 -13   3 1.51882 18.3729   1
  -1  13   7 606.702 47.0006  -2
   1 -13   3 606.702 47.0006   1
   2 -13   3 188.295 11.1460   1
  -3  13   6 250.784 30.7853  -2
   3 -13   3 250.784 30.7853   1
  -4  13   5 213.848 16.9766  -2
   4 -13   3 213.848 16.9766   1
  -5  13   4 256.260 20.8587  -2
   5 -13   3 256.260 20.8587   1
  -6  13   3 576.297 32.5177  -2
   6 -13   3 576.297 32.5177   1
  -7  13   2 177.420 19.4996  -2
   7 -13   3 177.420 19.4996   1
  -8  13   1 759.828 27.4639  -2
   8 -13   3 759.828 27.4639   1
  -9  13   0 305.050 15.5965  -2
   9 -13   3 305.050 15.5965   1
  10 -13   1 595.983 23.9584  -2
  10 -13   3 595.983 23.9584   1
  11 -13   2 33.3159 14.8704  -2
  11 -13   3 33.3159 14.8704   1
  12 -13   3 54.4096 18.1925  -2
  12 -13   3 54.4096 18.1925   1
   9  12  16 83.9877 54.4964  -2
  -9 -12   3 83.9877 54.4964   1
   8  12  15 86.2097 51.1082  -2
  -8 -12   3 86.2097 51.1082   1
  -7 -12   3 44.3262 7.49018   1
   6  12  14 126.396 28.3444  -2
  -6 -12   3 126.396 28.3444   1
   5  12  13 20.1410 20.1598  -2
  -5 -12   3 20.1410 20.1598   1
   4  12  12 23.8370 12.7175  -2
  -4 -12   3 23.8370 12.7175   1
   3  12  11 223.225 13.1810  -2
  -3 -12   3 223.225 13.1810   1
   2  12  10 108.821 9.71486  -2
  -2 -12   3 108.821 9.71486   1
   1  12   9 535.125 20.9978  -2
  -1 -12   3 535.125 20.9978   1
   0  12   8 278.733 11.5780  -2
   0 -12   3 278.733 11.5780   1
  -1  12   7 295.010 10.4277  -2
   1 -12   3 295.010 10.4277   1
  -2  12   6 812.131 38.4653  -2
   2 -12   3 812.131 38.4653   1
  -3  12   5 10.3496 9.17185  -2
   3 -12   3 10.3496 9.17185   1
  -4  12   4 218.790 14.6612  -2
   4 -12   3 218.790 14.6612   1
  -5  12   3 50.0046 12.2169  -2
   5 -12   3 50.0046 12.2169   1
  -6  12   2 264.323 20.2402  -2
   6 -12   3 264.323 20.2402   1
  -7  12   1 17.8986 13.8693  -2
   7 -12   3 17.8986 13.8693   1
   8 -12   3 69.4639 8.37119   1
   9 -12   3 9.09525 6.51382   1
  10 -12   1 244.796 23.4640  -2
  10 -12   3 244.796 23.4640   1
  11 -12   2 74.3691 18.4669  -2
  11 -12   3 74.3691 18.4669   1
  12 -12   3 174.689 25.1702  -2
  12 -12   3 174.689 25.1702   1
  13 -12   4 44.5818 19.7482  -2
  13 -12   3 44.5818 19.7482   1
   9  11  16 30.9427 16.9039  -2
  -9 -11   3 30.9427 16.9039   1
   8  11  15 516.573 22.7850  -2
  -8 -11   3 516.573 22.7850   1
   7  11  14 64.0078 14.8505  -2
  -7 -11   3 64.0078 14.8505   1
   6  11  13 338.157 21.9013  -2
  -6 -11   3 338.157 21.9013   1
   5  11  12 161.672 17.3569  -2
  -5 -11   3 161.672 17.3569   1
   4  11  11 163.155 12.4396  -2
  -4 -11   3 163.155 12.4396   1
   3  11  10 37.1708 11.8147  -2
  -3 -11   3 37.1708 11.8147   1
   2  11   9 172.147 19.7740  -2
  -2 -11   3 172.147 19.7740   1
  -1 -11   3 85.7315 5.33629   1
   0 -11   3 32.3839 3.44609   1
  -1  11   7 27.9879 20.6126  -2
   1 -11   3 27.9879 20.6126   1
  -2  11   6 834.933 28.9136  -2
   2 -11   3 834.933 28.9136   1
  -3  11   5 247.218 14.3800  -2
   3 -11   3 247.218 14.3800   1
  -4  11   4 291.387 15.6283  -2
   4 -11   3 291.387 15.6283   1
  -5  11   3 40.4675 9.79729  -2
   5 -11   3 40.4675 9.79729   1
  -6  11   2 94.7915 9.89637  -2
   6 -11   3 94.7915 9.89637   1
  -7  11   1 69.0867 7.97906  -2
   7 -11   3 69.0867 7.97906   1
  -8  11   0 23.8125 4.95307  -2
   8 -11   3 23.8125 4.95307   1
   9 -11   1 332.623 12.0571  -2
   9 -11   3 332.623 12.0571   1
  10 -11   2 77.0298 7.18511  -2
  10 -11   3 77.0298 7.18511   1
  11 -11   3 87.5279 9.01845  -2
  11 -11   3 87.5279 9.01845   1
  12 -11   4 547.855 20.6720  -2
  12 -11   3 547.855 20.6720   1
  13 -11   5 229.560 22.7760  -2
  13 -11   3 229.560 22.7760   1
  14 -11   3 38.9566 18.9636   1
 -10 -10   3 190.224 12.9968   1
   9  10  16 53.8490 28.3188  -2
  -9 -10   3 53.8490 28.3188   1
   8  10  15 93.7196 19.6785  -2
  -8 -10   3 93.7196 19.6785   1
   7  10  14 24.3845 14.2666  -2
  -7 -10   3 24.3845 14.2666   1
   6  10  13 348.495 16.6028  -2
  -6 -10   3 348.495 16.6028   1
   5  10  12 88.3651 15.1673  -2
  -5 -10   3 88.3651 15.1673   1
   4  10  11 36.2854 10.1043  -2
  -4 -10   3 36.2854 10.1043   1
   3  10  10 93.6367 9.24424  -2
  -3 -10   3 93.6367 9.24424   1
   2  10   9 204.227 12.6498  -2
  -2 -10   3 204.227 12.6498   1
   1  10   8 147.702 8.34880  -2
  -1 -10   3 147.702 8.34880   1
   0  10   7 536.036 15.8372  -2
   0 -10   3 536.036 15.8372   1
  -1  10   6 21.7104 6.07346  -2
   1 -10   3 21.7104 6.07346   1
  -2  10   5 23.9745 5.86951  -2
   2 -10   3 23.9745 5.86951   1
  -3  10   4 5.19675 11.0338  -2
   3 -10   3 5.19675 11.0338   1
  -4  10   3 1320.48 59.7190  -2
   4 -10   3 1320.48 59.7190   1
   5 -10   3 832.485 22.1395   1
   6 -10   3 187.007 6.96540   1
  -7  10   1 1981.83 123.077  -2
   7 -10   3 1981.83 123.077   1
  -8  10   0 97.1913 9.51534  -2
   8 -10   3 97.1913 9.51534   1
   9 -10   1 227.352 10.9724  -2
   9 -10   3 227.352 10.9724   1
  10 -10   2 -0.5112 8.36417  -2
  10 -10   3 -0.5112 8.36417   1
  11 -10   3 56.6074 9.18687  -2
  11 -10   3 56.6074 9.18687   1
  12 -10   4 668.836 20.7751  -2
  12 -10   3 668.836 20.7751   1
  13 -10   5 58.1114 12.4966  -2
  13 -10   3 58.1114 12.4966   1
  14 -10   6 50.4392 11.0632  -2
  14 -10   3 50.4392 11.0632   1
  11   9  17 93.7032 18.6932  -2
 -11  -9   3 93.7032 18.6932   1
  10   9  16 651.822 32.6065  -2
 -10  -9   3 651.822 32.6065   1
   9   9  15 99.0461 15.5160  -2
  -9  -9   3 99.0461 15.5160   1
   8   9  14 23.0391 13.2709  -2
  -8  -9   3 23.0391 13.2709   1
   7   9  13 243.685 16.8426  -2
  -7  -9   3 243.685 16.8426   1
   6   9  12 244.269 16.2501  -2
  -6  -9   3 244.269 16.2501   1
   5   9  11 259.874 38.0220  -2
  -5  -9   3 259.874 38.0220   1
  -4  -9   3 951.636 26.5958   1
  -3  -9   3 -3.0287 3.57054   1
  -2  -9   3 107.854 6.64510   1
   1   9   8 1612.60 51.7011  -2
  -1  -9   3 1612.60 51.7011   1
   0   9   7 212.073 8.94818  -2
   0  -9   3 212.073 8.94818   1
  -1   9   6 291.552 10.1268  -2
   1  -9   3 291.552 10.1268   1
  -2   9   5 145.817 7.00505  -2
   2  -9   3 145.817 7.00505   1
  -3   9   4 1659.11 73.1257  -2
   3  -9   3 1659.11 73.1257   1
  -4   9   3 113.275 6.63220  -2
   4  -9   3 113.275 6.63220   1
  -5   9   2 52.2677 5.05457  -2
   5  -9   3 52.2677 5.05457   1
  -6   9   1 294.744 9.66376  -2
   6  -9   3 294.744 9.66376   1
  -7   9   0 1606.13 45.6532  -2
   7  -9   3 1606.13 45.6532   1
   8  -9   1 2822.85 79.2699  -2
   8  -9   3 2822.85 79.2699   1
   9  -9   2 802.323 24.8244  -2
   9  -9   3 802.323 24.8244   1
  10  -9   3 102.383 13.6106  -2
  10  -9   3 102.383 13.6106   1
  11  -9   4 788.744 40.2187  -2
  11  -9   3 788.744 40.2187   1
  12  -9   4 851.996 62.8535  -2
  12  -9   3 851.996 62.8535   1
  13  -9   5 -5.9237 30.8835  -2
  13  -9   3 -5.9237 30.8835   1
  14  -9   6 41.7066 19.0005  -2
  14  -9   3 41.7066 19.0005   1
  15  -9   7 394.752 27.7428  -2
  15  -9   3 394.752 27.7428   1
 -12  -8   3 24.6051 18.3772   1
  11   8  17 38.9580 29.3426  -2
 -11  -8   3 38.9580 29.3426   1
  10   8  16 359.548 26.8008  -2
 -10  -8   3 359.548 26.8008   1
   9   8  15 249.592 16.5383  -2
  -9  -8   3 249.592 16.5383   1
   8   8  14 301.768 15.8315  -2
  -8  -8   3 301.768 15.8315   1
   7   8  13 32.0573 14.1079  -2
  -7  -8   3 32.0573 14.1079   1
   6   8  12 632.125 24.0365  -2
  -6  -8   3 632.125 24.0365   1
   5   8  11 421.092 19.7292  -2
  -5  -8   3 421.092 19.7292   1
   4   8  10 200.777 11.0668  -2
  -4  -8   3 200.777 11.0668   1
   3   8   9 163.556 8.95819  -2
  -3  -8   3 163.556 8.95819   1
   2   8   8 574.523 18.5200  -2
  -2  -8   3 574.523 18.5200   1
   1   8   7 1316.34 37.9865  -2
  -1  -8   3 1316.34 37.9865   1
   0   8   6 129.889 7.62209  -2
   0  -8   3 129.889 7.62209   1
  -1   8   5 341.963 25.3704  -2
   1  -8   3 341.963 25.3704   1
   2  -8   3 357.683 10.5692   1
   3  -8   3 189.703 6.61806   1
   4  -8   3 53.3852 3.30405   1
  -5   8   2 320.888 18.0730  -2
   5  -8   3 320.888 18.0730   1
  -6   8   1 133.339 9.73440  -2
   6  -8   3 133.339 9.73440   1
  -7   8   0 197.802 9.04063  -2
   7  -8   3 197.802 9.04063   1
   8  -8   1 140.862 7.66222  -2
   8  -8   3 140.862 7.66222   1
   9  -8   2 129.111 9.92690  -2
   9  -8   3 129.111 9.92690   1
  10  -8   3 21.2334 7.42819  -2
  10  -8   3 21.2334 7.42819   1
  11  -8   4 1049.70 28.8363  -2
  11  -8   3 1049.70 28.8363   1
  12  -8   5 493.748 23.1605  -2
  12  -8   3 493.748 23.1605   1
  13  -8   6 333.825 14.5334  -2
  13  -8   3 333.825 14.5334   1
  14  -8   7 1.00979 14.0846  -2
  14  -8   3 1.00979 14.0846   1
  15  -8   8 53.2608 18.6942  -2
  15  -8   3 53.2608 18.6942   1
  12   7  17 137.865 22.0468  -2
 -12  -7   3 137.865 22.0468   1
  11   7  16 20.6518 20.1359  -2
 -11  -7   3 20.6518 20.1359   1
  10   7  15 116.834 17.7507  -2
 -10  -7   3 116.834 17.7507   1
   9   7  14 880.104 33.0511  -2
  -9  -7   3 880.104 33.0511   1
   8   7  13 499.578 23.2648  -2
  -8  -7   3 499.578 23.2648   1
   7   7  12 73.9991 29.6587  -2
  -7  -7   3 73.9991 29.6587   1
  -6  -7   3 167.838 10.2262   1
   5   7  11 115.618 17.9878  -2
  -5  -7   3 115.618 17.9878   1
   4   7  10 244.889 28.6489  -2
  -4  -7   3 244.889 28.6489   1
   3   7   9 105.294 8.47304  -2
  -3  -7   3 105.294 8.47304   1
   2   7   8 278.670 10.7761  -2
  -2  -7   3 278.670 10.7761   1
   1   7   7 344.126 11.9295  -2
  -1  -7   3 344.126 11.9295   1
   0   7   6 987.948 28.6527  -2
   0  -7   3 987.948 28.6527   1
  -1   7   5 552.802 16.6865  -2
   1  -7   3 552.802 16.6865   1
  -2   7   4 118.962 5.53144  -2
   2  -7   3 118.962 5.53144   1
  -3   7   3 508.182 14.0160  -2
   3  -7   3 508.182 14.0160   1
  -4   7   2 2221.59 56.4223  -2
   4  -7   3 2221.59 56.4223   1
  -5   7   1 101.811 6.88873  -2
   5  -7   3 101.811 6.88873   1
  -6   7   0 132.074 8.13371  -2
   6  -7   3 132.074 8.13371   1
   7  -7   1 11.6143 8.54862  -2
   7  -7   3 11.6143 8.54862   1
   8  -7   3 16.4781 3.19387   1
   9  -7   3 123.752 6.20586   1
  10  -7   3 -3.0876 3.64382   1
  11  -7   4 135.446 15.2532  -2
  11  -7   3 135.446 15.2532   1
  12  -7   5 62.3634 15.2595  -2
  12  -7   3 62.3634 15.2595   1
  13  -7   6 180.486 13.3927  -2
  13  -7   3 180.486 13.3927   1
  14  -7   7 29.0759 13.2523  -2
  14  -7   3 29.0759 13.2523   1
  15  -7   8 445.771 28.0225  -2
  15  -7   3 445.771 28.0225   1
  16  -7   9 194.522 22.7021  -2
  16  -7   3 194.522 22.7021   1
 -13  -6   3 119.477 20.6255   1
  12   6  17 13.3376 22.2897  -2
 -12  -6   3 13.3376 22.2897   1
  11   6  16 239.619 22.3995  -2
 -11  -6   3 239.619 22.3995   1
  10   6  15 16.2640 13.0339  -2
 -10  -6   3 16.2640 13.0339   1
   9   6  14 307.536 15.0095  -2
  -9  -6   3 307.536 15.0095   1
   8   6  13 338.429 24.0153  -2
  -8  -6   3 338.429 24.0153   1
   7   6  12 282.005 12.5821  -2
  -7  -6   3 282.005 12.5821   1
   6   6  11 1099.75 42.7247  -2
  -6  -6   3 1099.75 42.7247   1
   5   6  10 314.542 13.9496  -2
  -5  -6   3 314.542 13.9496   1
   4   6   9 52.8725 7.58480  -2
  -4  -6   3 52.8725 7.58480   1
   3   6   8 144.261 8.16864  -2
  -3  -6   3 144.261 8.16864   1
   2   6   7 810.158 37.6549  -2
  -2  -6   3 810.158 37.6549   1
  -1  -6   3 507.215 14.2840   1
   0  -6   3 11.9255 2.13760   1
   1  -6   3 47.8806 2.96574   1
  -2   6   4 1250.51 79.4165  -2
   2  -6   3 1250.51 79.4165   1
  -3   6   3 1558.65 48.3573  -2
   3  -6   3 1558.65 48.3573   1
  -4   6   2 384.842 13.4717  -2
   4  -6   3 384.842 13.4717   1
  -5   6   1 250.215 9.94822  -2
   5  -6   3 250.215 9.94822   1
  -6   6   0 662.352 19.7452  -2
   6  -6   3 662.352 19.7452   1
   7  -6   1 893.117 26.1358  -2
   7  -6   3 893.117 26.1358   1
   8  -6   2 754.434 28.8084  -2
   8  -6   3 754.434 28.8084   1
   9  -6   3 539.179 17.2338  -2
   9  -6   3 539.179 17.2338   1
  10  -6   4 1007.63 30.5850  -2
  10  -6   3 1007.63 30.5850   1
  11  -6   5 758.347 24.0931  -2
  11  -6   3 758.347 24.0931   1
  12  -6   6 240.508 12.6140  -2
  12  -6   3 240.508 12.6140   1
  13  -6   7 821.827 27.6071  -2
  13  -6   3 821.827 27.6071   1
  14  -6   8 279.992 23.1596  -2
  14  -6   3 279.992 23.1596   1
  15  -6   3 276.602 14.3420   1
  16  -6   3 47.6756 9.88161   1
  13   5  17 104.606 23.6368  -2
 -13  -5   3 104.606 23.6368   1
  12   5  16 -18.338 22.0580  -2
 -12  -5   3 -18.338 22.0580   1
  11   5  15 7.62945 20.4084  -2
 -11  -5   3 7.62945 20.4084   1
  10   5  14 95.7282 19.6911  -2
 -10  -5   3 95.7282 19.6911   1
  -9  -5   3 3.65836 5.32990   1
  -8  -5   3 19.2143 4.96545   1
   7   5  12 440.500 19.1490  -2
  -7  -5   3 440.500 19.1490   1
   6   5  11 137.988 13.8151  -2
  -6  -5   3 137.988 13.8151   1
   5   5  10 1064.29 35.3803  -2
  -5  -5   3 1064.29 35.3803   1
   4   5   9 1058.67 31.2245  -2
  -4  -5   3 1058.67 31.2245   1
   3   5   8 160.131 6.76864  -2
  -3  -5   3 160.131 6.76864   1
   2   5   7 256.780 11.3598  -2
  -2  -5   3 256.780 11.3598   1
   1   5   6 65.7503 4.04740  -2
  -1  -5   3 65.7503 4.04740   1
   0   5   5 735.107 19.5063  -2
   0  -5   3 735.107 19.5063   1
  -1   5   4 180.917 6.72600  -2
   1  -5   3 180.917 6.72600   1
  -2   5   3 410.265 13.6204  -2
   2  -5   3 410.265 13.6204   1
  -3   5   2 547.607 17.8341  -2
   3  -5   3 547.607 17.8341   1
  -4   5   1 228.951 10.2052  -2
   4  -5   3 228.951 10.2052   1
   5  -5   3 405.854 11.3194   1
   6  -5   3 760.532 20.1354   1
   7  -5   3 17.8231 2.84406   1
   8  -5   3 1.46345 2.84383   1
   9  -5   3 16.2012 12.8330  -2
   9  -5   3 16.2012 12.8330   1
  10  -5   4 1134.82 43.2243  -2
  10  -5   3 1134.82 43.2243   1
  11  -5   5 812.757 32.7457  -2
  11  -5   3 812.757 32.7457   1
  12  -5   6 28.6919 9.41613  -2
  12  -5   3 28.6919 9.41613   1
  13  -5   7 109.329 12.8307  -2
  13  -5   3 109.329 12.8307   1
  14  -5   8 297.839 15.2572  -2
  14  -5   3 297.839 15.2572   1
  15  -5   9 417.472 19.8188  -2
  15  -5   3 417.472 19.8188   1
  16  -5  10 96.7708 28.8484  -2
  16  -5   3 96.7708 28.8484   1
  13   4  17 92.5707 25.1613  -2
 -13  -4   3 92.5707 25.1613   1
  12   4  16 50.1588 19.4459  -2
 -12  -4   3 50.1588 19.4459   1
  11   4  15 303.130 16.9122  -2
 -11  -4   3 303.130 16.9122   1
  10   4  14 927.088 29.0587  -2
 -10  -4   3 927.088 29.0587   1
   9   4  13 534.547 24.3460  -2
  -9  -4   3 534.547 24.3460   1
   8   4  12 272.150 15.9603  -2
  -8  -4   3 272.150 15.9603   1
   7   4  11 1386.37 40.7168  -2
  -7  -4   3 1386.37 40.7168   1
   6   4  10 327.083 16.6143  -2
  -6  -4   3 327.083 16.6143   1
   5   4   9 115.729 13.5187  -2
  -5  -4   3 115.729 13.5187   1
   4   4   8 49.7955 15.0993  -2
  -4  -4   3 49.7955 15.0993   1
  -3  -4   3 67.2318 4.18591   1
  -2  -4   3 51.9366 3.19117   1
  -1  -4   3 922.340 24.1538   1
   0  -4   3 560.335 16.5285   1
  -1   4   4 1344.35 48.2775  -2
   1  -4   3 1344.35 48.2775   1
  -2   4   3 4894.66 149.492  -2
   2  -4   3 4894.66 149.492   1
  -3   4   2 848.061 26.6404  -2
   3  -4   3 848.061 26.6404   1
  -4   4   1 107.398 4.60160  -2
   4  -4   3 107.398 4.60160   1
  -5   4   0 900.514 23.5820  -2
   5  -4   3 900.514 23.5820   1
   6  -4   1 270.150 9.22442  -2
   6  -4   3 270.150 9.22442   1
   7  -4   2 416.922 13.5045  -2
   7  -4   3 416.922 13.5045   1
   8  -4   3 172.138 7.93824  -2
   8  -4   3 172.138 7.93824   1
   9  -4   4 1124.15 36.5531  -2
   9  -4   3 1124.15 36.5531   1
  10  -4   5 40.9889 10.0626  -2
  10  -4   3 40.9889 10.0626   1
  11  -4   6 290.004 29.2569  -2
  11  -4   3 290.004 29.2569   1
  12  -4   7 187.608 28.9742  -2
  12  -4   3 187.608 28.9742   1
  13  -4   3 28.4538 5.47598   1
  14  -4   8 129.980 29.8022  -2
  14  -4   3 129.980 29.8022   1
  15  -4   9 29.0790 23.7835  -2
  15  -4   3 29.0790 23.7835   1
  16  -4  10 62.5551 24.4237  -2
  16  -4   3 62.5551 24.4237   1
  17  -4  11 78.8983 46.9176  -2
  17  -4   3 78.8983 46.9176   1
  14   3  17 27.2739 43.2954  -2
 -14  -3   3 27.2739 43.2954   1
  13   3  16 289.944 40.9640  -2
 -13  -3   3 289.944 40.9640   1
  12   3  15 64.1197 26.3639  -2
 -12  -3   3 64.1197 26.3639   1
  11   3  15 49.7785 30.7403  -2
 -11  -3   3 49.7785 30.7403   1
  10   3  14 76.3846 23.3693  -2
 -10  -3   3 76.3846 23.3693   1
   9   3  13 255.891 15.2486  -2
  -9  -3   3 255.891 15.2486   1
   8   3  12 292.813 16.9448  -2
  -8  -3   3 292.813 16.9448   1
   7   3  11 1122.59 33.7376  -2
  -7  -3   3 1122.59 33.7376   1
   6   3  10 372.567 13.5372  -2
  -6  -3   3 372.567 13.5372   1
   5   3   9 349.591 12.3706  -2
  -5  -3   3 349.591 12.3706   1
   4   3   8 650.455 19.6119  -2
  -4  -3   3 650.455 19.6119   1
   3   3   7 2034.20 73.8081  -2
  -3  -3   3 2034.20 73.8081   1
   2   3   6 24.0373 3.31982  -2
  -2  -3   3 24.0373 3.31982   1
   1   3   5 551.314 14.9430  -2
  -1  -3   3 551.314 14.9430   1
   0   3   4 196.388 7.00601  -2
   0  -3   3 196.388 7.00601   1
  -1   3   3 466.222 17.6482  -2
   1  -3   3 466.222 17.6482   1
  -2   3   2 1022.52 44.9862  -2
   2  -3   3 1022.52 44.9862   1
   3  -3   3 3011.98 75.6422   1
   4  -3   3 759.804 19.7417   1
   5  -3   3 1.01635 1.82260   1
   6  -3   3 748.786 19.8207   1
   7  -3   2 86.8205 9.73819  -2
   7  -3   3 86.8205 9.73819   1
   8  -3   3 -5.0820 7.99906  -2
   8  -3   3 -5.0820 7.99906   1
   9  -3   4 28.1295 6.89602  -2
   9  -3   3 28.1295 6.89602   1
  10  -3   5 0.96743 9.77899  -2
  10  -3   3 0.96743 9.77899   1
  11  -3   6 402.920 16.8250  -2
  11  -3   3 402.920 16.8250   1
  12  -3   7 1323.51 43.5000  -2
  12  -3   3 1323.51 43.5000   1
  13  -3   8 -0.0381 9.71320  -2
  13  -3   3 -0.0381 9.71320   1
  14  -3   9 173.319 13.2536  -2
  14  -3   3 173.319 13.2536   1
  15  -3  10 192.382 16.0478  -2
  15  -3   3 192.382 16.0478   1
  16  -3  11 50.7706 24.4240  -2
  16  -3   3 50.7706 24.4240   1
  17  -3  12 309.953 60.9412  -2
  17  -3   3 309.953 60.9412   1
  14   2  17 160.986 31.5456  -2
 -14  -2   3 160.986 31.5456   1
  13   2  16 192.845 19.3851  -2
 -13  -2   3 192.845 19.3851   1
  12   2  15 56.7466 13.7453  -2
 -12  -2   3 56.7466 13.7453   1
  11   2  14 874.564 28.8868  -2
 -11  -2   3 874.564 28.8868   1
  10   2  13 196.706 15.7483  -2
 -10  -2   3 196.706 15.7483   1
   9   2  12 218.332 17.5420  -2
  -9  -2   3 218.332 17.5420   1
   8   2  11 711.976 31.3885  -2
  -8  -2   3 711.976 31.3885   1
  -7  -2   3 114.855 10.1889   1
  -6  -2   3 43.1705 4.51983   1
  -5  -2   3 948.675 31.3366   1
  -4  -2   3 852.448 24.9419   1
  -3  -2   3 143.644 5.73032   1
   2   2   6 57.2936 8.57510  -2
  -2  -2   3 57.2936 8.57510   1
   1   2   5 357.837 10.8497  -2
  -1  -2   3 357.837 10.8497   1
   0   2   4 573.377 16.6426  -2
   0  -2   3 573.377 16.6426   1
  -1   2   3 447.247 14.6754  -2
   1  -2   3 447.247 14.6754   1
  -2   2   2 1631.20 41.3270  -2
   2  -2   3 1631.20 41.3270   1
  -3   2   1 274.555 7.69994  -2
   3  -2   3 274.555 7.69994   1
  -4   2   0 5375.17 134.935  -2
   4  -2   3 5375.17 134.935   1
   5  -2   1 456.453 15.2165  -2
   5  -2   3 456.453 15.2165   1
   6  -2   2 17.5105 6.60083  -2
   6  -2   3 17.5105 6.60083   1
   7  -2   3 2.42677 8.20230  -2
   7  -2   3 2.42677 8.20230   1
   8  -2   4 856.175 38.6593  -2
   8  -2   3 856.175 38.6593   1
   9  -2   5 2198.99 95.7573  -2
   9  -2   3 2198.99 95.7573   1
  10  -2   3 469.974 17.9531   1
  11  -2   3 54.7412 5.09844   1
  12  -2   7 236.870 27.8857  -2
  12  -2   3 236.870 27.8857   1
  13  -2   8 755.746 40.5517  -2
  13  -2   3 755.746 40.5517   1
  14  -2   9 330.885 17.3582  -2
  14  -2   3 330.885 17.3582   1
  15  -2  10 72.3622 14.7031  -2
  15  -2   3 72.3622 14.7031   1
  16  -2  11 965.366 54.3717  -2
  16  -2   3 965.366 54.3717   1
  17  -2  12 203.663 44.4752  -2
  17  -2   3 203.663 44.4752   1
 -14  -1   3 24.5521 13.6091   1
  13   1  16 723.157 56.8274  -2
 -13  -1   3 723.157 56.8274   1
  12   1  15 96.9325 22.1599  -2
 -12  -1   3 96.9325 22.1599   1
  11   1  14 13.4782 13.8690  -2
 -11  -1   3 13.4782 13.8690   1
  10   1  13 211.930 13.2736  -2
 -10  -1   3 211.930 13.2736   1
   9   1  12 165.230 12.2608  -2
  -9  -1   3 165.230 12.2608   1
   8   1  11 126.976 8.93905  -2
  -8  -1   3 126.976 8.93905   1
   7   1  10 60.2555 6.76331  -2
  -7  -1   3 60.2555 6.76331   1
   6   1   9 32.5930 5.67024  -2
  -6  -1   3 32.5930 5.67024   1
   5   1   8 258.797 16.1020  -2
  -5  -1   3 258.797 16.1020   1
   4   1   7 617.047 21.0001  -2
  -4  -1   3 617.047 21.0001   1
   3   1   6 1399.89 51.5030  -2
  -3  -1   3 1399.89 51.5030   1
   2   1   5 531.813 25.1046  -2
  -2  -1   3 531.813 25.1046   1
   1   1   4 5911.82 367.651  -2
  -1  -1   3 5911.82 367.651   1
   0  -1   3 2676.90 67.5865   1
   1  -1   3 1343.56 33.9048   1
   2  -1   3 91.6872 3.05417   1
   3  -1   3 79.1376 3.03372   1
   4  -1   3 12.3663 1.77104   1
   5  -1   1 4680.02 198.837  -2
   5  -1   3 4680.02 198.837   1
   6  -1   2 91.8215 8.02033  -2
   6  -1   3 91.8215 8.02033   1
   7  -1   3 925.751 26.8795  -2
   7  -1   3 925.751 26.8795   1
   8  -1   4 2238.49 81.1065  -2
   8  -1   3 2238.49 81.1065   1
   9  -1   5 375.233 14.4358  -2
   9  -1   3 375.233 14.4358   1
  10  -1   6 133.972 10.6438  -2
  10  -1   3 133.972 10.6438   1
  11  -1   7 411.992 15.7398  -2
  11  -1   3 411.992 15.7398   1
  12  -1   8 5.90751 11.2104  -2
  12  -1   3 5.90751 11.2104   1
  13  -1   9 373.149 17.0825  -2
  13  -1   3 373.149 17.0825   1
  14  -1  10 223.547 17.1773  -2
  14  -1   3 223.547 17.1773   1
  15  -1  11 26.6021 21.1077  -2
  15  -1   3 26.6021 21.1077   1
  16  -1   3 -1.3716 11.1260   1
  17  -1   3 759.034 46.5431   1
  14   0  16 103.962 28.5127  -2
 -14   0   3 103.962 28.5127   1
  13   0  15 277.032 19.8406  -2
 -13   0   3 277.032 19.8406   1
  12   0  14 62.3410 15.8912  -2
 -12   0   3 62.3410 15.8912   1
  11   0  13 571.769 24.9273  -2
 -11   0   3 571.769 24.9273   1
  10   0  12 76.1327 14.8535  -2
 -10   0   3 76.1327 14.8535   1
   9   0  11 228.118 27.1543  -2
  -9   0   3 228.118 27.1543   1
   8   0  10 1109.11 73.1097  -2
  -8   0   3 1109.11 73.1097   1
  -7   0   3 15.7331 3.52443   1
  -6   0   3 231.287 9.84055   1
   5   0   8 207.435 22.5283  -2
  -5   0   3 207.435 22.5283   1
   4   0   7 2566.71 114.057  -2
  -4   0   3 2566.71 114.057   1
   3   0   6 152.546 8.36911  -2
  -3   0   3 152.546 8.36911   1
   2   0   5 245.067 9.11760  -2
  -2   0   3 245.067 9.11760   1
   1   0   4 3901.53 140.471  -2
  -1   0   3 3901.53 140.471   1
   0   0   3 4.53198 1.97302  -2
   0   0   3 4.53198 1.97302   1
  -1   0   2 2056.42 52.3002  -2
   1   0   3 2056.42 52.3002   1
  -2   0   1 841.729 36.4352  -2
   2   0   3 841.729 36.4352   1
   3   0   0 1363.24 82.7597  -2
   3   0   3 1363.24 82.7597   1
   4   0   1 622.499 39.2097  -2
   4   0   3 622.499 39.2097   1
   5   0   2 279.790 20.3759  -2
   5   0   3 279.790 20.3759   1
   6   0   3 130.857 5.06569   1
   7   0   3 104.748 4.98401   1
   8   0   3 240.981 8.24743   1
   9   0   3 305.885 10.2400   1
  10   0   3 -2.1087 5.44962   1
  11   0   7 130.434 14.9021  -2
  11   0   3 130.434 14.9021   1
  12   0   8 1016.46 32.1042  -2
  12   0   3 1016.46 32.1042   1
  13   0   9 511.322 22.2596  -2
  13   0   3 511.322 22.2596   1
  14   0  10 33.1870 11.4466  -2
  14   0   3 33.1870 11.4466   1
  15   0  11 3.33613 11.1592  -2
  15   0   3 3.33613 11.1592   1
  16   0  12 7.94075 18.7606  -2
  16   0   3 7.94075 18.7606   1
  17   0  13 30.7341 43.4992  -2
  17   0   3 30.7341 43.4992   1
  14  -1  16 -11.291 29.9987  -2
 -14   1   3 -11.291 29.9987   1
  13  -1  15 126.835 18.5671  -2
 -13   1   3 126.835 18.5671   1
  12  -1  14 421.708 21.1046  -2
 -12   1   3 421.708 21.1046   1
  11  -1  13 262.390 13.9158  -2
 -11   1   3 262.390 13.9158   1
  10  -1  12 299.753 20.3224  -2
 -10   1   3 299.753 20.3224   1
   9  -1  11 463.211 26.8604  -2
  -9   1   3 463.211 26.8604   1
   8  -1  10 962.976 32.3167  -2
  -8   1   3 962.976 32.3167   1
   7  -1   9 2057.31 58.2827  -2
  -7   1   3 2057.31 58.2827   1
   6  -1   8 1363.77 39.1202  -2
  -6   1   3 1363.77 39.1202   1
   5  -1   7 1334.34 48.7474  -2
  -5   1   3 1334.34 48.7474   1
   4  -1   6 1989.42 120.435  -2
  -4   1   3 1989.42 120.435   1
  -3   1   3 145.326 5.34301   1
  -2   1   3 191.614 6.20876   1
  -1   1   3 3494.76 108.488   1
   0   1   3 516.195 16.5173   1
   1   1   3 94.6673 2.81683   1
   2   1   3 -0.1862 0.91074   1
   3   1   3 62.0011 2.96232   1
   4   1   1 2559.06 154.245  -2
   4   1   3 2559.06 154.245   1
   5   1   2 1789.66 56.0362  -2
   5   1   3 1789.66 56.0362   1
   6   1   3 990.052 31.8165  -2
   6   1   3 990.052 31.8165   1
   7   1   4 13.3948 4.42672  -2
   7   1   3 13.3948 4.42672   1
   8   1   5 387.487 17.3942  -2
   8   1   3 387.487 17.3942   1
   9   1   6 465.311 15.8965  -2
   9   1   3 465.311 15.8965   1
  10   1   7 233.844 27.6384  -2
  10   1   3 233.844 27.6384   1
  11   1   8 173.419 15.2169  -2
  11   1   3 173.419 15.2169   1
  12   1   9 187.134 19.1755  -2
  12   1   3 187.134 19.1755   1
  13   1  10 146.291 21.5379  -2
  13   1   3 146.291 21.5379   1
  14   1   3 443.287 17.8737   1
  15   1  11 54.0137 23.5667  -2
  15   1   3 54.0137 23.5667   1
  16   1   3 22.1117 13.3990   1
  17   1  13 15.6905 46.9168  -2
  17   1   3 15.6905 46.9168   1
  14  -2  15 54.0278 19.5054  -2
 -14   2   3 54.0278 19.5054   1
  13  -2  14 185.489 18.7994  -2
 -13   2   3 185.489 18.7994   1
  12  -2  13 117.356 21.2410  -2
 -12   2   3 117.356 21.2410   1
 -11   2   3 120.509 9.42931   1
  10  -2  11 158.035 28.0677  -2
 -10   2   3 158.035 28.0677   1
   9  -2  11 281.503 28.3712  -2
  -9   2   3 281.503 28.3712   1
   8  -2  10 904.996 42.2856  -2
  -8   2   3 904.996 42.2856   1
   7  -2   9 399.298 18.1700  -2
  -7   2   3 399.298 18.1700   1
   6  -2   8 407.576 13.7849  -2
  -6   2   3 407.576 13.7849   1
   5  -2   7 104.948 6.04954  -2
  -5   2   3 104.948 6.04954   1
   4  -2   6 564.948 16.7038  -2
  -4   2   3 564.948 16.7038   1
   3  -2   5 316.109 10.7329  -2
  -3   2   3 316.109 10.7329   1
   2  -2   4 180.838 7.58449  -2
  -2   2   3 180.838 7.58449   1
   1  -2   3 354.627 9.36739  -2
  -1   2   3 354.627 9.36739   1
   0   2   3 110.068 3.97454   1
  -1  -2   1 158.898 5.56642  -2
   1   2   3 158.898 5.56642   1
   2   2   0 1163.56 72.3028  -2
   2   2   3 1163.56 72.3028   1
   3   2   3 540.005 15.5263   1
   4   2   3 1421.17 39.7947   1
   5   2   3 154.391 6.59631   1
   6   2   3 433.776 13.4480   1
   7   2   3 1461.14 41.5550   1
   8   2   5 289.627 22.2870  -2
   8   2   3 289.627 22.2870   1
   9   2   6 21.2709 9.55177  -2
   9   2   3 21.2709 9.55177   1
  10   2   7 201.446 19.3846  -2
  10   2   3 201.446 19.3846   1
  11   2   8 596.671 26.1060  -2
  11   2   3 596.671 26.1060   1
  12   2   9 284.840 16.4478  -2
  12   2   3 284.840 16.4478   1
  13   2  10 152.544 12.7552  -2
  13   2   3 152.544 12.7552   1
  14   2  11 15.6286 11.3009  -2
  14   2   3 15.6286 11.3009   1
  15   2  12 105.706 14.8767  -2
  15   2   3 105.706 14.8767   1
  16   2  13 1307.37 97.8828  -2
  16   2   3 1307.37 97.8828   1
  14  -3  15 14.3064 15.8092  -2
 -14   3   3 14.3064 15.8092   1
  13  -3  14 450.760 25.9951  -2
 -13   3   3 450.760 25.9951   1
  12  -3  13 135.141 13.0549  -2
 -12   3   3 135.141 13.0549   1
  11  -3  12 184.644 14.8079  -2
 -11   3   3 184.644 14.8079   1
  10  -3  11 162.858 11.1779  -2
 -10   3   3 162.858 11.1779   1
   9  -3  10 63.8027 9.08533  -2
  -9   3   3 63.8027 9.08533   1
   8  -3   9 309.917 15.6205  -2
  -8   3   3 309.917 15.6205   1
   7  -3   8 -17.934 9.11716  -2
  -7   3   3 -17.934 9.11716   1
   6  -3   7 122.584 16.0509  -2
  -6   3   3 122.584 16.0509   1
   5  -3   6 1967.29 119.753  -2
  -5   3   3 1967.29 119.753   1
  -4   3   3 413.400 11.2889   1
  -3   3   3 84.0632 3.25613   1
   2  -3   4 219.371 14.3664  -2
  -2   3   3 219.371 14.3664   1
   1  -3   3 548.739 24.3426  -2
  -1   3   3 548.739 24.3426   1
   0   3   3 1407.01 49.8061   1
  -1  -3   1 278.243 10.6693  -2
   1   3   3 278.243 10.6693   1
   2   3   0 361.586 11.8128  -2
   2   3   3 361.586 11.8128   1
   3   3   1 3326.83 103.617  -2
   3   3   3 3326.83 103.617   1
   4   3   2 2664.92 74.4020  -2
   4   3   3 2664.92 74.4020   1
   5   3   3 122.220 7.17514  -2
   5   3   3 122.220 7.17514   1
   6   3   4 229.260 14.7351  -2
   6   3   3 229.260 14.7351   1
   7   3   5 671.898 32.2260  -2
   7   3   3 671.898 32.2260   1
   8   3   6 734.519 51.5054  -2
   8   3   3 734.519 51.5054   1
   9   3   3 4.47274 3.92213   1
  10   3   3 90.4705 6.51220   1
  11   3   3 221.175 12.2450   1
  12   3   3 54.9577 6.14200   1
  13   3  10 85.2429 21.4848  -2
  13   3   3 85.2429 21.4848   1
  14   3  11 138.650 20.8257  -2
  14   3   3 138.650 20.8257   1
  15   3  12 118.157 23.1180  -2
  15   3   3 118.157 23.1180   1
  16   3  13 133.884 32.5638  -2
  16   3   3 133.884 32.5638   1
  14  -4  14 232.592 42.4033  -2
 -14   4   3 232.592 42.4033   1
  13  -4  13 280.837 38.8843  -2
 -13   4   3 280.837 38.8843   1
  12  -4  13 565.736 49.8856  -2
 -12   4   3 565.736 49.8856   1
  11  -4  12 30.6437 15.0089  -2
 -11   4   3 30.6437 15.0089   1
  10  -4  11 185.328 12.2485  -2
 -10   4   3 185.328 12.2485   1
   9  -4  10 469.669 16.8333  -2
  -9   4   3 469.669 16.8333   1
   8  -4   9 1117.06 36.6246  -2
  -8   4   3 1117.06 36.6246   1
   7  -4   8 805.050 31.2263  -2
  -7   4   3 805.050 31.2263   1
   6  -4   7 351.317 15.0686  -2
  -6   4   3 351.317 15.0686   1
   5  -4   6 410.210 14.1508  -2
  -5   4   3 410.210 14.1508   1
   4  -4   5 1091.92 28.0718  -2
  -4   4   3 1091.92 28.0718   1
   3  -4   4 875.533 24.5483  -2
  -3   4   3 875.533 24.5483   1
   2  -4   3 5374.64 188.837  -2
  -2   4   3 5374.64 188.837   1
   1  -4   2 3128.52 188.637  -2
  -1   4   3 3128.52 188.637   1
   0   4   3 385.122 23.6935   1
   1   4   3 4.91719 3.04199   1
   2   4   3 3226.33 99.4072   1
   3   4   3 311.470 8.61332   1
   4   4   3 1677.44 52.6314   1
   5   4   3 421.673 29.1513  -2
   5   4   3 421.673 29.1513   1
   6   4   4 3088.01 135.665  -2
   6   4   3 3088.01 135.665   1
   7   4   5 647.801 45.4925  -2
   7   4   3 647.801 45.4925   1
   8   4   6 1578.83 59.0391  -2
   8   4   3 1578.83 59.0391   1
   9   4   7 1715.16 78.8597  -2
   9   4   3 1715.16 78.8597   1
  10   4   8 185.951 11.9153  -2
  10   4   3 185.951 11.9153   1
  11   4   9 239.246 15.1714  -2
  11   4   3 239.246 15.1714   1
  12   4  10 270.181 13.9649  -2
  12   4   3 270.181 13.9649   1
  13   4  11 219.423 14.5818  -2
  13   4   3 219.423 14.5818   1
  14   4  12 217.068 16.3563  -2
  14   4   3 217.068 16.3563   1
  15   4  13 219.053 31.8903  -2
  15   4   3 219.053 31.8903   1
  16   4  14 -67.692 50.7430  -2
  16   4   3 -67.692 50.7430   1
  14  -5  14 157.837 16.4077  -2
 -14   5   3 157.837 16.4077   1
  13  -5  13 5.92392 13.6961  -2
 -13   5   3 5.92392 13.6961   1
  12  -5  12 149.303 17.5031  -2
 -12   5   3 149.303 17.5031   1
  11  -5  11 307.307 16.5707  -2
 -11   5   3 307.307 16.5707   1
  10  -5  10 453.647 22.1506  -2
 -10   5   3 453.647 22.1506   1
   9  -5   9 778.381 40.7478  -2
  -9   5   3 778.381 40.7478   1
   8  -5   8 2609.34 159.163  -2
  -8   5   3 2609.34 159.163   1
   7  -5   7 195.654 21.3190  -2
  -7   5   3 195.654 21.3190   1
  -6   5   3 602.993 16.3642   1
   5  -5   6 234.565 18.0999  -2
  -5   5   3 234.565 18.0999   1
   4  -5   5 368.606 14.1887  -2
  -4   5   3 368.606 14.1887   1
   3  -5   4 326.091 15.5511  -2
  -3   5   3 326.091 15.5511   1
   2  -5   3 405.390 14.9302  -2
  -2   5   3 405.390 14.9302   1
   1  -5   2 443.295 20.0313  -2
  -1   5   3 443.295 20.0313   1
   0  -5   1 1989.51 85.8561  -2
   0   5   3 1989.51 85.8561   1
   1   5   0 4994.67 216.136  -2
   1   5   3 4994.67 216.136   1
   2   5   1 358.291 13.8728  -2
   2   5   3 358.291 13.8728   1
   3   5   2 152.651 6.83522  -2
   3   5   3 152.651 6.83522   1
   4   5   3 304.863 12.5099  -2
   4   5   3 304.863 12.5099   1
   5   5   4 1091.10 49.7334  -2
   5   5   3 1091.10 49.7334   1
   6   5   5 519.918 26.7129  -2
   6   5   3 519.918 26.7129   1
   7   5   6 386.454 29.7833  -2
   7   5   3 386.454 29.7833   1
   8   5   3 44.4988 4.38687   1
   9   5   3 112.288 6.47435   1
  10   5   3 380.227 14.5278   1
  11   5   9 605.506 34.7724  -2
  11   5   3 605.506 34.7724   1
  12   5  10 152.860 15.3417  -2
  12   5   3 152.860 15.3417   1
  13   5  11 334.713 17.2293  -2
  13   5   3 334.713 17.2293   1
  14   5  12 83.3997 13.2941  -2
  14   5   3 83.3997 13.2941   1
  15   5  13 9.01814 17.4549  -2
  15   5   3 9.01814 17.4549   1
  16   5  14 33.9675 24.2251  -2
  16   5   3 33.9675 24.2251   1
  14  -6  14 253.927 23.1952  -2
 -14   6   3 253.927 23.1952   1
  13  -6  13 -23.498 19.7123  -2
 -13   6   3 -23.498 19.7123   1
  12  -6  12 816.438 30.3250  -2
 -12   6   3 816.438 30.3250   1
  11  -6  11 1005.92 40.2809  -2
 -11   6   3 1005.92 40.2809   1
  10  -6  10 195.355 12.1316  -2
 -10   6   3 195.355 12.1316   1
   9  -6   9 146.914 14.4702  -2
  -9   6   3 146.914 14.4702   1
   8  -6   8 753.916 29.5918  -2
  -8   6   3 753.916 29.5918   1
   7  -6   7 893.610 23.8940  -2
  -7   6   3 893.610 23.8940   1
   6  -6   6 465.261 13.2288  -2
  -6   6   3 465.261 13.2288   1
   5  -6   5 271.452 9.00656  -2
  -5   6   3 271.452 9.00656   1
   4  -6   4 1040.33 45.2854  -2
  -4   6   3 1040.33 45.2854   1
   3  -6   3 1302.47 79.3236  -2
  -3   6   3 1302.47 79.3236   1
   2  -6   2 356.179 23.4237  -2
  -2   6   3 356.179 23.4237   1
  -1   6   3 509.558 23.4405   1
   0   6   3 304.762 14.8642   1
   1   6   3 17.1006 4.90683   1
   2   6   1 1235.28 54.9268  -2
   2   6   3 1235.28 54.9268   1
   3   6   2 580.993 26.7573  -2
   3   6   3 580.993 26.7573   1
   4   6   3 23.9613 4.42370  -2
   4   6   3 23.9613 4.42370   1
   5   6   4 3942.45 123.098  -2
   5   6   3 3942.45 123.098   1
   6   6   5 2441.65 68.6060  -2
   6   6   3 2441.65 68.6060   1
   7   6   6 173.792 10.2388  -2
   7   6   3 173.792 10.2388   1
   8   6   7 196.157 11.6224  -2
   8   6   3 196.157 11.6224   1
   9   6   8 430.218 24.0305  -2
   9   6   3 430.218 24.0305   1
  10   6   9 53.3561 12.3624  -2
  10   6   3 53.3561 12.3624   1
  11   6  10 59.7125 12.4162  -2
  11   6   3 59.7125 12.4162   1
  12   6  11 -7.5977 13.9287  -2
  12   6   3 -7.5977 13.9287   1
  13   6  12 535.117 25.7708  -2
  13   6   3 535.117 25.7708   1
  14   6  13 218.440 29.7232  -2
  14   6   3 218.440 29.7232   1
  15   6  14 149.321 45.7905  -2
  15   6   3 149.321 45.7905   1
  16   6   3 8.25376 24.1949   1
  14  -7  13 131.867 24.8148  -2
 -14   7   3 131.867 24.8148   1
  13  -7  12 41.7088 15.3051  -2
 -13   7   3 41.7088 15.3051   1
  12  -7  11 30.9794 17.1065  -2
 -12   7   3 30.9794 17.1065   1
  11  -7  10 281.920 20.9144  -2
 -11   7   3 281.920 20.9144   1
 -10   7   3 -2.1542 4.35366   1
  -9   7   3 107.737 5.67283   1
   8  -7   8 90.5830 14.2469  -2
  -8   7   3 90.5830 14.2469   1
   7  -7   7 791.895 29.5591  -2
  -7   7   3 791.895 29.5591   1
   6  -7   6 336.348 15.0181  -2
  -6   7   3 336.348 15.0181   1
   5  -7   5 78.2577 6.55740  -2
  -5   7   3 78.2577 6.55740   1
   4  -7   4 927.515 29.3104  -2
  -4   7   3 927.515 29.3104   1
   3  -7   3 588.276 21.6764  -2
  -3   7   3 588.276 21.6764   1
   2  -7   2 387.203 12.8471  -2
  -2   7   3 387.203 12.8471   1
   1  -7   1 133.552 8.08931  -2
  -1   7   3 133.552 8.08931   1
   0   7   0 175.291 9.83056  -2
   0   7   3 175.291 9.83056   1
   1   7   1 588.612 39.1093  -2
   1   7   3 588.612 39.1093   1
   2   7   2 124.625 8.02520  -2
   2   7   3 124.625 8.02520   1
   3   7   3 9.17075 5.86997  -2
   3   7   3 9.17075 5.86997   1
   4   7   4 287.392 15.9353  -2
   4   7   3 287.392 15.9353   1
   5   7   5 0.20569 14.2013  -2
   5   7   3 0.20569 14.2013   1
   6   7   3 505.304 15.9360   1
   7   7   3 8.37486 3.33541   1
   8   7   7 545.667 44.6638  -2
   8   7   3 545.667 44.6638   1
   9   7   8 206.370 19.6350  -2
   9   7   3 206.370 19.6350   1
  10   7   9 678.887 28.8864  -2
  10   7   3 678.887 28.8864   1
  11   7  10 34.1258 11.7580  -2
  11   7   3 34.1258 11.7580   1
  12   7  11 25.8564 11.9660  -2
  12   7   3 25.8564 11.9660   1
  13   7  12 307.922 14.6471  -2
  13   7   3 307.922 14.6471   1
  14   7  13 70.9219 14.8109  -2
  14   7   3 70.9219 14.8109   1
  15   7  14 7.14195 15.9433  -2
  15   7   3 7.14195 15.9433   1
  13  -8  12 102.250 17.1476  -2
 -13   8   3 102.250 17.1476   1
  12  -8  11 673.736 25.5845  -2
 -12   8   3 673.736 25.5845   1
  11  -8  10 154.619 8.68841  -2
 -11   8   3 154.619 8.68841   1
  10  -8   9 219.340 11.3007  -2
 -10   8   3 219.340 11.3007   1
   9  -8   8 256.415 10.3969  -2
  -9   8   3 256.415 10.3969   1
   8  -8   7 395.015 17.2063  -2
  -8   8   3 395.015 17.2063   1
   7  -8   6 130.558 18.1887  -2
  -7   8   3 130.558 18.1887   1
   6  -8   5 2132.00 91.9830  -2
  -6   8   3 2132.00 91.9830   1
   5  -8   4 1053.57 65.9133  -2
  -5   8   3 1053.57 65.9133   1
   4  -8   3 309.198 22.9812  -2
  -4   8   3 309.198 22.9812   1
  -3   8   3 992.728 30.8963   1
  -2   8   3 724.111 23.1159   1
  -1   8   3 133.743 11.6919   1
   0   8   0 1134.11 50.5075  -2
   0   8   3 1134.11 50.5075   1
   2   8   2 717.742 32.6304  -2
   2   8   3 717.742 32.6304   1
   3   8   3 6.83762 4.44398  -2
   3   8   3 6.83762 4.44398   1
   4   8   4 2376.28 85.6122  -2
   4   8   3 2376.28 85.6122   1
   5   8   5 1318.21 42.0098  -2
   5   8   3 1318.21 42.0098   1
   6   8   6 720.889 21.7526  -2
   6   8   3 720.889 21.7526   1
   7   8   7 133.533 8.25936  -2
   7   8   3 133.533 8.25936   1
   8   8   8 1108.21 42.5540  -2
   8   8   3 1108.21 42.5540   1
   9   8   9 670.340 24.9125  -2
   9   8   3 670.340 24.9125   1
  10   8  10 1357.80 54.6859  -2
  10   8   3 1357.80 54.6859   1
  11   8  11 660.953 37.0222  -2
  11   8   3 660.953 37.0222   1
  12   8  12 460.396 53.4893  -2
  12   8   3 460.396 53.4893   1
  13   8  12 221.010 43.8142  -2
  13   8   3 221.010 43.8142   1
  14   8  13 53.1889 34.1478  -2
  14   8   3 53.1889 34.1478   1
  15   8  14 72.7352 55.8575  -2
  15   8   3 72.7352 55.8575   1
  13  -9  11 22.2625 26.2812  -2
 -13   9   3 22.2625 26.2812   1
 -12   9   3 13.0947 4.88368   1
  11  -9  10 310.113 39.8264  -2
 -11   9   3 310.113 39.8264   1
  10  -9   9 81.1930 19.1693  -2
 -10   9   3 81.1930 19.1693   1
   9  -9   8 18.4418 14.3488  -2
  -9   9   3 18.4418 14.3488   1
   8  -9   7 1683.47 61.3955  -2
  -8   9   3 1683.47 61.3955   1
   7  -9   6 583.342 29.5346  -2
  -7   9   3 583.342 29.5346   1
   6  -9   5 566.737 27.8462  -2
  -6   9   3 566.737 27.8462   1
   5  -9   4 323.914 13.8582  -2
  -5   9   3 323.914 13.8582   1
   4  -9   3 92.3193 5.75400  -2
  -4   9   3 92.3193 5.75400   1
   3  -9   2 903.230 28.8831  -2
  -3   9   3 903.230 28.8831   1
   2  -9   1 22.1714 4.07656  -2
  -2   9   3 22.1714 4.07656   1
  -1   9   0 65.9965 12.1328  -2
  -1   9   3 65.9965 12.1328   1
   0   9   1 157.935 12.1904  -2
   0   9   3 157.935 12.1904   1
   1   9   2 332.878 18.9289  -2
   1   9   3 332.878 18.9289   1
   2   9   3 649.653 21.7825   1
   3   9   3 14.5278 3.12213   1
   4   9   3 1108.40 36.1145   1
   5   9   5 46.0782 14.8506  -2
   5   9   3 46.0782 14.8506   1
   6   9   6 91.2408 10.2911  -2
   6   9   3 91.2408 10.2911   1
   7   9   7 11.2722 9.46182  -2
   7   9   3 11.2722 9.46182   1
   8   9   8 88.0947 10.3224  -2
   8   9   3 88.0947 10.3224   1
   9   9   9 78.0598 10.9108  -2
   9   9   3 78.0598 10.9108   1
  10   9  10 30.2980 11.2544  -2
  10   9   3 30.2980 11.2544   1
  11   9  11 27.0598 10.2323  -2
  11   9   3 27.0598 10.2323   1
  12   9  12 -2.3823 9.37057  -2
  12   9   3 -2.3823 9.37057   1
  13   9  13 326.221 19.9546  -2
  13   9   3 326.221 19.9546   1
  14   9  14 118.140 19.8423  -2
  14   9   3 118.140 19.8423   1
  13 -10  11 241.804 20.4259  -2
 -13  10   3 241.804 20.4259   1
  12 -10  10 189.590 22.5635  -2
 -12  10   3 189.590 22.5635   1
  11 -10   9 105.788 15.7370  -2
 -11  10   3 105.788 15.7370   1
  10 -10   8 80.3661 13.8157  -2
 -10  10   3 80.3661 13.8157   1
   9 -10   7 211.450 17.6079  -2
  -9  10   3 211.450 17.6079   1
   8 -10   6 958.062 45.3366  -2
  -8  10   3 958.062 45.3366   1
   7 -10   5 404.689 31.8804  -2
  -7  10   3 404.689 31.8804   1
  -6  10   3 133.076 7.59524   1
  -5  10   3 355.080 12.9029   1
   4 -10   3 1080.52 68.0835  -2
  -4  10   3 1080.52 68.0835   1
   3 -10   2 879.874 39.3948  -2
  -3  10   3 879.874 39.3948   1
   2 -10   1 42.3459 6.00770  -2
  -2  10   3 42.3459 6.00770   1
  -1  10   0 235.858 10.9717  -2
  -1  10   3 235.858 10.9717   1
   0  10   1 151.451 6.60406  -2
   0  10   3 151.451 6.60406   1
   1  10   2 558.199 18.3968  -2
   1  10   3 558.199 18.3968   1
   2  10   3 4.16757 3.66870  -2
   2  10   3 4.16757 3.66870   1
   3  10   4 238.630 11.8183  -2
   3  10   3 238.630 11.8183   1
   4  10   5 18.0427 6.81542  -2
   4  10   3 18.0427 6.81542   1
   5  10   6 620.249 21.9474  -2
   5  10   3 620.249 21.9474   1
   6  10   7 1.06094 8.39639  -2
   6  10   3 1.06094 8.39639   1
   7  10   8 297.520 19.7086  -2
   7  10   3 297.520 19.7086   1
   8  10   9 -23.177 13.5446  -2
   8  10   3 -23.177 13.5446   1
   9  10  10 103.534 28.9520  -2
   9  10   3 103.534 28.9520   1
  10  10   3 88.5104 9.26818   1
  11  10  11 26.2711 25.1246  -2
  11  10   3 26.2711 25.1246   1
  12  10  12 386.055 27.0069  -2
  12  10   3 386.055 27.0069   1
  13  10  13 165.360 21.0795  -2
  13  10   3 165.360 21.0795   1
  14  10  14 44.1955 32.5979  -2
  14  10   3 44.1955 32.5979   1
  12 -11  10 242.615 22.5891  -2
 -12  11   3 242.615 22.5891   1
  11 -11   9 533.883 27.7678  -2
 -11  11   3 533.883 27.7678   1
  10 -11   8 225.028 17.8380  -2
 -10  11   3 225.028 17.8380   1
   9 -11   7 16.3713 13.1752  -2
  -9  11   3 16.3713 13.1752   1
   8 -11   6 185.936 13.0019  -2
  -8  11   3 185.936 13.0019   1
   7 -11   5 305.356 15.0553  -2
  -7  11   3 305.356 15.0553   1
   6 -11   4 121.276 9.77596  -2
  -6  11   3 121.276 9.77596   1
   5 -11   3 36.5770 7.64362  -2
  -5  11   3 36.5770 7.64362   1
   4 -11   2 128.477 7.91207  -2
  -4  11   3 128.477 7.91207   1
   3 -11   1 1331.21 48.3988  -2
  -3  11   3 1331.21 48.3988   1
  -2  11   0 237.161 22.3316  -2
  -2  11   3 237.161 22.3316   1
  -1  11   3 0.56534 1.93951   1
   0  11   3 556.797 18.7098   1
   1  11   3 394.807 14.1131   1
   2  11   3 33.2661 19.1827  -2
   2  11   3 33.2661 19.1827   1
   3  11   4 306.421 18.3503  -2
   3  11   3 306.421 18.3503   1
   4  11   5 210.980 13.0898  -2
   4  11   3 210.980 13.0898   1
   5  11   6 255.313 12.9231  -2
   5  11   3 255.313 12.9231   1
   6  11   7 124.534 11.1263  -2
   6  11   3 124.534 11.1263   1
   7  11   8 1050.90 34.6909  -2
   7  11   3 1050.90 34.6909   1
   8  11   9 31.3239 8.22383  -2
   8  11   3 31.3239 8.22383   1
   9  11  10 255.027 16.0745  -2
   9  11   3 255.027 16.0745   1
  10  11  11 652.967 26.1113  -2
  10  11   3 652.967 26.1113   1
  11  11  12 339.318 17.8868  -2
  11  11   3 339.318 17.8868   1
  12  11  13 123.441 21.1350  -2
  12  11   3 123.441 21.1350   1
  13  11  14 91.3211 25.2675  -2
  13  11   3 91.3211 25.2675   1
  11 -12   8 292.710 23.4838  -2
 -11  12   3 292.710 23.4838   1
  10 -12   7 208.362 19.3818  -2
 -10  12   3 208.362 19.3818   1
  -9  12   3 52.5964 6.86463   1
  -8  12   3 18.4819 5.30941   1
   7 -12   5 107.586 17.1967  -2
  -7  12   3 107.586 17.1967   1
   6 -12   4 57.6562 19.8680  -2
  -6  12   3 57.6562 19.8680   1
   5 -12   3 63.0267 9.17971  -2
  -5  12   3 63.0267 9.17971   1
   4 -12   2 110.089 7.81219  -2
  -4  12   3 110.089 7.81219   1
   3 -12   1 1595.03 50.3760  -2
  -3  12   3 1595.03 50.3760   1
  -2  12   0 294.061 11.5452  -2
  -2  12   3 294.061 11.5452   1
  -1  12   1 297.806 13.3895  -2
  -1  12   3 297.806 13.3895   1
   0  12   2 726.591 24.0156  -2
   0  12   3 726.591 24.0156   1
   1  12   3 272.740 11.3182  -2
   1  12   3 272.740 11.3182   1
   2  12   4 1382.14 40.0237  -2
   2  12   3 1382.14 40.0237   1
   3  12   5 793.613 27.8101  -2
   3  12   3 793.613 27.8101   1
   4  12   6 507.949 22.4109  -2
   4  12   3 507.949 22.4109   1
   5  12   7 46.1189 16.5275  -2
   5  12   3 46.1189 16.5275   1
   6  12   8 618.636 37.8287  -2
   6  12   3 618.636 37.8287   1
   7  12   3 508.307 23.6955   1
   8  12   9 302.763 35.7085  -2
   8  12   3 302.763 35.7085   1
   9  12  10 63.0032 14.3262  -2
   9  12   3 63.0032 14.3262   1
  10  12  11 59.8556 14.0186  -2
  10  12   3 59.8556 14.0186   1
  11  12  12 579.671 28.4563  -2
  11  12   3 579.671 28.4563   1
  12  12  13 328.642 23.7496  -2
  12  12   3 328.642 23.7496   1
  11 -13   8 110.303 16.4861  -2
 -11  13   3 110.303 16.4861   1
  10 -13   7 407.527 21.3784  -2
 -10  13   3 407.527 21.3784   1
   9 -13   6 301.085 17.2979  -2
  -9  13   3 301.085 17.2979   1
   8 -13   5 -3.9553 14.0987  -2
  -8  13   3 -3.9553 14.0987   1
   7 -13   4 462.853 18.3297  -2
  -7  13   3 462.853 18.3297   1
   6 -13   3 512.998 19.8054  -2
  -6  13   3 512.998 19.8054   1
   5 -13   2 220.648 13.4362  -2
  -5  13   3 220.648 13.4362   1
   4 -13   1 188.174 19.4421  -2
  -4  13   3 188.174 19.4421   1
  -3  13   3 8.59023 3.79878   1
  -2  13   3 59.0335 4.98461   1
  -1  13   3 8.27623 3.24475   1
   0  13   2 27.8118 17.5870  -2
   0  13   3 27.8118 17.5870   1
   1  13   3 800.456 37.3964  -2
   1  13   3 800.456 37.3964   1
   2  13   4 1107.23 36.4253  -2
   2  13   3 1107.23 36.4253   1
   3  13   5 1257.72 41.1019  -2
   3  13   3 1257.72 41.1019   1
   4  13   6 26.3954 8.83623  -2
   4  13   3 26.3954 8.83623   1
   5  13   7 15.4028 8.30256  -2
   5  13   3 15.4028 8.30256   1
   6  13   8 1357.94 51.9483  -2
   6  13   3 1357.94 51.9483   1
   7  13   9 291.393 22.6024  -2
   7  13   3 291.393 22.6024   1
   8  13  10 38.0751 17.4538  -2
   8  13   3 38.0751 17.4538   1
   9  13  11 123.448 11.2615  -2
   9  13   3 123.448 11.2615   1
  10  13  12 767.576 27.2707  -2
  10  13   3 767.576 27.2707   1
  10 -14   7 201.336 39.7927  -2
 -10  14   3 201.336 39.7927   1
   9 -14   6 342.932 19.7267  -2
  -9  14   3 342.932 19.7267   1
   8 -14   5 26.5359 19.2628  -2
  -8  14   3 26.5359 19.2628   1
   7 -14   4 417.474 18.2474  -2
  -7  14   3 417.474 18.2474   1
   6 -14   3 2122.97 78.8066  -2
  -6  14   3 2122.97 78.8066   1
   5 -14   2 32.7701 8.45197  -2
  -5  14   3 32.7701 8.45197   1
   4 -14   1 157.959 9.48932  -2
  -4  14   3 157.959 9.48932   1
  -3  14   0 5.87618 5.92996  -2
  -3  14   3 5.87618 5.92996   1
  -2  14   1 94.8199 7.64645  -2
  -2  14   3 94.8199 7.64645   1
  -1  14   2 14.1459 7.15185  -2
  -1  14   3 14.1459 7.15185   1
   0  14   3 140.230 9.88093  -2
   0  14   3 140.230 9.88093   1
   1  14   4 147.294 10.9458  -2
   1  14   3 147.294 10.9458   1
   2  14   5 21.7795 10.6802  -2
   2  14   3 21.7795 10.6802   1
   3  14   3 146.032 9.20594   1
   4  14   3 26.6619 6.07650   1
   5  14   3 30.5229 7.08313   1
   6  14   8 397.545 28.1126  -2
   6  14   3 397.545 28.1126   1
   7  14   9 100.224 23.3091  -2
   7  14   3 100.224 23.3091   1
   8  14  10 32.4427 19.3864  -2
   8  14   3 32.4427 19.3864   1
   9  14  11 87.5426 35.8180  -2
   9  14   3 87.5426 35.8180   1
  10  14  12 29.5164 26.0172  -2
  10  14   3 29.5164 26.0172   1
   9 -15   5 404.529 29.1875  -2
  -9  15   3 404.529 29.1875   1
   8 -15   4 119.821 19.2221  -2
  -8  15   3 119.821 19.2221   1
   7 -15   3 50.6128 15.8539  -2
  -7  15   3 50.6128 15.8539   1
   6 -15   2 107.678 28.8542  -2
  -6  15   3 107.678 28.8542   1
  -5  15   3 120.931 8.95217   1
  -4  15   3 -0.6279 4.92850   1
  -3  15   0 87.7687 25.1817  -2
  -3  15   3 87.7687 25.1817   1
  -2  15   1 732.808 29.0780  -2
  -2  15   3 732.808 29.0780   1
  -1  15   2 230.534 12.4010  -2
  -1  15   3 230.534 12.4010   1
   0  15   3 134.246 9.98641  -2
   0  15   3 134.246 9.98641   1
   1  15   4 187.080 11.2280  -2
   1  15   3 187.080 11.2280   1
   2  15   5 51.3618 9.13710  -2
   2  15   3 51.3618 9.13710   1
   3  15   6 11.7420 10.5876  -2
   3  15   3 11.7420 10.5876   1
   4  15   7 61.2208 11.1662  -2
   4  15   3 61.2208 11.1662   1
   5  15   8 84.7399 14.5776  -2
   5  15   3 84.7399 14.5776   1
   6  15   9 403.057 28.6992  -2
   6  15   3 403.057 28.6992   1
   7  15  10 162.177 24.8125  -2
   7  15   3 162.177 24.8125   1
   8  15  11 26.4204 28.6897  -2
   8  15   3 26.4204 28.6897   1
   9  15  12 -6.1308 31.5352  -2
   9  15   3 -6.1308 31.5352   1
   7 -16   3 318.178 22.5818  -2
  -7  16   3 318.178 22.5818   1
   6 -16   2 70.0619 11.3916  -2
  -6  16   3 70.0619 11.3916   1
   5 -16   1 26.1932 13.3989  -2
  -5  16   3 26.1932 13.3989   1
  -4  16   0 0.01572 12.3965  -2
  -4  16   3 0.01572 12.3965   1
  -3  16   1 169.366 12.8741  -2
  -3  16   3 169.366 12.8741   1
  -2  16   2 462.835 18.8887  -2
  -2  16   3 462.835 18.8887   1
  -1  16   3 39.7078 11.5541  -2
  -1  16   3 39.7078 11.5541   1
   0  16   4 -4.2891 27.3075  -2
   0  16   3 -4.2891 27.3075   1
   1  16   3 27.0020 5.85302   1
   2  16   3 348.542 15.8181   1
   3  16   6 13.8121 15.9734  -2
   3  16   3 13.8121 15.9734   1
   4  16   7 46.8793 20.8403  -2
   4  16   3 46.8793 20.8403   1
   5  16   8 131.707 22.5708  -2
   5  16   3 131.707 22.5708   1
   6  16   9 308.600 26.9801  -2
   6  16   3 308.600 26.9801   1
   7  16  10 -7.3826 22.8577  -2
   7  16   3 -7.3826 22.8577   1
   5 -17   1 59.1595 30.0848  -2
  -5  17   3 59.1595 30.0848   1
  -4  17   0 76.1534 16.7951  -2
  -4  17   3 76.1534 16.7951   1
  -3  17   1 241.776 19.1859  -2
  -3  17   3 241.776 19.1859   1
  -2  17   2 26.0433 10.4301  -2
  -2  17   3 26.0433 10.4301   1
  -1  17   3 -0.1471 12.5315  -2
  -1  17   3 -0.1471 12.5315   1
   0  17   4 157.490 12.0985  -2
   0  17   3 157.490 12.0985   1
   1  17   5 183.038 16.2716  -2
   1  17   3 183.038 16.2716   1
   2  17   6 699.000 29.8789  -2
   2  17   3 699.000 29.8789   1
   3  17   7 128.277 28.2907  -2
   3  17   3 128.277 28.2907   1
   4  17   8 52.4193 17.7318  -2
   4  17   3 52.4193 17.7318   1
   5  17   9 180.158 20.8165  -2
   5  17   3 180.158 20.8165   1
  -1  18   3 51.9792 9.38908   1
   0  18   3 111.151 13.4512   1
   2  18   6 182.031 34.2469  -2
   2  18   3 182.031 34.2469   1
  -1 -16   4 8.94938 27.3499   1
   0  16  11 -15.450 29.2954  -2
   0 -16   4 -15.450 29.2954   1
  -1  16  10 72.8305 27.0532  -2
   1 -16   4 72.8305 27.0532   1
  -2  16   9 3.44882 18.7924  -2
   2 -16   4 3.44882 18.7924   1
  -3  16   8 -2.0834 16.8513  -2
   3 -16   4 -2.0834 16.8513   1
  -4  16   7 17.1842 15.9456  -2
   4 -16   4 17.1842 15.9456   1
  -5  16   6 34.5887 13.2055  -2
   5 -16   4 34.5887 13.2055   1
  -6  16   5 99.1727 15.4650  -2
   6 -16   4 99.1727 15.4650   1
  -7  16   4 15.0005 18.5449  -2
   7 -16   4 15.0005 18.5449   1
   3  15  13 59.7360 28.9473  -2
  -3 -15   4 59.7360 28.9473   1
   2  15  12 36.4270 16.6418  -2
  -2 -15   4 36.4270 16.6418   1
   1  15  11 -25.543 19.3622  -2
  -1 -15   4 -25.543 19.3622   1
   0  15  10 50.4710 22.4883  -2
   0 -15   4 50.4710 22.4883   1
  -1  15   9 29.5488 17.3268  -2
   1 -15   4 29.5488 17.3268   1
  -2  15   8 150.052 19.1035  -2
   2 -15   4 150.052 19.1035   1
  -3  15   7 251.295 21.3402  -2
   3 -15   4 251.295 21.3402   1
   4 -15   4 3.10071 8.40755   1
   5 -15   4 88.8203 10.6016   1
  -6  15   5 320.863 30.5495  -2
   6 -15   4 320.863 30.5495   1
  -7  15   4 91.0801 18.7651  -2
   7 -15   4 91.0801 18.7651   1
  -8  15   3 82.1324 18.6166  -2
   8 -15   4 82.1324 18.6166   1
  -9  15   2 75.5361 23.8122  -2
   9 -15   4 75.5361 23.8122   1
   5  14  14 113.150 40.4576  -2
  -5 -14   4 113.150 40.4576   1
  -4 -14   4 18.8949 7.01535   1
   3  14  13 17.9272 21.5828  -2
  -3 -14   4 17.9272 21.5828   1
   2  14  12 290.371 19.9468  -2
  -2 -14   4 290.371 19.9468   1
   1  14  11 146.178 16.3663  -2
  -1 -14   4 146.178 16.3663   1
   0  14  10 28.0472 20.7929  -2
   0 -14   4 28.0472 20.7929   1
  -1  14   9 328.516 21.6678  -2
   1 -14   4 328.516 21.6678   1
  -2  14   8 2042.08 65.6762  -2
   2 -14   4 2042.08 65.6762   1
  -3  14   7 486.079 19.4868  -2
   3 -14   4 486.079 19.4868   1
  -4  14   6 122.385 11.0456  -2
   4 -14   4 122.385 11.0456   1
  -5  14   5 168.612 13.0119  -2
   5 -14   4 168.612 13.0119   1
  -6  14   4 230.170 17.6121  -2
   6 -14   4 230.170 17.6121   1
  -7  14   3 551.802 27.3987  -2
   7 -14   4 551.802 27.3987   1
  -8  14   2 134.471 18.6858  -2
   8 -14   4 134.471 18.6858   1
  -9  14   1 354.528 23.8788  -2
   9 -14   4 354.528 23.8788   1
 -10  14   0 517.924 35.3535  -2
  10 -14   4 517.924 35.3535   1
  11 -14   4 92.0311 12.3074   1
   7  13  16 41.1636 34.5247  -2
  -7 -13   4 41.1636 34.5247   1
   6  13  15 61.2864 15.2201  -2
  -6 -13   4 61.2864 15.2201   1
   5  13  14 122.739 15.8127  -2
  -5 -13   4 122.739 15.8127   1
   4  13  13 -4.8823 12.0693  -2
  -4 -13   4 -4.8823 12.0693   1
   3  13  12 124.788 12.0580  -2
  -3 -13   4 124.788 12.0580   1
   2  13  11 1192.71 33.3349  -2
  -2 -13   4 1192.71 33.3349   1
   1  13  10 761.243 23.1205  -2
  -1 -13   4 761.243 23.1205   1
   0  13   9 301.306 17.7081  -2
   0 -13   4 301.306 17.7081   1
  -1  13   8 333.536 23.8705  -2
   1 -13   4 333.536 23.8705   1
   2 -13   4 247.788 10.3925   1
   3 -13   4 21.3152 7.47689   1
  -4  13   6 61.3247 19.4357  -2
   4 -13   4 61.3247 19.4357   1
  -5  13   5 340.133 25.8672  -2
   5 -13   4 340.133 25.8672   1
  -6  13   4 1291.67 49.8109  -2
   6 -13   4 1291.67 49.8109   1
  -7  13   3 518.584 25.1379  -2
   7 -13   4 518.584 25.1379   1
  -8  13   2 117.690 14.4438  -2
   8 -13   4 117.690 14.4438   1
  -9  13   1 444.444 22.2956  -2
   9 -13   4 444.444 22.2956   1
 -10  13   0 151.204 15.0149  -2
  10 -13   4 151.204 15.0149   1
  11 -13   1 261.269 18.9284  -2
  11 -13   4 261.269 18.9284   1
  12 -13   2 177.365 19.5366  -2
  12 -13   4 177.365 19.5366   1
   8  12  16 105.197 55.7100  -2
  -8 -12   4 105.197 55.7100   1
  -7 -12   4 128.722 10.9981   1
   6  12  15 268.829 27.6112  -2
  -6 -12   4 268.829 27.6112   1
   5  12  14 160.977 28.2819  -2
  -5 -12   4 160.977 28.2819   1
   4  12  13 25.4049 15.1847  -2
  -4 -12   4 25.4049 15.1847   1
   3  12  12 36.8242 12.2385  -2
  -3 -12   4 36.8242 12.2385   1
   2  12  11 202.292 11.2081  -2
  -2 -12   4 202.292 11.2081   1
   1  12  10 190.352 9.98565  -2
  -1 -12   4 190.352 9.98565   1
   0  12   9 234.864 12.5056  -2
   0 -12   4 234.864 12.5056   1
  -1  12   8 28.4807 6.86517  -2
   1 -12   4 28.4807 6.86517   1
  -2  12   7 1.94239 6.34756  -2
   2 -12   4 1.94239 6.34756   1
  -3  12   6 308.048 12.4482  -2
   3 -12   4 308.048 12.4482   1
  -4  12   5 61.0148 13.6500  -2
   4 -12   4 61.0148 13.6500   1
  -5  12   4 47.8148 15.4512  -2
   5 -12   4 47.8148 15.4512   1
  -6  12   3 3.17766 13.6052  -2
   6 -12   4 3.17766 13.6052   1
  -7  12   2 107.842 18.2192  -2
   7 -12   4 107.842 18.2192   1
   8 -12   4 17.6597 2.60675   1
   9 -12   4 8.45613 4.32714   1
 -10  12   0 6.40449 20.1398  -2
  10 -12   4 6.40449 20.1398   1
  11 -12   1 559.997 28.9547  -2
  11 -12   4 559.997 28.9547   1
  12 -12   2 252.764 22.7434  -2
  12 -12   4 252.764 22.7434   1
  13 -12   3 46.0263 22.6260  -2
  13 -12   4 46.0263 22.6260   1
   9  11  17 25.9342 21.4556  -2
  -9 -11   4 25.9342 21.4556   1
   8  11  16 265.164 21.0897  -2
  -8 -11   4 265.164 21.0897   1
   7  11  15 120.167 19.6782  -2
  -7 -11   4 120.167 19.6782   1
   6  11  14 519.335 24.1481  -2
  -6 -11   4 519.335 24.1481   1
   5  11  13 49.4923 14.5185  -2
  -5 -11   4 49.4923 14.5185   1
   4  11  12 22.0469 14.0468  -2
  -4 -11   4 22.0469 14.0468   1
   3  11  11 473.367 18.5751  -2
  -3 -11   4 473.367 18.5751   1
   2  11  10 159.032 20.3970  -2
  -2 -11   4 159.032 20.3970   1
  -1 -11   4 5.67532 3.72514   1
   0 -11   4 113.202 6.01578   1
  -1  11   8 117.888 11.2284  -2
   1 -11   4 117.888 11.2284   1
  -2  11   7 298.000 12.7419  -2
   2 -11   4 298.000 12.7419   1
  -3  11   6 557.899 18.0018  -2
   3 -11   4 557.899 18.0018   1
  -4  11   5 178.446 11.5788  -2
   4 -11   4 178.446 11.5788   1
  -5  11   4 444.611 19.0779  -2
   5 -11   4 444.611 19.0779   1
  -6  11   3 136.198 9.58677  -2
   6 -11   4 136.198 9.58677   1
  -7  11   2 140.822 8.20587  -2
   7 -11   4 140.822 8.20587   1
  -8  11   1 12.0938 6.57691  -2
   8 -11   4 12.0938 6.57691   1
  -9  11   0 242.903 10.4306  -2
   9 -11   4 242.903 10.4306   1
  10 -11   1 111.966 9.09440  -2
  10 -11   4 111.966 9.09440   1
  11 -11   2 302.840 14.0215  -2
  11 -11   4 302.840 14.0215   1
  12 -11   3 658.542 23.5018  -2
  12 -11   4 658.542 23.5018   1
  13 -11   4 47.0107 17.5007  -2
  13 -11   4 47.0107 17.5007   1
  14 -11   4 8.24287 17.9855   1
 -10 -10   4 7.70313 17.3319   1
   9  10  17 131.095 40.4872  -2
  -9 -10   4 131.095 40.4872   1
   8  10  16 195.456 20.6902  -2
  -8 -10   4 195.456 20.6902   1
   7  10  15 74.7133 24.5981  -2
  -7 -10   4 74.7133 24.5981   1
   6  10  14 563.274 22.0938  -2
  -6 -10   4 563.274 22.0938   1
   5  10  13 196.007 15.2018  -2
  -5 -10   4 196.007 15.2018   1
   4  10  12 2.52577 9.77311  -2
  -4 -10   4 2.52577 9.77311   1
   3  10  11 223.689 11.2951  -2
  -3 -10   4 223.689 11.2951   1
   2  10  10 88.8488 10.3364  -2
  -2 -10   4 88.8488 10.3364   1
   1  10   9 400.730 16.2397  -2
  -1 -10   4 400.730 16.2397   1
   0  10   8 19.5188 8.35227  -2
   0 -10   4 19.5188 8.35227   1
  -1  10   7 226.658 10.4330  -2
   1 -10   4 226.658 10.4330   1
  -2  10   6 88.0925 7.94876  -2
   2 -10   4 88.0925 7.94876   1
  -3  10   5 390.591 17.8789  -2
   3 -10   4 390.591 17.8789   1
   4 -10   4 713.759 27.7593   1
   5 -10   4 54.3489 4.98861   1
   6 -10   4 342.323 10.6884   1
  -7  10   2 721.874 36.7200  -2
   7 -10   4 721.874 36.7200   1
  -8  10   1 927.431 31.4249  -2
   8 -10   4 927.431 31.4249   1
  -9  10   0 789.133 24.8695  -2
   9 -10   4 789.133 24.8695   1
  10 -10   1 2.59361 8.85270  -2
  10 -10   4 2.59361 8.85270   1
  11 -10   2 85.4744 9.71539  -2
  11 -10   4 85.4744 9.71539   1
  12 -10   3 741.223 24.8880  -2
  12 -10   4 741.223 24.8880   1
  13 -10   4 918.361 38.7150  -2
  13 -10   4 918.361 38.7150   1
  14 -10   5 264.278 19.2690  -2
  14 -10   4 264.278 19.2690   1
  10   9  17 35.6305 19.2292  -2
 -10  -9   4 35.6305 19.2292   1
   9   9  16 82.7274 16.8337  -2
  -9  -9   4 82.7274 16.8337   1
   8   9  15 65.0439 14.5780  -2
  -8  -9   4 65.0439 14.5780   1
   7   9  14 40.3848 13.9501  -2
  -7  -9   4 40.3848 13.9501   1
   6   9  13 371.202 19.0546  -2
  -6  -9   4 371.202 19.0546   1
   5   9  12 103.241 34.4145  -2
  -5  -9   4 103.241 34.4145   1
  -4  -9   4 1.14267 4.14209   1
  -3  -9   4 41.4089 4.64502   1
   2   9  10 47.9731 25.6308  -2
  -2  -9   4 47.9731 25.6308   1
   1   9   9 1130.62 38.1160  -2
  -1  -9   4 1130.62 38.1160   1
   0   9   8 534.062 17.8052  -2
   0  -9   4 534.062 17.8052   1
  -1   9   7 73.7238 7.19235  -2
   1  -9   4 73.7238 7.19235   1
  -2   9   6 176.970 8.35875  -2
   2  -9   4 176.970 8.35875   1
  -3   9   5 438.601 15.9929  -2
   3  -9   4 438.601 15.9929   1
  -4   9   4 165.917 8.24569  -2
   4  -9   4 165.917 8.24569   1
  -5   9   3 375.272 14.1648  -2
   5  -9   4 375.272 14.1648   1
  -6   9   2 188.680 8.61865  -2
   6  -9   4 188.680 8.61865   1
  -7   9   1 256.574 12.2144  -2
   7  -9   4 256.574 12.2144   1
  -8   9   0 484.984 16.5305  -2
   8  -9   4 484.984 16.5305   1
   9  -9   1 97.0946 11.4112  -2
   9  -9   4 97.0946 11.4112   1
  10  -9   2 129.017 14.2551  -2
  10  -9   4 129.017 14.2551   1
  11  -9   3 640.856 36.1490  -2
  11  -9   4 640.856 36.1490   1
  12  -9   4 328.519 12.6053   1
  13  -9   4 -36.534 22.4472  -2
  13  -9   4 -36.534 22.4472   1
  14  -9   5 57.3417 26.4131  -2
  14  -9   4 57.3417 26.4131   1
  15  -9   6 106.373 27.0527  -2
  15  -9   4 106.373 27.0527   1
  11   8  18 67.9667 30.6895  -2
 -11  -8   4 67.9667 30.6895   1
  10   8  17 167.382 22.9802  -2
 -10  -8   4 167.382 22.9802   1
   9   8  16 1025.71 37.9316  -2
  -9  -8   4 1025.71 37.9316   1
   8   8  15 123.994 14.3729  -2
  -8  -8   4 123.994 14.3729   1
   7   8  14 383.299 16.9983  -2
  -7  -8   4 383.299 16.9983   1
   6   8  13 238.979 16.8346  -2
  -6  -8   4 238.979 16.8346   1
   5   8  12 298.359 16.6795  -2
  -5  -8   4 298.359 16.6795   1
   4   8  11 1749.25 65.2059  -2
  -4  -8   4 1749.25 65.2059   1
   3   8  10 152.571 9.08497  -2
  -3  -8   4 152.571 9.08497   1
   2   8   9 1166.98 34.3334  -2
  -2  -8   4 1166.98 34.3334   1
   1   8   8 174.854 9.29995  -2
  -1  -8   4 174.854 9.29995   1
   0   8   7 1425.40 37.2899  -2
   0  -8   4 1425.40 37.2899   1
  -1   8   6 30.9096 15.0740  -2
   1  -8   4 30.9096 15.0740   1
   2  -8   4 54.5728 3.82048   1
   3  -8   4 2305.18 58.9091   1
   4  -8   4 130.153 5.31730   1
  -5   8   3 937.790 43.4324  -2
   5  -8   4 937.790 43.4324   1
  -6   8   2 130.048 9.24068  -2
   6  -8   4 130.048 9.24068   1
  -7   8   1 2033.38 57.2659  -2
   7  -8   4 2033.38 57.2659   1
  -8   8   0 160.421 10.2777  -2
   8  -8   4 160.421 10.2777   1
   9  -8   1 218.456 10.3697  -2
   9  -8   4 218.456 10.3697   1
  10  -8   2 181.464 10.1237  -2
  10  -8   4 181.464 10.1237   1
  11  -8   3 983.070 29.7841  -2
  11  -8   4 983.070 29.7841   1
  12  -8   4 371.401 15.6047  -2
  12  -8   4 371.401 15.6047   1
  13  -8   5 261.975 13.3064  -2
  13  -8   4 261.975 13.3064   1
  14  -8   6 -3.7669 13.0536  -2
  14  -8   4 -3.7669 13.0536   1
  15  -8   7 14.1296 21.0098  -2
  15  -8   4 14.1296 21.0098   1
  16  -8   8 24.2658 43.9606  -2
  16  -8   4 24.2658 43.9606   1
  11   7  17 34.3154 20.0239  -2
 -11  -7   4 34.3154 20.0239   1
  10   7  16 606.193 27.1117  -2
 -10  -7   4 606.193 27.1117   1
   9   7  15 625.248 24.4990  -2
  -9  -7   4 625.248 24.4990   1
   8   7  14 247.208 28.2056  -2
  -8  -7   4 247.208 28.2056   1
   7   7  13 106.095 34.7112  -2
  -7  -7   4 106.095 34.7112   1
  -6  -7   4 9.62499 4.85328   1
   5   7  12 605.559 33.2586  -2
  -5  -7   4 605.559 33.2586   1
   4   7  11 44.7265 11.8889  -2
  -4  -7   4 44.7265 11.8889   1
   3   7  10 71.0198 8.49593  -2
  -3  -7   4 71.0198 8.49593   1
   2   7   9 28.9985 7.50346  -2
  -2  -7   4 28.9985 7.50346   1
   1   7   8 2783.07 78.1757  -2
  -1  -7   4 2783.07 78.1757   1
   0   7   7 626.073 17.3705  -2
   0  -7   4 626.073 17.3705   1
  -1   7   6 162.524 7.22094  -2
   1  -7   4 162.524 7.22094   1
  -2   7   5 12.7432 3.87122  -2
   2  -7   4 12.7432 3.87122   1
  -3   7   4 1649.26 46.5742  -2
   3  -7   4 1649.26 46.5742   1
  -4   7   3 1083.86 28.3803  -2
   4  -7   4 1083.86 28.3803   1
  -5   7   2 129.745 7.16786  -2
   5  -7   4 129.745 7.16786   1
  -6   7   1 193.871 9.71593  -2
   6  -7   4 193.871 9.71593   1
  -7   7   0 31.3513 9.07504  -2
   7  -7   4 31.3513 9.07504   1
   8  -7   4 134.135 6.40444   1
   9  -7   4 -1.9899 3.73148   1
  10  -7   4 10.1471 3.98240   1
  11  -7   3 104.917 25.8513  -2
  11  -7   4 104.917 25.8513   1
  12  -7   4 540.916 22.3214  -2
  12  -7   4 540.916 22.3214   1
  13  -7   5 6.93297 13.9832  -2
  13  -7   4 6.93297 13.9832   1
  14  -7   6 81.3121 12.5362  -2
  14  -7   4 81.3121 12.5362   1
  15  -7   7 551.104 29.8940  -2
  15  -7   4 551.104 29.8940   1
  16  -7   8 28.4147 20.9646  -2
  16  -7   4 28.4147 20.9646   1
  12   6  18 17.2838 26.3258  -2
 -12  -6   4 17.2838 26.3258   1
  11   6  17 181.417 22.1608  -2
 -11  -6   4 181.417 22.1608   1
  10   6  16 67.1855 13.4682  -2
 -10  -6   4 67.1855 13.4682   1
   9   6  15 122.943 12.3683  -2
  -9  -6   4 122.943 12.3683   1
   8   6  14 222.239 20.7435  -2
  -8  -6   4 222.239 20.7435   1
   7   6  13 421.853 20.3821  -2
  -7  -6   4 421.853 20.3821   1
   6   6  12 321.782 15.0755  -2
  -6  -6   4 321.782 15.0755   1
   5   6  11 605.479 22.1643  -2
  -5  -6   4 605.479 22.1643   1
   4   6  10 1066.56 35.4090  -2
  -4  -6   4 1066.56 35.4090   1
   3   6   9 51.2877 6.99289  -2
  -3  -6   4 51.2877 6.99289   1
   2   6   8 642.322 31.3596  -2
  -2  -6   4 642.322 31.3596   1
  -1  -6   4 1060.26 28.1507   1
   0  -6   4 0.54000 2.18232   1
   1  -6   4 160.031 5.90241   1
  -2   6   5 720.552 49.1030  -2
   2  -6   4 720.552 49.1030   1
  -3   6   4 89.9147 6.39242  -2
   3  -6   4 89.9147 6.39242   1
  -4   6   3 1284.97 40.2873  -2
   4  -6   4 1284.97 40.2873   1
  -5   6   2 2176.76 67.3260  -2
   5  -6   4 2176.76 67.3260   1
  -6   6   1 270.490 9.11527  -2
   6  -6   4 270.490 9.11527   1
  -7   6   0 1670.01 47.0720  -2
   7  -6   4 1670.01 47.0720   1
   8  -6   1 1288.02 37.3231  -2
   8  -6   4 1288.02 37.3231   1
   9  -6   2 12.9875 6.32140  -2
   9  -6   4 12.9875 6.32140   1
  10  -6   3 1082.77 32.6095  -2
  10  -6   4 1082.77 32.6095   1
  11  -6   4 1153.77 38.4180  -2
  11  -6   4 1153.77 38.4180   1
  12  -6   5 303.250 14.7263  -2
  12  -6   4 303.250 14.7263   1
  13  -6   6 273.995 15.6026  -2
  13  -6   4 273.995 15.6026   1
  14  -6   7 730.364 29.8818  -2
  14  -6   4 730.364 29.8818   1
  15  -6   4 247.923 12.5871   1
  16  -6   4 464.628 22.3623   1
  12   5  17 73.0508 23.1621  -2
 -12  -5   4 73.0508 23.1621   1
 -11  -5   4 1.09376 10.0443   1
  10   5  15 77.2637 24.1887  -2
 -10  -5   4 77.2637 24.1887   1
  -9  -5   4 22.1517 5.95471   1
  -8  -5   4 -0.0647 4.90155   1
   7   5  13 116.549 16.5586  -2
  -7  -5   4 116.549 16.5586   1
   6   5  12 94.0195 14.7078  -2
  -6  -5   4 94.0195 14.7078   1
   5   5  11 451.174 18.8083  -2
  -5  -5   4 451.174 18.8083   1
   4   5  10 816.662 25.1823  -2
  -4  -5   4 816.662 25.1823   1
   3   5   9 562.387 17.7799  -2
  -3  -5   4 562.387 17.7799   1
   2   5   8 101.318 6.16247  -2
  -2  -5   4 101.318 6.16247   1
   1   5   7 2705.85 97.7057  -2
  -1  -5   4 2705.85 97.7057   1
   0   5   6 211.529 7.06692  -2
   0  -5   4 211.529 7.06692   1
  -1   5   5 65.0354 4.32526  -2
   1  -5   4 65.0354 4.32526   1
  -2   5   4 20.5224 4.55987  -2
   2  -5   4 20.5224 4.55987   1
  -3   5   3 267.733 10.2393  -2
   3  -5   4 267.733 10.2393   1
  -4   5   2 158.288 8.91849  -2
   4  -5   4 158.288 8.91849   1
   5  -5   4 638.179 17.1316   1
   6  -5   4 44.2145 3.22001   1
   7  -5   4 -2.6911 2.90433   1
   8  -5   4 836.302 22.5026   1
   9  -5   2 409.431 23.2956  -2
   9  -5   4 409.431 23.2956   1
  10  -5   3 878.145 29.8187  -2
  10  -5   4 878.145 29.8187   1
  11  -5   4 184.855 14.9066  -2
  11  -5   4 184.855 14.9066   1
  12  -5   5 215.515 11.4574  -2
  12  -5   4 215.515 11.4574   1
  13  -5   6 167.882 11.7166  -2
  13  -5   4 167.882 11.7166   1
  14  -5   7 363.600 16.5163  -2
  14  -5   4 363.600 16.5163   1
  15  -5   8 86.5259 10.1900  -2
  15  -5   4 86.5259 10.1900   1
  16  -5   9 122.820 20.9796  -2
  16  -5   4 122.820 20.9796   1
  17  -5  10 255.593 51.3511  -2
  17  -5   4 255.593 51.3511   1
  13   4  18 37.1781 28.8375  -2
 -13  -4   4 37.1781 28.8375   1
  12   4  17 284.541 27.0769  -2
 -12  -4   4 284.541 27.0769   1
  11   4  16 386.706 21.5513  -2
 -11  -4   4 386.706 21.5513   1
  10   4  15 194.616 11.5162  -2
 -10  -4   4 194.616 11.5162   1
   9   4  14 60.2477 10.5185  -2
  -9  -4   4 60.2477 10.5185   1
   8   4  13 131.536 10.7997  -2
  -8  -4   4 131.536 10.7997   1
   7   4  12 1395.08 52.9869  -2
  -7  -4   4 1395.08 52.9869   1
   6   4  11 522.758 20.0096  -2
  -6  -4   4 522.758 20.0096   1
   5   4  10 223.826 14.5539  -2
  -5  -4   4 223.826 14.5539   1
   4   4   9 46.0452 18.2665  -2
  -4  -4   4 46.0452 18.2665   1
  -3  -4   4 530.394 16.5619   1
  -2  -4   4 2394.82 61.2720   1
  -1  -4   4 331.013 9.87820   1
   0   4   6 1359.89 49.7575  -2
   0  -4   4 1359.89 49.7575   1
  -1   4   5 86.9676 4.99019  -2
   1  -4   4 86.9676 4.99019   1
  -2   4   4 1444.87 45.2920  -2
   2  -4   4 1444.87 45.2920   1
  -3   4   3 699.373 18.5589  -2
   3  -4   4 699.373 18.5589   1
  -4   4   2 479.320 13.1789  -2
   4  -4   4 479.320 13.1789   1
  -5   4   1 1544.88 48.1111  -2
   5  -4   4 1544.88 48.1111   1
  -6   4   0 580.368 15.9217  -2
   6  -4   4 580.368 15.9217   1
   7  -4   1 137.122 7.02104  -2
   7  -4   4 137.122 7.02104   1
   8  -4   2 1364.42 39.0724  -2
   8  -4   4 1364.42 39.0724   1
   9  -4   3 1317.33 42.6198  -2
   9  -4   4 1317.33 42.6198   1
  10  -4   4 13.8309 9.70639  -2
  10  -4   4 13.8309 9.70639   1
  11  -4   5 15.5072 20.7922  -2
  11  -4   4 15.5072 20.7922   1
  12  -4   6 219.718 28.1063  -2
  12  -4   4 219.718 28.1063   1
  13  -4   4 86.5667 6.62883   1
  14  -4   7 7.38761 26.9491  -2
  14  -4   4 7.38761 26.9491   1
  15  -4   8 217.874 35.0358  -2
  15  -4   4 217.874 35.0358   1
  16  -4   9 -2.0383 23.7231  -2
  16  -4   4 -2.0383 23.7231   1
  17  -4  10 85.8406 49.6626  -2
  17  -4   4 85.8406 49.6626   1
  13   3  17 62.3277 49.2979  -2
 -13  -3   4 62.3277 49.2979   1
  12   3  16 264.083 36.8417  -2
 -12  -3   4 264.083 36.8417   1
  11   3  16 279.298 37.9710  -2
 -11  -3   4 279.298 37.9710   1
  10   3  15 253.208 44.3305  -2
 -10  -3   4 253.208 44.3305   1
   9   3  14 220.565 15.6255  -2
  -9  -3   4 220.565 15.6255   1
   8   3  13 263.930 13.2699  -2
  -8  -3   4 263.930 13.2699   1
   7   3  12 512.320 21.4030  -2
  -7  -3   4 512.320 21.4030   1
   6   3  11 408.340 18.9818  -2
  -6  -3   4 408.340 18.9818   1
   5   3  10 1455.36 42.0331  -2
  -5  -3   4 1455.36 42.0331   1
   4   3   9 74.6250 7.16007  -2
  -4  -3   4 74.6250 7.16007   1
   3   3   8 1126.47 41.8113  -2
  -3  -3   4 1126.47 41.8113   1
   2   3   7 74.5935 4.93116  -2
  -2  -3   4 74.5935 4.93116   1
   1   3   6 284.878 8.69341  -2
  -1  -3   4 284.878 8.69341   1
   0   3   5 105.980 5.33647  -2
   0  -3   4 105.980 5.33647   1
  -1   3   4 1547.02 55.5154  -2
   1  -3   4 1547.02 55.5154   1
  -2   3   3 277.763 13.8369  -2
   2  -3   4 277.763 13.8369   1
   3  -3   4 646.927 16.9673   1
   4  -3   4 186.461 5.94028   1
   5  -3   4 13.7714 2.18327   1
  -6   3   0 226.071 18.0440  -2
   6  -3   4 226.071 18.0440   1
   7  -3   1 483.248 23.0629  -2
   7  -3   4 483.248 23.0629   1
   8  -3   2 179.773 9.45733  -2
   8  -3   4 179.773 9.45733   1
   9  -3   3 46.2292 8.27493  -2
   9  -3   4 46.2292 8.27493   1
  10  -3   4 289.780 13.9856  -2
  10  -3   4 289.780 13.9856   1
  11  -3   5 137.635 8.66498  -2
  11  -3   4 137.635 8.66498   1
  12  -3   6 661.713 23.8486  -2
  12  -3   4 661.713 23.8486   1
  13  -3   7 7.59630 8.50431  -2
  13  -3   4 7.59630 8.50431   1
  14  -3   8 987.587 31.8703  -2
  14  -3   4 987.587 31.8703   1
  15  -3   9 49.1919 14.2979  -2
  15  -3   4 49.1919 14.2979   1
  16  -3  10 86.9261 23.8468  -2
  16  -3   4 86.9261 23.8468   1
  17  -3  11 528.644 58.8833  -2
  17  -3   4 528.644 58.8833   1
  13   2  17 88.2870 17.0141  -2
 -13  -2   4 88.2870 17.0141   1
  12   2  16 171.216 14.2780  -2
 -12  -2   4 171.216 14.2780   1
  11   2  15 384.597 17.4466  -2
 -11  -2   4 384.597 17.4466   1
  10   2  14 516.944 23.8989  -2
 -10  -2   4 516.944 23.8989   1
   9   2  13 1112.88 39.2297  -2
  -9  -2   4 1112.88 39.2297   1
   8   2  12 314.367 22.9157  -2
  -8  -2   4 314.367 22.9157   1
   7   2  11 184.635 27.8632  -2
  -7  -2   4 184.635 27.8632   1
  -6  -2   4 325.480 11.8810   1
  -5  -2   4 128.372 6.40650   1
  -4  -2   4 60.0714 4.13276   1
  -3  -2   4 26.6723 2.83137   1
   2   2   7 458.504 18.2160  -2
  -2  -2   4 458.504 18.2160   1
   1   2   6 239.954 7.44200  -2
  -1  -2   4 239.954 7.44200   1
   0   2   5 157.953 6.02130  -2
   0  -2   4 157.953 6.02130   1
  -1   2   4 646.152 18.6818  -2
   1  -2   4 646.152 18.6818   1
  -2   2   3 178.209 5.39980  -2
   2  -2   4 178.209 5.39980   1
  -3   2   2 1557.41 39.5726  -2
   3  -2   4 1557.41 39.5726   1
  -4   2   1 1525.70 38.9803  -2
   4  -2   4 1525.70 38.9803   1
  -5   2   0 488.842 16.2606  -2
   5  -2   4 488.842 16.2606   1
   6  -2   1 1415.59 50.9422  -2
   6  -2   4 1415.59 50.9422   1
   7  -2   2 115.906 10.2546  -2
   7  -2   4 115.906 10.2546   1
   8  -2   3 1171.62 52.4930  -2
   8  -2   4 1171.62 52.4930   1
   9  -2   4 442.690 13.3232   1
  10  -2   4 480.702 16.3093   1
  11  -2   4 24.7501 4.39574   1
  12  -2   6 658.663 47.0601  -2
  12  -2   4 658.663 47.0601   1
  13  -2   7 1623.24 74.6385  -2
  13  -2   4 1623.24 74.6385   1
  14  -2   8 0.80402 13.3266  -2
  14  -2   4 0.80402 13.3266   1
  15  -2   9 96.8742 14.7325  -2
  15  -2   4 96.8742 14.7325   1
  16  -2  10 101.408 21.8692  -2
  16  -2   4 101.408 21.8692   1
  17  -2  11 333.737 34.5591  -2
  17  -2   4 333.737 34.5591   1
 -14  -1   4 -1.7124 15.2841   1
  13   1  17 494.055 56.3192  -2
 -13  -1   4 494.055 56.3192   1
  12   1  16 124.415 32.3461  -2
 -12  -1   4 124.415 32.3461   1
  11   1  15 240.728 18.1037  -2
 -11  -1   4 240.728 18.1037   1
  10   1  14 308.340 15.4567  -2
 -10  -1   4 308.340 15.4567   1
   9   1  13 265.655 13.6535  -2
  -9  -1   4 265.655 13.6535   1
   8   1  12 397.403 16.6289  -2
  -8  -1   4 397.403 16.6289   1
   7   1  11 109.364 8.82759  -2
  -7  -1   4 109.364 8.82759   1
   6   1  10 95.6793 8.87186  -2
  -6  -1   4 95.6793 8.87186   1
   5   1   9 944.824 36.3070  -2
  -5  -1   4 944.824 36.3070   1
   4   1   8 3679.07 115.276  -2
  -4  -1   4 3679.07 115.276   1
   3   1   7 303.504 10.3038  -2
  -3  -1   4 303.504 10.3038   1
   2   1   6 638.490 20.9650  -2
  -2  -1   4 638.490 20.9650   1
   1   1   5 2457.01 155.204  -2
  -1  -1   4 2457.01 155.204   1
   0  -1   4 151.200 4.70416   1
   1  -1   4 3662.82 92.0776   1
   2  -1   4 65.8529 2.74540   1
   3  -1   4 328.214 9.01556   1
  -4   1   1 127.485 11.5506  -2
   4  -1   4 127.485 11.5506   1
  -5   1   0 2217.14 134.512  -2
   5  -1   4 2217.14 134.512   1
   6  -1   1 38.9823 7.14571  -2
   6  -1   4 38.9823 7.14571   1
   7  -1   2 682.045 20.5022  -2
   7  -1   4 682.045 20.5022   1
   8  -1   3 2230.88 62.4070  -2
   8  -1   4 2230.88 62.4070   1
   9  -1   4 -2.9620 5.01968  -2
   9  -1   4 -2.9620 5.01968   1
  10  -1   5 479.348 18.5808  -2
  10  -1   4 479.348 18.5808   1
  11  -1   6 454.569 18.6886  -2
  11  -1   4 454.569 18.6886   1
  12  -1   7 51.9810 11.1528  -2
  12  -1   4 51.9810 11.1528   1
  13  -1   8 259.482 14.8303  -2
  13  -1   4 259.482 14.8303   1
  14  -1   9 128.650 15.2000  -2
  14  -1   4 128.650 15.2000   1
  15  -1  10 30.9651 26.2206  -2
  15  -1   4 30.9651 26.2206   1
  16  -1   4 207.268 17.5050   1
  17  -1   4 33.4996 13.6076   1
  14   0  17 74.0579 39.1090  -2
 -14   0   4 74.0579 39.1090   1
  13   0  16 163.525 19.3665  -2
 -13   0   4 163.525 19.3665   1
  12   0  15 661.337 25.3476  -2
 -12   0   4 661.337 25.3476   1
  11   0  14 -14.806 18.9935  -2
 -11   0   4 -14.806 18.9935   1
  10   0  13 188.462 20.0810  -2
 -10   0   4 188.462 20.0810   1
   9   0  12 790.815 60.6738  -2
  -9   0   4 790.815 60.6738   1
   8   0  11 604.660 41.4011  -2
  -8   0   4 604.660 41.4011   1
  -7   0   4 74.3685 5.49282   1
  -6   0   4 3.13480 3.44440   1
   5   0   9 2089.95 134.400  -2
  -5   0   4 2089.95 134.400   1
   4   0   8 1609.29 72.6842  -2
  -4   0   4 1609.29 72.6842   1
   3   0   7 1478.08 47.0982  -2
  -3   0   4 1478.08 47.0982   1
   2   0   6 465.738 18.5892  -2
  -2   0   4 465.738 18.5892   1
   1   0   5 958.768 35.3422  -2
  -1   0   4 958.768 35.3422   1
   0   0   4 9999.99 439.205  -2
   0   0   4 9999.99 439.205   1
  -1   0   3 3445.10 95.1352  -2
   1   0   4 3445.10 95.1352   1
  -2   0   2 1050.25 29.3314  -2
   2   0   4 1050.25 29.3314   1
  -3   0   1 1676.05 101.533  -2
   3   0   4 1676.05 101.533   1
   4   0   0 440.493 28.6464  -2
   4   0   4 440.493 28.6464   1
   5   0   1 2178.53 131.968  -2
   5   0   4 2178.53 131.968   1
   6   0   4 286.002 8.66361   1
   7   0   4 406.470 13.0262   1
   8   0   4 105.531 5.27508   1
   9   0   4 1885.60 48.6738   1
  10   0   4 89.6444 6.21252   1
  11   0   6 114.609 16.4263  -2
  11   0   4 114.609 16.4263   1
  12   0   7 2370.71 76.1424  -2
  12   0   4 2370.71 76.1424   1
  13   0   8 345.215 15.8984  -2
  13   0   4 345.215 15.8984   1
  14   0   9 87.2680 11.9469  -2
  14   0   4 87.2680 11.9469   1
  15   0  10 7.48546 11.0816  -2
  15   0   4 7.48546 11.0816   1
  16   0  11 22.8298 18.4177  -2
  16   0   4 22.8298 18.4177   1
  17   0  12 17.2349 28.3895  -2
  17   0   4 17.2349 28.3895   1
  14  -1  17 54.4177 44.5963  -2
 -14   1   4 54.4177 44.5963   1
  13  -1  16 27.8270 23.7256  -2
 -13   1   4 27.8270 23.7256   1
  12  -1  15 68.4352 13.3675  -2
 -12   1   4 68.4352 13.3675   1
  11  -1  14 9.61275 10.8402  -2
 -11   1   4 9.61275 10.8402   1
  10  -1  13 328.978 17.1288  -2
 -10   1   4 328.978 17.1288   1
   9  -1  12 115.600 15.9459  -2
  -9   1   4 115.600 15.9459   1
   8  -1  11 1781.90 57.1285  -2
  -8   1   4 1781.90 57.1285   1
   7  -1  10 322.940 13.5395  -2
  -7   1   4 322.940 13.5395   1
   6  -1   9 508.071 16.6372  -2
  -6   1   4 508.071 16.6372   1
   5  -1   8 944.601 35.3995  -2
  -5   1   4 944.601 35.3995   1
   4  -1   7 650.467 29.7405  -2
  -4   1   4 650.467 29.7405   1
  -3   1   4 3.86350 2.14359   1
  -2   1   4 118.182 4.60878   1
  -1   1   4 53.1327 3.05429   1
   0   1   4 1806.63 56.5153   1
  -1  -1   3 6993.82 435.764  -2
   1   1   4 6993.82 435.764   1
  -2  -1   2 215.411 14.4392  -2
   2   1   4 215.411 14.4392   1
  -3  -1   1 886.349 54.4697  -2
   3   1   4 886.349 54.4697   1
   4   1   0 5849.23 351.351  -2
   4   1   4 5849.23 351.351   1
   5   1   1 1336.06 37.8950  -2
   5   1   4 1336.06 37.8950   1
   6   1   2 566.311 17.1885  -2
   6   1   4 566.311 17.1885   1
   7   1   3 12.8132 4.33265  -2
   7   1   4 12.8132 4.33265   1
   8   1   4 1047.04 34.2577  -2
   8   1   4 1047.04 34.2577   1
   9   1   5 776.018 26.7467  -2
   9   1   4 776.018 26.7467   1
  10   1   6 271.127 29.7132  -2
  10   1   4 271.127 29.7132   1
  11   1   7 152.441 15.0530  -2
  11   1   4 152.441 15.0530   1
  12   1   8 176.080 16.3727  -2
  12   1   4 176.080 16.3727   1
  13   1   9 740.285 41.7055  -2
  13   1   4 740.285 41.7055   1
  14   1   4 109.575 8.34941   1
  15   1  10 187.742 24.2440  -2
  15   1   4 187.742 24.2440   1
  16   1   4 50.2394 14.8720   1
  17   1  12 205.096 35.1620  -2
  17   1   4 205.096 35.1620   1
  14  -2  16 175.373 28.5500  -2
 -14   2   4 175.373 28.5500   1
  13  -2  15 302.415 27.0966  -2
 -13   2   4 302.415 27.0966   1
  12  -2  14 223.168 23.4582  -2
 -12   2   4 223.168 23.4582   1
  11  -2  13 113.478 28.2241  -2
 -11   2   4 113.478 28.2241   1
  10  -2  12 321.077 35.6478  -2
 -10   2   4 321.077 35.6478   1
   9  -2  12 197.704 31.9996  -2
  -9   2   4 197.704 31.9996   1
   8  -2  11 537.023 39.0099  -2
  -8   2   4 537.023 39.0099   1
   7  -2  10 569.515 23.4916  -2
  -7   2   4 569.515 23.4916   1
   6  -2   9 563.548 18.0699  -2
  -6   2   4 563.548 18.0699   1
   5  -2   8 10.9064 5.06406  -2
  -5   2   4 10.9064 5.06406   1
   4  -2   7 2533.59 78.7816  -2
  -4   2   4 2533.59 78.7816   1
   3  -2   6 63.6887 4.83678  -2
  -3   2   4 63.6887 4.83678   1
   2  -2   5 29.1967 2.69333  -2
  -2   2   4 29.1967 2.69333   1
   1  -2   4 584.100 16.7657  -2
  -1   2   4 584.100 16.7657   1
   0  -2   3 558.224 18.0010  -2
   0   2   4 558.224 18.0010   1
  -1  -2   2 17.0081 2.62511  -2
   1   2   4 17.0081 2.62511   1
  -2  -2   1 2237.07 138.178  -2
   2   2   4 2237.07 138.178   1
   3   2   4 325.017 9.79203   1
   4   2   4 748.929 21.5071   1
   5   2   4 110.819 5.01174   1
   6   2   4 524.336 15.8874   1
   7   2   4 -0.4091 2.68855   1
   8   2   4 38.0122 14.0808  -2
   8   2   4 38.0122 14.0808   1
   9   2   5 612.043 25.3637  -2
   9   2   4 612.043 25.3637   1
  10   2   6 319.188 23.1212  -2
  10   2   4 319.188 23.1212   1
  11   2   7 208.028 11.2245  -2
  11   2   4 208.028 11.2245   1
  12   2   8 80.9980 9.54656  -2
  12   2   4 80.9980 9.54656   1
  13   2   9 614.388 21.5754  -2
  13   2   4 614.388 21.5754   1
  14   2  10 603.126 22.0585  -2
  14   2   4 603.126 22.0585   1
  15   2  11 464.413 20.7827  -2
  15   2   4 464.413 20.7827   1
  16   2  12 301.906 34.9556  -2
  16   2   4 301.906 34.9556   1
  17   2  13 147.179 34.2862  -2
  17   2   4 147.179 34.2862   1
  14  -3  16 205.736 20.5145  -2
 -14   3   4 205.736 20.5145   1
  13  -3  15 190.389 16.4966  -2
 -13   3   4 190.389 16.4966   1
  12  -3  14 293.536 20.5632  -2
 -12   3   4 293.536 20.5632   1
  11  -3  13 118.707 11.2047  -2
 -11   3   4 118.707 11.2047   1
  10  -3  12 36.2593 10.1325  -2
 -10   3   4 36.2593 10.1325   1
   9  -3  11 15.5700 10.7843  -2
  -9   3   4 15.5700 10.7843   1
   8  -3  10 -7.2095 9.71349  -2
  -8   3   4 -7.2095 9.71349   1
   7  -3   9 134.268 11.3806  -2
  -7   3   4 134.268 11.3806   1
   6  -3   8 81.0532 10.0970  -2
  -6   3   4 81.0532 10.0970   1
   5  -3   7 209.730 18.2367  -2
  -5   3   4 209.730 18.2367   1
  -4   3   4 61.2112 3.33647   1
  -3   3   4 1047.96 26.8392   1
   2  -3   5 1512.84 65.9524  -2
  -2   3   4 1512.84 65.9524   1
   1  -3   4 1411.59 50.9333  -2
  -1   3   4 1411.59 50.9333   1
   0  -3   3 161.390 12.0502  -2
   0   3   4 161.390 12.0502   1
  -1  -3   2 339.318 13.1758  -2
   1   3   4 339.318 13.1758   1
  -2  -3   1 798.720 22.6572  -2
   2   3   4 798.720 22.6572   1
   3   3   0 5067.49 140.980  -2
   3   3   4 5067.49 140.980   1
   4   3   1 1723.57 48.0243  -2
   4   3   4 1723.57 48.0243   1
   5   3   2 1860.91 58.8722  -2
   5   3   4 1860.91 58.8722   1
   6   3   3 193.273 11.9991  -2
   6   3   4 193.273 11.9991   1
   7   3   4 1297.48 59.6067  -2
   7   3   4 1297.48 59.6067   1
   8   3   5 622.297 44.2310  -2
   8   3   4 622.297 44.2310   1
   9   3   6 668.917 44.7207  -2
   9   3   4 668.917 44.7207   1
  10   3   4 742.891 26.1976   1
  11   3   4 117.169 7.27771   1
  12   3   8 304.232 29.4252  -2
  12   3   4 304.232 29.4252   1
  13   3   9 20.9431 19.6404  -2
  13   3   4 20.9431 19.6404   1
  14   3  10 740.527 29.7030  -2
  14   3   4 740.527 29.7030   1
  15   3  11 93.8617 15.6718  -2
  15   3   4 93.8617 15.6718   1
  16   3  12 75.4879 30.7882  -2
  16   3   4 75.4879 30.7882   1
  14  -4  15 188.066 42.6914  -2
 -14   4   4 188.066 42.6914   1
 -13   4   4 83.6177 12.2375   1
  12  -4  14 117.316 30.0325  -2
 -12   4   4 117.316 30.0325   1
  11  -4  13 4.35874 13.4308  -2
 -11   4   4 4.35874 13.4308   1
  10  -4  12 73.1692 10.8442  -2
 -10   4   4 73.1692 10.8442   1
   9  -4  11 211.416 12.1729  -2
  -9   4   4 211.416 12.1729   1
   8  -4  10 1399.14 45.2904  -2
  -8   4   4 1399.14 45.2904   1
   7  -4   9 217.622 9.31888  -2
  -7   4   4 217.622 9.31888   1
   6  -4   8 147.513 8.98413  -2
  -6   4   4 147.513 8.98413   1
   5  -4   7 1055.81 30.2244  -2
  -5   4   4 1055.81 30.2244   1
   4  -4   6 8.60800 3.23736  -2
  -4   4   4 8.60800 3.23736   1
   3  -4   5 1829.94 46.3792  -2
  -3   4   4 1829.94 46.3792   1
   2  -4   4 1129.43 40.1970  -2
  -2   4   4 1129.43 40.1970   1
   1  -4   3 1042.96 45.8309  -2
  -1   4   4 1042.96 45.8309   1
   0   4   4 807.204 28.8254   1
   1   4   4 145.354 5.40188   1
   2   4   4 1729.09 53.6340   1
   3   4   4 1058.32 27.1550   1
   4   4   4 113.830 4.79834   1
   5   4   2 879.742 57.4001  -2
   5   4   4 879.742 57.4001   1
   6   4   3 3519.74 216.823  -2
   6   4   4 3519.74 216.823   1
   7   4   4 5139.65 226.939  -2
   7   4   4 5139.65 226.939   1
   8   4   5 48.6575 8.86773  -2
   8   4   4 48.6575 8.86773   1
   9   4   6 704.948 28.7940  -2
   9   4   4 704.948 28.7940   1
  10   4   7 389.672 18.0660  -2
  10   4   4 389.672 18.0660   1
  11   4   8 1283.13 42.5081  -2
  11   4   4 1283.13 42.5081   1
  12   4   9 164.823 12.0919  -2
  12   4   4 164.823 12.0919   1
  13   4  10 390.525 17.6783  -2
  13   4   4 390.525 17.6783   1
  14   4  11 924.464 31.5438  -2
  14   4   4 924.464 31.5438   1
  15   4  12 13.0709 27.4396  -2
  15   4   4 13.0709 27.4396   1
  16   4  13 -15.766 50.7802  -2
  16   4   4 -15.766 50.7802   1
  17   4   4 18.5292 30.4368   1
  14  -5  15 106.270 16.2610  -2
 -14   5   4 106.270 16.2610   1
  13  -5  14 142.687 16.5702  -2
 -13   5   4 142.687 16.5702   1
  12  -5  13 127.377 17.2753  -2
 -12   5   4 127.377 17.2753   1
  11  -5  12 96.4820 13.2350  -2
 -11   5   4 96.4820 13.2350   1
  10  -5  11 235.549 15.3504  -2
 -10   5   4 235.549 15.3504   1
   9  -5  10 1169.95 46.5659  -2
  -9   5   4 1169.95 46.5659   1
   8  -5   9 612.288 43.1446  -2
  -8   5   4 612.288 43.1446   1
   7  -5   8 799.189 52.3451  -2
  -7   5   4 799.189 52.3451   1
   6  -5   8 29.6074 9.28514  -2
  -6   5   4 29.6074 9.28514   1
   5  -5   7 882.999 54.8994  -2
  -5   5   4 882.999 54.8994   1
   4  -5   6 122.889 6.53577  -2
  -4   5   4 122.889 6.53577   1
   3  -5   5 289.764 11.8240  -2
  -3   5   4 289.764 11.8240   1
   2  -5   4 23.1966 3.36005  -2
  -2   5   4 23.1966 3.36005   1
   1  -5   3 151.307 6.22390  -2
  -1   5   4 151.307 6.22390   1
   0  -5   2 185.749 9.45134  -2
   0   5   4 185.749 9.45134   1
  -1  -5   1 5144.66 222.548  -2
   1   5   4 5144.66 222.548   1
   2   5   0 776.999 24.7914  -2
   2   5   4 776.999 24.7914   1
   3   5   1 225.673 8.37986  -2
   3   5   4 225.673 8.37986   1
   4   5   2 1255.66 56.1299  -2
   4   5   4 1255.66 56.1299   1
   5   5   3 866.919 39.0368  -2
   5   5   4 866.919 39.0368   1
   6   5   4 439.147 22.4171  -2
   6   5   4 439.147 22.4171   1
   7   5   5 203.865 19.9181  -2
   7   5   4 203.865 19.9181   1
   8   5   4 122.694 6.17649   1
   9   5   4 -4.5867 3.83878   1
  10   5   4 33.2472 4.74994   1
  11   5   8 25.0724 17.7423  -2
  11   5   4 25.0724 17.7423   1
  12   5   9 357.642 25.8059  -2
  12   5   4 357.642 25.8059   1
  13   5  10 225.278 14.8674  -2
  13   5   4 225.278 14.8674   1
  14   5  11 47.8675 13.2483  -2
  14   5   4 47.8675 13.2483   1
  15   5  12 6.58418 20.0656  -2
  15   5   4 6.58418 20.0656   1
  16   5  13 10.5773 19.6539  -2
  16   5   4 10.5773 19.6539   1
  13  -6  14 -14.715 27.4499  -2
 -13   6   4 -14.715 27.4499   1
  12  -6  13 73.2202 15.5462  -2
 -12   6   4 73.2202 15.5462   1
  11  -6  12 626.955 28.6086  -2
 -11   6   4 626.955 28.6086   1
  10  -6  11 186.565 11.1193  -2
 -10   6   4 186.565 11.1193   1
   9  -6  10 3.34639 12.0263  -2
  -9   6   4 3.34639 12.0263   1
   8  -6   9 285.265 12.4702  -2
  -8   6   4 285.265 12.4702   1
   7  -6   8 1032.55 33.4519  -2
  -7   6   4 1032.55 33.4519   1
   6  -6   7 153.995 6.65442  -2
  -6   6   4 153.995 6.65442   1
   5  -6   6 493.863 14.8424  -2
  -5   6   4 493.863 14.8424   1
   4  -6   5 2202.33 77.8225  -2
  -4   6   4 2202.33 77.8225   1
   3  -6   4 53.5430 8.57014  -2
  -3   6   4 53.5430 8.57014   1
   2  -6   3 1035.86 63.3205  -2
  -2   6   4 1035.86 63.3205   1
  -1   6   4 111.906 7.34829   1
   0   6   4 226.051 11.5102   1
   1   6   4 84.8155 7.82938   1
   2   6   0 730.774 34.2893  -2
   2   6   4 730.774 34.2893   1
   3   6   1 994.931 45.1529  -2
   3   6   4 994.931 45.1529   1
   4   6   2 315.234 17.2806  -2
   4   6   4 315.234 17.2806   1
   5   6   3 3589.45 111.672  -2
   5   6   4 3589.45 111.672   1
   6   6   4 254.390 10.2559  -2
   6   6   4 254.390 10.2559   1
   7   6   5 125.557 8.45377  -2
   7   6   4 125.557 8.45377   1
   8   6   6 143.875 10.0285  -2
   8   6   4 143.875 10.0285   1
   9   6   7 53.9412 8.73261  -2
   9   6   4 53.9412 8.73261   1
  10   6   8 110.455 13.9005  -2
  10   6   4 110.455 13.9005   1
  11   6   9 -10.597 12.3796  -2
  11   6   4 -10.597 12.3796   1
  12   6  10 129.419 17.3257  -2
  12   6   4 129.419 17.3257   1
  13   6  11 751.649 30.3836  -2
  13   6   4 751.649 30.3836   1
  14   6  12 218.044 20.8781  -2
  14   6   4 218.044 20.8781   1
  15   6  13 200.160 40.5024  -2
  15   6   4 200.160 40.5024   1
  16   6   4 -14.720 11.4139   1
  13  -7  13 137.600 16.5410  -2
 -13   7   4 137.600 16.5410   1
  12  -7  12 388.222 25.9099  -2
 -12   7   4 388.222 25.9099   1
  11  -7  11 138.790 16.3601  -2
 -11   7   4 138.790 16.3601   1
  10  -7  10 1.53574 16.1938  -2
 -10   7   4 1.53574 16.1938   1
   9  -7   9 159.621 25.9628  -2
  -9   7   4 159.621 25.9628   1
   8  -7   9 -7.9969 18.4454  -2
  -8   7   4 -7.9969 18.4454   1
   7  -7   8 22.0961 6.21349  -2
  -7   7   4 22.0961 6.21349   1
   6  -7   7 124.355 10.3251  -2
  -6   7   4 124.355 10.3251   1
   5  -7   6 140.436 7.87648  -2
  -5   7   4 140.436 7.87648   1
   4  -7   5 1049.36 33.1349  -2
  -4   7   4 1049.36 33.1349   1
   3  -7   4 1592.42 49.2273  -2
  -3   7   4 1592.42 49.2273   1
   2  -7   3 138.717 6.80251  -2
  -2   7   4 138.717 6.80251   1
   1  -7   2 235.664 11.9924  -2
  -1   7   4 235.664 11.9924   1
   0  -7   1 1038.45 45.6673  -2
   0   7   4 1038.45 45.6673   1
   1   7   0 3485.11 214.102  -2
   1   7   4 3485.11 214.102   1
   2   7   1 70.9550 6.10371  -2
   2   7   4 70.9550 6.10371   1
   3   7   2 193.665 13.4082  -2
   3   7   4 193.665 13.4082   1
   4   7   3 337.826 19.1683  -2
   4   7   4 337.826 19.1683   1
   5   7   4 3277.69 202.633  -2
   5   7   4 3277.69 202.633   1
   6   7   4 31.0407 3.42695   1
   7   7   4 41.6350 4.10099   1
   8   7   4 713.331 22.2382   1
   9   7   7 1877.53 84.6264  -2
   9   7   4 1877.53 84.6264   1
  10   7   8 2239.83 72.1187  -2
  10   7   4 2239.83 72.1187   1
  11   7   9 17.2559 12.4237  -2
  11   7   4 17.2559 12.4237   1
  12   7  10 188.749 14.9160  -2
  12   7   4 188.749 14.9160   1
  13   7  11 615.640 25.0459  -2
  13   7   4 615.640 25.0459   1
  14   7  12 433.393 18.9147  -2
  14   7   4 433.393 18.9147   1
  15   7  13 36.1564 14.7078  -2
  15   7   4 36.1564 14.7078   1
  16   7   4 9.44096 28.5294   1
  13  -8  13 52.8674 31.5405  -2
 -13   8   4 52.8674 31.5405   1
  12  -8  12 61.2478 11.6764  -2
 -12   8   4 61.2478 11.6764   1
  11  -8  11 698.791 22.7812  -2
 -11   8   4 698.791 22.7812   1
  10  -8  10 283.064 13.0891  -2
 -10   8   4 283.064 13.0891   1
   9  -8   9 496.251 17.3765  -2
  -9   8   4 496.251 17.3765   1
   8  -8   8 125.899 13.4595  -2
  -8   8   4 125.899 13.4595   1
   7  -8   7 79.0920 10.3182  -2
  -7   8   4 79.0920 10.3182   1
   6  -8   6 141.825 12.3408  -2
  -6   8   4 141.825 12.3408   1
   5  -8   5 152.221 16.1542  -2
  -5   8   4 152.221 16.1542   1
   4  -8   4 122.514 14.5170  -2
  -4   8   4 122.514 14.5170   1
  -3   8   4 1372.04 42.4311   1
  -2   8   4 1169.34 36.5250   1
   1  -8   2 244.890 18.6584  -2
  -1   8   4 244.890 18.6584   1
   0  -8   1 1857.42 80.8022  -2
   0   8   4 1857.42 80.8022   1
   1   8   0 488.614 23.8939  -2
   1   8   4 488.614 23.8939   1
   2   8   1 1985.34 72.1068  -2
   2   8   4 1985.34 72.1068   1
   3   8   2 29.4247 5.04715  -2
   3   8   4 29.4247 5.04715   1
   4   8   3 2416.68 86.9439  -2
   4   8   4 2416.68 86.9439   1
   5   8   4 844.235 27.7643  -2
   5   8   4 844.235 27.7643   1
   6   8   5 558.270 22.3522  -2
   6   8   4 558.270 22.3522   1
   7   8   6 298.639 11.4177  -2
   7   8   4 298.639 11.4177   1
   8   8   7 421.554 15.0340  -2
   8   8   4 421.554 15.0340   1
   9   8   8 3553.21 111.869  -2
   9   8   4 3553.21 111.869   1
  10   8   9 546.071 25.4323  -2
  10   8   4 546.071 25.4323   1
  11   8  10 55.4979 16.6247  -2
  11   8   4 55.4979 16.6247   1
  12   8   4 47.4971 6.75014   1
  13   8  11 255.162 40.4740  -2
  13   8   4 255.162 40.4740   1
  14   8  12 597.574 41.9555  -2
  14   8   4 597.574 41.9555   1
  15   8  13 -4.7746 21.8477  -2
  15   8   4 -4.7746 21.8477   1
  13  -9  12 1.53050 28.5832  -2
 -13   9   4 1.53050 28.5832   1
 -12   9   4 150.847 13.2490   1
 -11   9   4 -3.6310 12.3617   1
  10  -9  10 129.290 19.7152  -2
 -10   9   4 129.290 19.7152   1
   9  -9   9 233.490 20.5934  -2
  -9   9   4 233.490 20.5934   1
   8  -9   8 523.341 24.1470  -2
  -8   9   4 523.341 24.1470   1
   7  -9   7 126.363 9.47641  -2
  -7   9   4 126.363 9.47641   1
   6  -9   6 69.4490 7.70804  -2
  -6   9   4 69.4490 7.70804   1
   5  -9   5 83.4383 6.40695  -2
  -5   9   4 83.4383 6.40695   1
   4  -9   4 205.136 9.83838  -2
  -4   9   4 205.136 9.83838   1
   3  -9   3 1381.27 43.3518  -2
  -3   9   4 1381.27 43.3518   1
   2  -9   2 48.4473 3.63355  -2
  -2   9   4 48.4473 3.63355   1
   1  -9   1 309.095 16.2297  -2
  -1   9   4 309.095 16.2297   1
   0   9   0 -14.442 11.0354  -2
   0   9   4 -14.442 11.0354   1
   1   9   1 1365.10 60.1030  -2
   1   9   4 1365.10 60.1030   1
   2   9   4 1614.85 59.0080   1
   3   9   4 7.90824 2.70849   1
   4   9   4 32.1219 3.74041   1
   5   9   4 66.1512 5.77655   1
   6   9   5 482.040 26.5253  -2
   6   9   4 482.040 26.5253   1
   7   9   6 317.207 13.1459  -2
   7   9   4 317.207 13.1459   1
   8   9   7 148.310 9.77260  -2
   8   9   4 148.310 9.77260   1
   9   9   8 51.0322 9.24387  -2
   9   9   4 51.0322 9.24387   1
  10   9   9 137.039 10.7038  -2
  10   9   4 137.039 10.7038   1
  11   9  10 241.247 14.5834  -2
  11   9   4 241.247 14.5834   1
  12   9  11 20.4231 11.2989  -2
  12   9   4 20.4231 11.2989   1
  13   9  12 72.6105 14.2862  -2
  13   9   4 72.6105 14.2862   1
  14   9  13 458.791 25.0504  -2
  14   9   4 458.791 25.0504   1
  15   9   4 177.985 21.5484   1
  12 -10  11 325.602 27.8439  -2
 -12  10   4 325.602 27.8439   1
  11 -10  10 52.7908 19.5353  -2
 -11  10   4 52.7908 19.5353   1
  10 -10   9 181.187 16.3750  -2
 -10  10   4 181.187 16.3750   1
   9 -10   8 979.458 63.3381  -2
  -9  10   4 979.458 63.3381   1
   8 -10   7 985.430 45.9823  -2
  -8  10   4 985.430 45.9823   1
  -7  10   4 43.1776 5.78867   1
  -6  10   4 293.741 11.7423   1
  -5  10   4 744.303 24.3253   1
   4 -10   4 1530.63 94.6299  -2
  -4  10   4 1530.63 94.6299   1
   3 -10   3 11.9950 14.0577  -2
  -3  10   4 11.9950 14.0577   1
   2 -10   2 991.579 44.2263  -2
  -2  10   4 991.579 44.2263   1
   1 -10   1 150.610 12.7173  -2
  -1  10   4 150.610 12.7173   1
   0  10   0 516.151 24.8271  -2
   0  10   4 516.151 24.8271   1
   1  10   1 21.3308 3.94006  -2
   1  10   4 21.3308 3.94006   1
   2  10   2 1731.18 54.6033  -2
   2  10   4 1731.18 54.6033   1
   3  10   3 225.911 13.3588  -2
   3  10   4 225.911 13.3588   1
   4  10   4 8.40141 7.50171  -2
   4  10   4 8.40141 7.50171   1
   5  10   5 645.995 25.5218  -2
   5  10   4 645.995 25.5218   1
   6  10   6 1402.49 91.3595  -2
   6  10   4 1402.49 91.3595   1
   7  10   7 69.8082 16.2346  -2
   7  10   4 69.8082 16.2346   1
   8  10   8 61.2832 15.0517  -2
   8  10   4 61.2832 15.0517   1
   9  10   9 23.4418 28.5426  -2
   9  10   4 23.4418 28.5426   1
  10  10   4 4.71839 5.15909   1
  11  10  10 13.8645 23.4921  -2
  11  10   4 13.8645 23.4921   1
  12  10  11 30.4038 24.3816  -2
  12  10   4 30.4038 24.3816   1
  13  10  12 51.2372 19.6785  -2
  13  10   4 51.2372 19.6785   1
  14  10  13 250.410 35.3169  -2
  14  10   4 250.410 35.3169   1
 -12  11   4 430.956 24.9231   1
  11 -11  10 20.5391 18.8974  -2
 -11  11   4 20.5391 18.8974   1
  10 -11   9 45.2334 15.3483  -2
 -10  11   4 45.2334 15.3483   1
   9 -11   8 32.2484 14.6315  -2
  -9  11   4 32.2484 14.6315   1
   8 -11   7 288.960 19.2397  -2
  -8  11   4 288.960 19.2397   1
   7 -11   6 76.7131 8.56789  -2
  -7  11   4 76.7131 8.56789   1
   6 -11   5 7.03220 8.16125  -2
  -6  11   4 7.03220 8.16125   1
   5 -11   4 354.441 16.4505  -2
  -5  11   4 354.441 16.4505   1
   4 -11   3 308.481 15.1479  -2
  -4  11   4 308.481 15.1479   1
   3 -11   2 201.697 16.0247  -2
  -3  11   4 201.697 16.0247   1
   2 -11   1 250.344 17.3445  -2
  -2  11   4 250.344 17.3445   1
  -1  11   4 13.2424 1.95188   1
   0  11   4 76.0005 3.68935   1
   1  11   4 9.77078 2.18251   1
   2  11   2 180.895 22.4183  -2
   2  11   4 180.895 22.4183   1
   3  11   3 332.610 19.7023  -2
   3  11   4 332.610 19.7023   1
   4  11   4 63.1811 11.9608  -2
   4  11   4 63.1811 11.9608   1
   5  11   5 126.745 11.2378  -2
   5  11   4 126.745 11.2378   1
   6  11   6 678.981 24.1223  -2
   6  11   4 678.981 24.1223   1
   7  11   7 445.621 26.4013  -2
   7  11   4 445.621 26.4013   1
   8  11   8 799.675 27.3201  -2
   8  11   4 799.675 27.3201   1
   9  11   9 45.2785 8.15699  -2
   9  11   4 45.2785 8.15699   1
  10  11  10 264.173 13.9735  -2
  10  11   4 264.173 13.9735   1
  11  11  11 149.949 16.5035  -2
  11  11   4 149.949 16.5035   1
  12  11  12 454.439 23.4978  -2
  12  11   4 454.439 23.4978   1
  13  11  13 67.8303 20.0683  -2
  13  11   4 67.8303 20.0683   1
  11 -12   9 362.004 22.0724  -2
 -11  12   4 362.004 22.0724   1
  10 -12   8 139.587 17.5279  -2
 -10  12   4 139.587 17.5279   1
  -9  12   4 161.916 14.2784   1
  -8  12   4 141.520 11.1946   1
   7 -12   6 314.686 29.8997  -2
  -7  12   4 314.686 29.8997   1
   6 -12   5 27.8002 14.8728  -2
  -6  12   4 27.8002 14.8728   1
   5 -12   4 33.2398 12.8347  -2
  -5  12   4 33.2398 12.8347   1
   4 -12   3 160.936 12.8209  -2
  -4  12   4 160.936 12.8209   1
   3 -12   2 12.5936 8.02243  -2
  -3  12   4 12.5936 8.02243   1
   2 -12   1 108.934 6.03512  -2
  -2  12   4 108.934 6.03512   1
  -1  12   0 62.9132 4.27637  -2
  -1  12   4 62.9132 4.27637   1
   0  12   1 426.270 14.9057  -2
   0  12   4 426.270 14.9057   1
   1  12   2 390.660 14.3168  -2
   1  12   4 390.660 14.3168   1
   2  12   3 1106.61 41.4783  -2
   2  12   4 1106.61 41.4783   1
   3  12   4 53.5201 11.9796  -2
   3  12   4 53.5201 11.9796   1
   4  12   5 260.142 14.7795  -2
   4  12   4 260.142 14.7795   1
   5  12   6 51.6353 16.3145  -2
   5  12   4 51.6353 16.3145   1
   6  12   7 617.891 32.6973  -2
   6  12   4 617.891 32.6973   1
   7  12   4 30.8878 18.7884   1
   8  12   8 59.4345 27.4200  -2
   8  12   4 59.4345 27.4200   1
   9  12   9 308.859 42.8318  -2
   9  12   4 308.859 42.8318   1
  10  12  10 1338.59 40.9396  -2
  10  12   4 1338.59 40.9396   1
  11  12  11 696.014 25.3856  -2
  11  12   4 696.014 25.3856   1
  12  12  12 108.034 17.8062  -2
  12  12   4 108.034 17.8062   1
  10 -13   8 33.5380 15.5580  -2
 -10  13   4 33.5380 15.5580   1
   9 -13   7 86.9574 11.9149  -2
  -9  13   4 86.9574 11.9149   1
   8 -13   6 71.9822 12.8404  -2
  -8  13   4 71.9822 12.8404   1
   7 -13   5 512.636 19.8590  -2
  -7  13   4 512.636 19.8590   1
   6 -13   4 1415.73 65.4802  -2
  -6  13   4 1415.73 65.4802   1
  -5  13   4 77.0721 13.3465   1
  -4  13   4 91.5349 7.47961   1
  -3  13   4 2.53737 2.93229   1
  -2  13   4 688.481 23.1032   1
  -1  13   0 603.461 43.6810  -2
  -1  13   4 603.461 43.6810   1
   0  13   1 285.652 14.9466  -2
   0  13   4 285.652 14.9466   1
   1  13   2 1261.38 40.7514  -2
   1  13   4 1261.38 40.7514   1
   2  13   3 899.181 34.3202  -2
   2  13   4 899.181 34.3202   1
   3  13   4 401.118 15.5999  -2
   3  13   4 401.118 15.5999   1
   4  13   5 81.3161 8.95146  -2
   4  13   4 81.3161 8.95146   1
   5  13   6 120.371 10.6310  -2
   5  13   4 120.371 10.6310   1
   6  13   7 296.048 14.3773  -2
   6  13   4 296.048 14.3773   1
   7  13   8 120.402 17.2924  -2
   7  13   4 120.402 17.2924   1
   8  13   9 127.131 16.6114  -2
   8  13   4 127.131 16.6114   1
   9  13  10 30.1364 21.3174  -2
   9  13   4 30.1364 21.3174   1
  10  13  11 619.517 32.2324  -2
  10  13   4 619.517 32.2324   1
  11  13  12 88.0845 28.1678  -2
  11  13   4 88.0845 28.1678   1
  12  13   4 14.9821 14.1578   1
   9 -14   7 340.393 19.7441  -2
  -9  14   4 340.393 19.7441   1
   8 -14   6 66.6419 27.8787  -2
  -8  14   4 66.6419 27.8787   1
   7 -14   5 694.601 30.0293  -2
  -7  14   4 694.601 30.0293   1
   6 -14   4 169.508 11.2794  -2
  -6  14   4 169.508 11.2794   1
   5 -14   3 183.141 14.9692  -2
  -5  14   4 183.141 14.9692   1
   4 -14   2 219.874 10.6445  -2
  -4  14   4 219.874 10.6445   1
   3 -14   1 182.840 9.10430  -2
  -3  14   4 182.840 9.10430   1
  -2  14   0 1837.95 57.8822  -2
  -2  14   4 1837.95 57.8822   1
  -1  14   1 22.3410 6.30967  -2
  -1  14   4 22.3410 6.30967   1
   0  14   2 80.8466 8.15090  -2
   0  14   4 80.8466 8.15090   1
   1  14   3 130.766 9.87553  -2
   1  14   4 130.766 9.87553   1
   2  14   4 555.663 24.2296  -2
   2  14   4 555.663 24.2296   1
   3  14   4 170.374 9.69097   1
   4  14   4 3.37561 5.35183   1
   5  14   6 319.011 35.1122  -2
   5  14   4 319.011 35.1122   1
   6  14   7 671.311 37.0535  -2
   6  14   4 671.311 37.0535   1
   7  14   8 270.608 38.6585  -2
   7  14   4 270.608 38.6585   1
   8  14   9 49.3069 20.0133  -2
   8  14   4 49.3069 20.0133   1
   9  14  10 105.982 23.9024  -2
   9  14   4 105.982 23.9024   1
  10  14  11 140.693 21.3030  -2
  10  14   4 140.693 21.3030   1
   8 -15   5 139.679 29.2185  -2
  -8  15   4 139.679 29.2185   1
   7 -15   4 152.025 19.3755  -2
  -7  15   4 152.025 19.3755   1
   6 -15   3 603.625 48.2487  -2
  -6  15   4 603.625 48.2487   1
  -5  15   4 37.9158 5.86092   1
  -4  15   4 34.6126 5.40946   1
   3 -15   1 349.437 28.1673  -2
  -3  15   4 349.437 28.1673   1
  -2  15   0 833.290 28.4229  -2
  -2  15   4 833.290 28.4229   1
  -1  15   1 264.461 12.9408  -2
  -1  15   4 264.461 12.9408   1
   0  15   2 96.4101 8.56703  -2
   0  15   4 96.4101 8.56703   1
   1  15   3 212.864 11.2279  -2
   1  15   4 212.864 11.2279   1
   2  15   4 33.3879 7.97060  -2
   2  15   4 33.3879 7.97060   1
   3  15   5 1.61436 8.14461  -2
   3  15   4 1.61436 8.14461   1
   4  15   6 320.446 13.6204  -2
   4  15   4 320.446 13.6204   1
   5  15   7 434.288 22.5190  -2
   5  15   4 434.288 22.5190   1
   6  15   8 214.702 19.2424  -2
   6  15   4 214.702 19.2424   1
   7  15   9 701.434 39.4612  -2
   7  15   4 701.434 39.4612   1
   8  15  10 86.1075 27.5604  -2
   8  15   4 86.1075 27.5604   1
   9  15  11 113.560 28.8581  -2
   9  15   4 113.560 28.8581   1
   7 -16   4 26.1015 15.4079  -2
  -7  16   4 26.1015 15.4079   1
   6 -16   3 80.8120 14.9638  -2
  -6  16   4 80.8120 14.9638   1
   5 -16   2 66.9988 11.0167  -2
  -5  16   4 66.9988 11.0167   1
   4 -16   1 99.2264 13.7655  -2
  -4  16   4 99.2264 13.7655   1
  -3  16   0 41.5362 9.14863  -2
  -3  16   4 41.5362 9.14863   1
  -2  16   1 165.356 11.7653  -2
  -2  16   4 165.356 11.7653   1
  -1  16   2 25.3885 12.5937  -2
  -1  16   4 25.3885 12.5937   1
   0  16   4 -1.4927 4.89508   1
   1  16   4 8.43403 4.78772   1
   2  16   4 248.142 12.5672   1
   3  16   5 74.4707 15.0520  -2
   3  16   4 74.4707 15.0520   1
   4  16   6 79.2919 16.2816  -2
   4  16   4 79.2919 16.2816   1
   5  16   7 49.7440 29.2986  -2
   5  16   4 49.7440 29.2986   1
   6  16   8 56.3439 21.4794  -2
   6  16   4 56.3439 21.4794   1
   7  16   9 38.4148 22.0693  -2
   7  16   4 38.4148 22.0693   1
   8  16  10 45.5051 22.5049  -2
   8  16   4 45.5051 22.5049   1
   5 -17   2 18.6300 29.1902  -2
  -5  17   4 18.6300 29.1902   1
   4 -17   1 155.782 30.4067  -2
  -4  17   4 155.782 30.4067   1
  -3  17   0 698.561 51.9768  -2
  -3  17   4 698.561 51.9768   1
  -2  17   1 154.347 15.3535  -2
  -2  17   4 154.347 15.3535   1
  -1  17   2 71.4656 9.78939  -2
  -1  17   4 71.4656 9.78939   1
   0  17   3 229.726 13.1726  -2
   0  17   4 229.726 13.1726   1
   1  17   4 823.143 40.1194  -2
   1  17   4 823.143 40.1194   1
   2  17   5 169.210 14.0978  -2
   2  17   4 169.210 14.0978   1
   3  17   6 207.885 16.7056  -2
   3  17   4 207.885 16.7056   1
   4  17   7 6.46370 28.9604  -2
   4  17   4 6.46370 28.9604   1
   5  17   8 198.919 19.9139  -2
   5  17   4 198.919 19.9139   1
   6  17   9 429.413 32.9293  -2
   6  17   4 429.413 32.9293   1
  -2  18   2 161.758 34.1782  -2
  -2  18   4 161.758 34.1782   1
  -1  18   4 42.5732 15.4811   1
   0  18   4 296.391 30.8233   1
   1 -16   5 39.3390 13.5089   1
  -2  16  10 56.0358 26.0080  -2
   2 -16   5 56.0358 26.0080   1
  -3  16   9 183.910 26.0685  -2
   3 -16   5 183.910 26.0685   1
  -4  16   8 43.8495 22.4360  -2
   4 -16   5 43.8495 22.4360   1
  -5  16   7 13.9774 19.0680  -2
   5 -16   5 13.9774 19.0680   1
  -6  16   6 -17.722 15.7290  -2
   6 -16   5 -17.722 15.7290   1
   2  15  13 -30.018 30.5040  -2
  -2 -15   5 -30.018 30.5040   1
   1  15  12 0.49008 17.2237  -2
  -1 -15   5 0.49008 17.2237   1
   0  15  11 93.2744 17.7649  -2
   0 -15   5 93.2744 17.7649   1
  -1  15  10 54.0268 21.2374  -2
   1 -15   5 54.0268 21.2374   1
  -2  15   9 601.717 38.1761  -2
   2 -15   5 601.717 38.1761   1
  -3  15   8 11.2525 25.1827  -2
   3 -15   5 11.2525 25.1827   1
   4 -15   5 35.3566 9.55160   1
   5 -15   5 47.6567 9.73494   1
  -6  15   6 168.916 26.5134  -2
   6 -15   5 168.916 26.5134   1
  -7  15   5 58.4586 20.1859  -2
   7 -15   5 58.4586 20.1859   1
  -8  15   4 16.8556 25.0268  -2
   8 -15   5 16.8556 25.0268   1
  -9  15   3 320.341 31.5482  -2
   9 -15   5 320.341 31.5482   1
  -4 -14   5 100.314 9.64310   1
   3  14  14 216.366 29.0078  -2
  -3 -14   5 216.366 29.0078   1
   2  14  13 -26.736 18.4676  -2
  -2 -14   5 -26.736 18.4676   1
   1  14  12 18.0276 14.1126  -2
  -1 -14   5 18.0276 14.1126   1
   0  14  11 193.439 12.1417  -2
   0 -14   5 193.439 12.1417   1
  -1  14  10 191.259 10.6748  -2
   1 -14   5 191.259 10.6748   1
  -2  14   9 27.3825 7.57160  -2
   2 -14   5 27.3825 7.57160   1
  -3  14   8 23.1771 9.28675  -2
   3 -14   5 23.1771 9.28675   1
  -4  14   7 44.7030 10.8331  -2
   4 -14   5 44.7030 10.8331   1
  -5  14   6 293.810 16.8617  -2
   5 -14   5 293.810 16.8617   1
  -6  14   5 368.737 21.7458  -2
   6 -14   5 368.737 21.7458   1
  -7  14   4 622.334 29.0999  -2
   7 -14   5 622.334 29.0999   1
  -8  14   3 30.9737 17.6737  -2
   8 -14   5 30.9737 17.6737   1
  -9  14   2 162.781 21.0210  -2
   9 -14   5 162.781 21.0210   1
 -10  14   1 272.445 44.1548  -2
  10 -14   5 272.445 44.1548   1
  11 -14   5 46.6181 14.7607   1
   6  13  16 445.746 26.6404  -2
  -6 -13   5 445.746 26.6404   1
   5  13  15 83.3897 16.1918  -2
  -5 -13   5 83.3897 16.1918   1
   4  13  14 246.313 17.8602  -2
  -4 -13   5 246.313 17.8602   1
   3  13  13 729.517 23.5312  -2
  -3 -13   5 729.517 23.5312   1
   2  13  12 147.780 15.1409  -2
  -2 -13   5 147.780 15.1409   1
   1  13  11 205.926 13.5009  -2
  -1 -13   5 205.926 13.5009   1
   0  13  10 126.260 12.9952  -2
   0 -13   5 126.260 12.9952   1
  -1  13   9 12.8566 17.6022  -2
   1 -13   5 12.8566 17.6022   1
   2 -13   5 11.4586 3.95201   1
   3 -13   5 116.603 6.24423   1
  -4  13   7 1.72207 15.2914  -2
   4 -13   5 1.72207 15.2914   1
  -5  13   6 260.915 18.6288  -2
   5 -13   5 260.915 18.6288   1
  -6  13   5 753.449 32.8442  -2
   6 -13   5 753.449 32.8442   1
  -7  13   4 515.264 31.2709  -2
   7 -13   5 515.264 31.2709   1
  -8  13   3 -1.4997 15.3733  -2
   8 -13   5 -1.4997 15.3733   1
  -9  13   2 -1.8294 12.2131  -2
   9 -13   5 -1.8294 12.2131   1
 -10  13   1 122.855 17.3198  -2
  10 -13   5 122.855 17.3198   1
 -11  13   0 250.136 18.7024  -2
  11 -13   5 250.136 18.7024   1
  12 -13   1 10.5271 23.6273  -2
  12 -13   5 10.5271 23.6273   1
  -7 -12   5 89.3370 9.73539   1
   6  12  16 9.50644 31.7803  -2
  -6 -12   5 9.50644 31.7803   1
   5  12  15 37.6303 22.9876  -2
  -5 -12   5 37.6303 22.9876   1
   4  12  14 244.613 20.3853  -2
  -4 -12   5 244.613 20.3853   1
   3  12  13 457.854 17.4331  -2
  -3 -12   5 457.854 17.4331   1
   2  12  12 345.123 16.1403  -2
  -2 -12   5 345.123 16.1403   1
   1  12  11 204.259 12.3863  -2
  -1 -12   5 204.259 12.3863   1
   0  12  10 233.483 10.5565  -2
   0 -12   5 233.483 10.5565   1
  -1  12   9 635.709 18.7441  -2
   1 -12   5 635.709 18.7441   1
  -2  12   8 25.2190 7.70602  -2
   2 -12   5 25.2190 7.70602   1
  -3  12   7 590.282 19.6312  -2
   3 -12   5 590.282 19.6312   1
  -4  12   6 772.523 24.2667  -2
   4 -12   5 772.523 24.2667   1
  -5  12   5 83.4565 10.8834  -2
   5 -12   5 83.4565 10.8834   1
  -6  12   4 51.7281 24.3779  -2
   6 -12   5 51.7281 24.3779   1
  -7  12   3 148.105 20.3147  -2
   7 -12   5 148.105 20.3147   1
   8 -12   5 143.019 6.73324   1
   9 -12   5 55.1429 4.48465   1
 -10  12   1 116.954 15.3702  -2
  10 -12   5 116.954 15.3702   1
 -11  12   0 1187.75 36.7401  -2
  11 -12   5 1187.75 36.7401   1
  12 -12   1 242.369 22.3322  -2
  12 -12   5 242.369 22.3322   1
  13 -12   2 -37.997 35.8666  -2
  13 -12   5 -37.997 35.8666   1
   8  11  17 83.0656 22.0985  -2
  -8 -11   5 83.0656 22.0985   1
   7  11  16 576.025 30.5887  -2
  -7 -11   5 576.025 30.5887   1
   6  11  15 5.65941 16.6973  -2
  -6 -11   5 5.65941 16.6973   1
   5  11  14 229.468 18.6903  -2
  -5 -11   5 229.468 18.6903   1
   4  11  13 34.3444 15.1666  -2
  -4 -11   5 34.3444 15.1666   1
   3  11  12 36.4809 12.8482  -2
  -3 -11   5 36.4809 12.8482   1
   2  11  11 24.1120 19.1783  -2
  -2 -11   5 24.1120 19.1783   1
  -1 -11   5 365.522 12.7112   1
   0 -11   5 171.235 8.00186   1
  -1  11   9 28.8176 12.3164  -2
   1 -11   5 28.8176 12.3164   1
  -2  11   8 582.952 20.0958  -2
   2 -11   5 582.952 20.0958   1
  -3  11   7 860.842 24.2412  -2
   3 -11   5 860.842 24.2412   1
  -4  11   6 588.401 19.3671  -2
   4 -11   5 588.401 19.3671   1
  -5  11   5 28.3211 7.49409  -2
   5 -11   5 28.3211 7.49409   1
  -6  11   4 20.3684 8.41368  -2
   6 -11   5 20.3684 8.41368   1
  -7  11   3 353.626 13.1198  -2
   7 -11   5 353.626 13.1198   1
  -8  11   2 205.088 12.1107  -2
   8 -11   5 205.088 12.1107   1
  -9  11   1 104.412 8.71788  -2
   9 -11   5 104.412 8.71788   1
 -10  11   0 242.434 11.7461  -2
  10 -11   5 242.434 11.7461   1
  11 -11   1 707.892 22.1798  -2
  11 -11   5 707.892 22.1798   1
  12 -11   2 430.268 19.5272  -2
  12 -11   5 430.268 19.5272   1
  13 -11   3 236.623 21.7933  -2
  13 -11   5 236.623 21.7933   1
  14 -11   4 159.819 48.6467  -2
  14 -11   5 159.819 48.6467   1
  -9 -10   5 60.9075 19.0532   1
   8  10  17 19.7750 19.5656  -2
  -8 -10   5 19.7750 19.5656   1
   7  10  16 177.178 18.7943  -2
  -7 -10   5 177.178 18.7943   1
   6  10  15 82.9847 17.5915  -2
  -6 -10   5 82.9847 17.5915   1
   5  10  14 166.379 15.6024  -2
  -5 -10   5 166.379 15.6024   1
   4  10  13 70.8364 14.1868  -2
  -4 -10   5 70.8364 14.1868   1
   3  10  12 145.673 14.4411  -2
  -3 -10   5 145.673 14.4411   1
   2  10  11 -8.0616 6.52220  -2
  -2 -10   5 -8.0616 6.52220   1
   1  10  10 489.933 16.7132  -2
  -1 -10   5 489.933 16.7132   1
   0  10   9 2.37039 7.45664  -2
   0 -10   5 2.37039 7.45664   1
  -1  10   8 121.288 9.36142  -2
   1 -10   5 121.288 9.36142   1
  -2  10   7 429.329 17.2755  -2
   2 -10   5 429.329 17.2755   1
  -3  10   6 360.523 15.8466  -2
   3 -10   5 360.523 15.8466   1
  -4  10   5 321.188 30.4256  -2
   4 -10   5 321.188 30.4256   1
   5 -10   5 69.3257 5.35863   1
   6 -10   5 1.72991 3.58088   1
   7 -10   5 219.383 9.27106   1
  -8  10   2 785.146 31.3969  -2
   8 -10   5 785.146 31.3969   1
  -9  10   1 23.5280 9.26621  -2
   9 -10   5 23.5280 9.26621   1
 -10  10   0 170.111 11.1171  -2
  10 -10   5 170.111 11.1171   1
  11 -10   1 189.665 10.8994  -2
  11 -10   5 189.665 10.8994   1
  12 -10   2 500.716 21.7938  -2
  12 -10   5 500.716 21.7938   1
  13 -10   3 30.1009 11.1182  -2
  13 -10   5 30.1009 11.1182   1
  14 -10   4 160.560 17.7432  -2
  14 -10   5 160.560 17.7432   1
  15 -10   5 674.595 59.2235  -2
  15 -10   5 674.595 59.2235   1
   9   9  17 19.9069 19.8191  -2
  -9  -9   5 19.9069 19.8191   1
   8   9  16 9.16247 21.1778  -2
  -8  -9   5 9.16247 21.1778   1
   7   9  15 15.8531 15.6288  -2
  -7  -9   5 15.8531 15.6288   1
   6   9  14 19.2674 14.1477  -2
  -6  -9   5 19.2674 14.1477   1
   5   9  13 132.392 22.6759  -2
  -5  -9   5 132.392 22.6759   1
   4   9  12 1250.95 92.7438  -2
  -4  -9   5 1250.95 92.7438   1
  -3  -9   5 11.5534 4.45574   1
  -2  -9   5 22.2219 5.28152   1
   1   9  10 939.354 33.1469  -2
  -1  -9   5 939.354 33.1469   1
   0   9   9 232.568 16.1746  -2
   0  -9   5 232.568 16.1746   1
  -1   9   8 14.8048 9.41602  -2
   1  -9   5 14.8048 9.41602   1
  -2   9   7 27.0922 7.04540  -2
   2  -9   5 27.0922 7.04540   1
  -3   9   6 624.963 19.6107  -2
   3  -9   5 624.963 19.6107   1
  -4   9   5 296.652 11.0856  -2
   4  -9   5 296.652 11.0856   1
  -5   9   4 120.795 6.56070  -2
   5  -9   5 120.795 6.56070   1
  -6   9   3 495.039 16.5913  -2
   6  -9   5 495.039 16.5913   1
  -7   9   2 261.229 12.2094  -2
   7  -9   5 261.229 12.2094   1
  -8   9   1 1842.97 52.4863  -2
   8  -9   5 1842.97 52.4863   1
  -9   9   0 60.3748 11.9970  -2
   9  -9   5 60.3748 11.9970   1
  10  -9   1 64.4856 12.4564  -2
  10  -9   5 64.4856 12.4564   1
  11  -9   2 -33.473 26.9894  -2
  11  -9   5 -33.473 26.9894   1
  12  -9   5 13.4656 5.09745   1
  13  -9   3 55.2807 33.7924  -2
  13  -9   5 55.2807 33.7924   1
  14  -9   4 35.2670 26.0087  -2
  14  -9   5 35.2670 26.0087   1
  15  -9   5 32.8945 21.8324  -2
  15  -9   5 32.8945 21.8324   1
  10   8  18 365.167 37.4284  -2
 -10  -8   5 365.167 37.4284   1
   9   8  17 133.413 19.1374  -2
  -9  -8   5 133.413 19.1374   1
   8   8  16 142.973 18.3176  -2
  -8  -8   5 142.973 18.3176   1
   7   8  15 11.0681 12.0669  -2
  -7  -8   5 11.0681 12.0669   1
   6   8  14 464.945 18.2432  -2
  -6  -8   5 464.945 18.2432   1
   5   8  13 141.278 16.4830  -2
  -5  -8   5 141.278 16.4830   1
   4   8  12 324.557 13.4860  -2
  -4  -8   5 324.557 13.4860   1
   3   8  11 24.4724 14.5756  -2
  -3  -8   5 24.4724 14.5756   1
   2   8  10 163.657 9.81088  -2
  -2  -8   5 163.657 9.81088   1
   1   8   9 2140.74 60.3594  -2
  -1  -8   5 2140.74 60.3594   1
   0   8   8 1104.88 29.7956  -2
   0  -8   5 1104.88 29.7956   1
  -1   8   7 173.601 10.3766  -2
   1  -8   5 173.601 10.3766   1
   2  -8   5 338.078 10.7538   1
   3  -8   5 293.608 9.65834   1
   4  -8   5 159.624 6.80620   1
  -5   8   4 147.483 9.48009  -2
   5  -8   5 147.483 9.48009   1
  -6   8   3 2351.23 73.1287  -2
   6  -8   5 2351.23 73.1287   1
  -7   8   2 87.6892 8.37347  -2
   7  -8   5 87.6892 8.37347   1
  -8   8   1 144.462 11.9556  -2
   8  -8   5 144.462 11.9556   1
  -9   8   0 183.542 9.97524  -2
   9  -8   5 183.542 9.97524   1
  10  -8   1 123.808 9.83250  -2
  10  -8   5 123.808 9.83250   1
  11  -8   2 67.9125 8.68707  -2
  11  -8   5 67.9125 8.68707   1
  12  -8   3 444.851 15.6939  -2
  12  -8   5 444.851 15.6939   1
  13  -8   4 325.159 14.6700  -2
  13  -8   5 325.159 14.6700   1
  14  -8   5 81.5905 14.5190  -2
  14  -8   5 81.5905 14.5190   1
  15  -8   6 32.9849 18.1421  -2
  15  -8   5 32.9849 18.1421   1
  16  -8   7 30.4882 32.4165  -2
  16  -8   5 30.4882 32.4165   1
  11   7  18 39.7576 27.4269  -2
 -11  -7   5 39.7576 27.4269   1
  10   7  17 120.706 21.9888  -2
 -10  -7   5 120.706 21.9888   1
   9   7  16 102.134 21.8560  -2
  -9  -7   5 102.134 21.8560   1
   8   7  15 220.643 23.5154  -2
  -8  -7   5 220.643 23.5154   1
   7   7  14 199.014 32.1593  -2
  -7  -7   5 199.014 32.1593   1
  -6  -7   5 122.316 8.50900   1
  -5  -7   5 50.6439 6.02325   1
   4   7  12 636.898 27.1614  -2
  -4  -7   5 636.898 27.1614   1
   3   7  11 21.5720 10.3166  -2
  -3  -7   5 21.5720 10.3166   1
   2   7  10 228.970 12.3775  -2
  -2  -7   5 228.970 12.3775   1
   1   7   9 143.966 8.67880  -2
  -1  -7   5 143.966 8.67880   1
   0   7   8 57.9769 5.92036  -2
   0  -7   5 57.9769 5.92036   1
  -1   7   7 376.748 14.2182  -2
   1  -7   5 376.748 14.2182   1
  -2   7   6 393.695 12.8718  -2
   2  -7   5 393.695 12.8718   1
  -3   7   5 669.883 20.2060  -2
   3  -7   5 669.883 20.2060   1
  -4   7   4 893.438 23.9936  -2
   4  -7   5 893.438 23.9936   1
  -5   7   3 68.6545 6.28881  -2
   5  -7   5 68.6545 6.28881   1
  -6   7   2 277.007 13.8233  -2
   6  -7   5 277.007 13.8233   1
  -7   7   1 487.560 20.9276  -2
   7  -7   5 487.560 20.9276   1
  -8   7   0 48.0356 19.8149  -2
   8  -7   5 48.0356 19.8149   1
   9  -7   5 4.19764 3.96282   1
  10  -7   5 44.9311 4.89961   1
  11  -7   2 822.698 58.1850  -2
  11  -7   5 822.698 58.1850   1
  12  -7   3 67.4140 13.5850  -2
  12  -7   5 67.4140 13.5850   1
  13  -7   4 -1.4817 12.5787  -2
  13  -7   5 -1.4817 12.5787   1
  14  -7   5 378.438 18.1052  -2
  14  -7   5 378.438 18.1052   1
  15  -7   6 87.0603 16.3889  -2
  15  -7   5 87.0603 16.3889   1
  16  -7   7 400.886 32.8210  -2
  16  -7   5 400.886 32.8210   1
  11   6  18 2.19248 21.0707  -2
 -11  -6   5 2.19248 21.0707   1
  10   6  17 233.468 21.4551  -2
 -10  -6   5 233.468 21.4551   1
   9   6  16 174.893 13.9328  -2
  -9  -6   5 174.893 13.9328   1
   8   6  15 233.916 16.8515  -2
  -8  -6   5 233.916 16.8515   1
   7   6  14 107.860 10.6922  -2
  -7  -6   5 107.860 10.6922   1
   6   6  13 1069.41 32.8445  -2
  -6  -6   5 1069.41 32.8445   1
   5   6  12 880.274 36.5672  -2
  -5  -6   5 880.274 36.5672   1
   4   6  11 260.934 13.1871  -2
  -4  -6   5 260.934 13.1871   1
   3   6  10 15.8927 9.05499  -2
  -3  -6   5 15.8927 9.05499   1
   2   6   9 373.903 13.8206  -2
  -2  -6   5 373.903 13.8206   1
  -1  -6   5 29.3204 3.48193   1
   0  -6   5 8.13400 2.58898   1
   1  -6   5 21.8760 2.84564   1
   2  -6   5 682.000 18.5736   1
  -3   6   5 463.803 18.7324  -2
   3  -6   5 463.803 18.7324   1
  -4   6   4 2070.43 57.7947  -2
   4  -6   5 2070.43 57.7947   1
  -5   6   3 333.285 10.7415  -2
   5  -6   5 333.285 10.7415   1
  -6   6   2 816.756 22.1991  -2
   6  -6   5 816.756 22.1991   1
  -7   6   1 763.251 21.0002  -2
   7  -6   5 763.251 21.0002   1
  -8   6   0 241.617 10.7153  -2
   8  -6   5 241.617 10.7153   1
   9  -6   1 73.1212 7.70367  -2
   9  -6   5 73.1212 7.70367   1
  10  -6   2 509.101 19.9028  -2
  10  -6   5 509.101 19.9028   1
  11  -6   3 528.861 17.6568  -2
  11  -6   5 528.861 17.6568   1
  12  -6   4 293.036 14.6024  -2
  12  -6   5 293.036 14.6024   1
  13  -6   5 -14.024 13.8729  -2
  13  -6   5 -14.024 13.8729   1
  14  -6   6 239.485 18.5587  -2
  14  -6   5 239.485 18.5587   1
  15  -6   7 627.256 63.2404  -2
  15  -6   5 627.256 63.2404   1
  16  -6   5 16.3743 9.45399   1
  12   5  18 114.883 38.7152  -2
 -12  -5   5 114.883 38.7152   1
  11   5  17 193.736 24.2054  -2
 -11  -5   5 193.736 24.2054   1
  10   5  16 58.8059 31.3840  -2
 -10  -5   5 58.8059 31.3840   1
  -9  -5   5 7.52742 6.49888   1
  -8  -5   5 -2.2668 5.44298   1
   7   5  14 1149.22 47.8433  -2
  -7  -5   5 1149.22 47.8433   1
   6   5  13 409.793 21.2220  -2
  -6  -5   5 409.793 21.2220   1
   5   5  12 62.6069 10.1330  -2
  -5  -5   5 62.6069 10.1330   1
   4   5  11 190.331 11.4861  -2
  -4  -5   5 190.331 11.4861   1
   3   5  10 745.201 23.0761  -2
  -3  -5   5 745.201 23.0761   1
   2   5   9 525.933 21.6154  -2
  -2  -5   5 525.933 21.6154   1
   1   5   8 1469.67 46.9944  -2
  -1  -5   5 1469.67 46.9944   1
   0   5   7 900.372 29.2105  -2
   0  -5   5 900.372 29.2105   1
  -1   5   6 442.958 12.6741  -2
   1  -5   5 442.958 12.6741   1
  -2   5   5 1618.79 50.9210  -2
   2  -5   5 1618.79 50.9210   1
  -3   5   4 400.920 13.9675  -2
   3  -5   5 400.920 13.9675   1
  -4   5   3 449.856 15.5245  -2
   4  -5   5 449.856 15.5245   1
  -5   5   2 483.176 35.0267  -2
   5  -5   5 483.176 35.0267   1
   6  -5   5 867.613 23.0145   1
   7  -5   5 21.7278 3.19436   1
  -8   5   0 2612.15 159.302  -2
   8  -5   5 2612.15 159.302   1
   9  -5   1 915.611 35.2974  -2
   9  -5   5 915.611 35.2974   1
  10  -5   2 962.237 32.5232  -2
  10  -5   5 962.237 32.5232   1
  11  -5   3 716.704 25.9624  -2
  11  -5   5 716.704 25.9624   1
  12  -5   4 203.474 11.2399  -2
  12  -5   5 203.474 11.2399   1
  13  -5   5 17.3147 10.3829  -2
  13  -5   5 17.3147 10.3829   1
  14  -5   6 499.994 17.7749  -2
  14  -5   5 499.994 17.7749   1
  15  -5   7 371.046 15.3712  -2
  15  -5   5 371.046 15.3712   1
  16  -5   8 291.185 19.3054  -2
  16  -5   5 291.185 19.3054   1
  17  -5   9 216.114 48.7551  -2
  17  -5   5 216.114 48.7551   1
  12   4  18 71.3304 19.5211  -2
 -12  -4   5 71.3304 19.5211   1
  11   4  17 49.0074 13.3163  -2
 -11  -4   5 49.0074 13.3163   1
  10   4  16 41.1313 10.1143  -2
 -10  -4   5 41.1313 10.1143   1
   9   4  15 464.072 18.8976  -2
  -9  -4   5 464.072 18.8976   1
   8   4  14 117.205 11.4946  -2
  -8  -4   5 117.205 11.4946   1
   7   4  13 53.9836 10.2700  -2
  -7  -4   5 53.9836 10.2700   1
   6   4  12 682.610 28.5352  -2
  -6  -4   5 682.610 28.5352   1
   5   4  11 278.889 14.7495  -2
  -5  -4   5 278.889 14.7495   1
   4   4  10 1264.91 86.8387  -2
  -4  -4   5 1264.91 86.8387   1
  -3  -4   5 212.624 8.55436   1
  -2  -4   5 785.011 21.2922   1
  -1  -4   5 57.0234 3.98005   1
   0   4   7 2587.16 71.8547  -2
   0  -4   5 2587.16 71.8547   1
  -1   4   6 3036.93 77.0471  -2
   1  -4   5 3036.93 77.0471   1
  -2   4   5 1551.03 43.8449  -2
   2  -4   5 1551.03 43.8449   1
  -3   4   4 1853.46 47.2497  -2
   3  -4   5 1853.46 47.2497   1
  -4   4   3 1091.38 28.3578  -2
   4  -4   5 1091.38 28.3578   1
  -5   4   2 1079.66 28.1405  -2
   5  -4   5 1079.66 28.1405   1
  -6   4   1 353.783 12.7934  -2
   6  -4   5 353.783 12.7934   1
  -7   4   0 528.446 15.2255  -2
   7  -4   5 528.446 15.2255   1
   8  -4   1 3028.98 84.1534  -2
   8  -4   5 3028.98 84.1534   1
   9  -4   2 385.389 18.0027  -2
   9  -4   5 385.389 18.0027   1
  10  -4   3 74.8062 10.4313  -2
  10  -4   5 74.8062 10.4313   1
  11  -4   4 -10.008 20.2262  -2
  11  -4   5 -10.008 20.2262   1
  12  -4   5 703.085 20.6074   1
  13  -4   5 344.859 12.9070   1
  14  -4   6 111.517 28.6121  -2
  14  -4   5 111.517 28.6121   1
  15  -4   7 6.62875 19.3997  -2
  15  -4   5 6.62875 19.3997   1
  16  -4   8 -7.1708 32.1586  -2
  16  -4   5 -7.1708 32.1586   1
  17  -4   9 11.4459 32.0608  -2
  17  -4   5 11.4459 32.0608   1
  12   3  17 253.864 40.8006  -2
 -12  -3   5 253.864 40.8006   1
  11   3  17 303.716 34.3477  -2
 -11  -3   5 303.716 34.3477   1
  10   3  16 353.858 20.8401  -2
 -10  -3   5 353.858 20.8401   1
   9   3  15 40.1046 14.7045  -2
  -9  -3   5 40.1046 14.7045   1
   8   3  14 128.199 12.0365  -2
  -8  -3   5 128.199 12.0365   1
   7   3  13 198.759 11.6543  -2
  -7  -3   5 198.759 11.6543   1
   6   3  12 17.2759 7.75337  -2
  -6  -3   5 17.2759 7.75337   1
   5   3  11 150.363 10.8212  -2
  -5  -3   5 150.363 10.8212   1
   4   3  10 121.962 6.99394  -2
  -4  -3   5 121.962 6.99394   1
   3   3   9 145.368 7.10262  -2
  -3  -3   5 145.368 7.10262   1
   2   3   8 945.633 27.6150  -2
  -2  -3   5 945.633 27.6150   1
   1   3   7 6.85512 4.40991  -2
  -1  -3   5 6.85512 4.40991   1
   0   3   6 1054.56 30.3300  -2
   0  -3   5 1054.56 30.3300   1
  -1   3   5 926.660 33.9651  -2
   1  -3   5 926.660 33.9651   1
  -2   3   4 1276.54 56.2739  -2
   2  -3   5 1276.54 56.2739   1
   3  -3   5 67.8897 3.44158   1
   4  -3   5 48.5572 2.93586   1
   5  -3   5 726.738 19.2700   1
   6  -3   5 9.86728 2.51170   1
  -7   3   0 541.756 25.9691  -2
   7  -3   5 541.756 25.9691   1
   8  -3   1 68.9903 8.23348  -2
   8  -3   5 68.9903 8.23348   1
   9  -3   2 105.752 8.01053  -2
   9  -3   5 105.752 8.01053   1
  10  -3   3 9.13570 8.05599  -2
  10  -3   5 9.13570 8.05599   1
  11  -3   4 93.1026 8.33687  -2
  11  -3   5 93.1026 8.33687   1
  12  -3   5 389.443 14.8614  -2
  12  -3   5 389.443 14.8614   1
  13  -3   6 1488.79 48.8252  -2
  13  -3   5 1488.79 48.8252   1
  14  -3   7 333.101 18.4038  -2
  14  -3   5 333.101 18.4038   1
  15  -3   8 146.535 14.9340  -2
  15  -3   5 146.535 14.9340   1
  16  -3   9 61.9206 23.3740  -2
  16  -3   5 61.9206 23.3740   1
  17  -3  10 144.495 34.4617  -2
  17  -3   5 144.495 34.4617   1
  13   2  18 130.643 22.9447  -2
 -13  -2   5 130.643 22.9447   1
  12   2  17 61.3439 14.7756  -2
 -12  -2   5 61.3439 14.7756   1
  11   2  16 160.642 13.1650  -2
 -11  -2   5 160.642 13.1650   1
  10   2  15 268.430 19.1283  -2
 -10  -2   5 268.430 19.1283   1
   9   2  14 361.817 16.6500  -2
  -9  -2   5 361.817 16.6500   1
   8   2  13 34.6562 12.5461  -2
  -8  -2   5 34.6562 12.5461   1
   7   2  12 407.225 26.1126  -2
  -7  -2   5 407.225 26.1126   1
  -6  -2   5 53.5420 5.10614   1
  -5  -2   5 14.5711 3.63318   1
  -4  -2   5 623.147 19.2139   1
   3   2   9 494.246 37.1003  -2
  -3  -2   5 494.246 37.1003   1
   2   2   8 937.426 30.5961  -2
  -2  -2   5 937.426 30.5961   1
   1   2   7 644.551 19.2834  -2
  -1  -2   5 644.551 19.2834   1
   0   2   6 59.3907 4.04455  -2
   0  -2   5 59.3907 4.04455   1
  -1   2   5 1091.61 28.2133  -2
   1  -2   5 1091.61 28.2133   1
  -2   2   4 29.0038 2.66409  -2
   2  -2   5 29.0038 2.66409   1
  -3   2   3 314.419 8.86157  -2
   3  -2   5 314.419 8.86157   1
  -4   2   2 143.129 5.24803  -2
   4  -2   5 143.129 5.24803   1
  -5   2   1 1039.74 29.5478  -2
   5  -2   5 1039.74 29.5478   1
  -6   2   0 95.9251 6.48607  -2
   6  -2   5 95.9251 6.48607   1
   7  -2   1 368.682 19.1502  -2
   7  -2   5 368.682 19.1502   1
   8  -2   2 1743.20 75.5782  -2
   8  -2   5 1743.20 75.5782   1
   9  -2   5 193.282 7.71193   1
  10  -2   5 314.916 13.5384   1
  11  -2   5 -5.2444 3.86071   1
  12  -2   5 14.7905 21.3574  -2
  12  -2   5 14.7905 21.3574   1
  13  -2   6 119.930 16.1437  -2
  13  -2   5 119.930 16.1437   1
  14  -2   7 38.8078 13.5554  -2
  14  -2   5 38.8078 13.5554   1
  15  -2   8 81.7494 19.9390  -2
  15  -2   5 81.7494 19.9390   1
  16  -2   9 128.173 21.1758  -2
  16  -2   5 128.173 21.1758   1
  17  -2  10 971.909 55.9367  -2
  17  -2   5 971.909 55.9367   1
  13   1  18 -25.847 33.8135  -2
 -13  -1   5 -25.847 33.8135   1
  12   1  17 185.477 28.6932  -2
 -12  -1   5 185.477 28.6932   1
  11   1  16 53.2997 17.6922  -2
 -11  -1   5 53.2997 17.6922   1
  10   1  15 70.9600 13.0098  -2
 -10  -1   5 70.9600 13.0098   1
   9   1  14 83.4988 11.7683  -2
  -9  -1   5 83.4988 11.7683   1
   8   1  13 126.179 14.0418  -2
  -8  -1   5 126.179 14.0418   1
   7   1  12 161.560 13.7630  -2
  -7  -1   5 161.560 13.7630   1
   6   1  11 538.986 22.4994  -2
  -6  -1   5 538.986 22.4994   1
   4   1   9 545.132 17.0060  -2
  -4  -1   5 545.132 17.0060   1
   3   1   8 352.132 12.0293  -2
  -3  -1   5 352.132 12.0293   1
   2   1   7 188.952 7.50408  -2
  -2  -1   5 188.952 7.50408   1
   1   1   6 838.045 54.3651  -2
  -1  -1   5 838.045 54.3651   1
   0  -1   5 53.2424 3.04546   1
   1  -1   5 2120.33 53.6821   1
   2  -1   5 64.7973 2.85031   1
   3  -1   5 372.005 10.2014   1
  -4   1   2 4041.24 242.868  -2
   4  -1   5 4041.24 242.868   1
  -5   1   1 4427.57 188.135  -2
   5  -1   5 4427.57 188.135   1
  -6   1   0 105.836 7.03086  -2
   6  -1   5 105.836 7.03086   1
   7  -1   1 2810.37 71.4380  -2
   7  -1   5 2810.37 71.4380   1
   8  -1   2 1517.37 43.0724  -2
   8  -1   5 1517.37 43.0724   1
   9  -1   3 359.200 11.6633  -2
   9  -1   5 359.200 11.6633   1
  10  -1   4 493.930 21.3808  -2
  10  -1   5 493.930 21.3808   1
  11  -1   5 325.647 15.0801  -2
  11  -1   5 325.647 15.0801   1
  12  -1   6 792.193 28.8168  -2
  12  -1   5 792.193 28.8168   1
  13  -1   7 502.171 19.7179  -2
  13  -1   5 502.171 19.7179   1
  14  -1   8 226.600 16.2877  -2
  14  -1   5 226.600 16.2877   1
  15  -1   9 119.548 20.2337  -2
  15  -1   5 119.548 20.2337   1
  16  -1   5 128.481 14.4145   1
  17  -1   5 301.111 26.2105   1
  13   0  17 122.563 21.7775  -2
 -13   0   5 122.563 21.7775   1
  12   0  16 77.2639 18.0452  -2
 -12   0   5 77.2639 18.0452   1
  11   0  15 346.720 18.4764  -2
 -11   0   5 346.720 18.4764   1
  10   0  14 218.734 19.7557  -2
 -10   0   5 218.734 19.7557   1
   9   0  13 91.7955 18.0358  -2
  -9   0   5 91.7955 18.0358   1
   8   0  12 -4.2942 21.6428  -2
  -8   0   5 -4.2942 21.6428   1
  -7   0   5 -1.2835 3.81784   1
  -6   0   5 109.261 7.52742   1
   5   0  10 416.633 23.6694  -2
  -5   0   5 416.633 23.6694   1
   4   0   9 149.069 9.66798  -2
  -4   0   5 149.069 9.66798   1
   3   0   8 1661.14 53.0529  -2
  -3   0   5 1661.14 53.0529   1
   2   0   7 276.566 9.39449  -2
  -2   0   5 276.566 9.39449   1
   1   0   6 459.868 13.8355  -2
  -1   0   5 459.868 13.8355   1
   0   0   5 7.93967 3.07168  -2
   0   0   5 7.93967 3.07168   1
  -1   0   4 885.506 27.9834  -2
   1   0   5 885.506 27.9834   1
  -2   0   3 215.372 6.26535  -2
   2   0   5 215.372 6.26535   1
  -3   0   2 514.217 18.8971  -2
   3   0   5 514.217 18.8971   1
  -4   0   1 2465.38 148.795  -2
   4   0   5 2465.38 148.795   1
   5   0   0 1187.28 72.6347  -2
   5   0   5 1187.28 72.6347   1
   6   0   1 197.193 16.9419  -2
   6   0   5 197.193 16.9419   1
   7   0   5 124.870 5.66795   1
   8   0   5 1493.53 42.4346   1
   9   0   5 211.933 8.22741   1
  10   0   5 1.24399 3.94378   1
  11   0   5 1691.99 63.3747  -2
  11   0   5 1691.99 63.3747   1
  12   0   6 237.861 16.3996  -2
  12   0   5 237.861 16.3996   1
  13   0   7 638.649 22.9834  -2
  13   0   5 638.649 22.9834   1
  14   0   8 34.5698 11.0638  -2
  14   0   5 34.5698 11.0638   1
  15   0   9 221.154 13.8060  -2
  15   0   5 221.154 13.8060   1
  16   0  10 68.8932 15.6715  -2
  16   0   5 68.8932 15.6715   1
  17   0  11 79.4363 27.3366  -2
  17   0   5 79.4363 27.3366   1
  13  -1  17 48.7872 29.0549  -2
 -13   1   5 48.7872 29.0549   1
  12  -1  16 13.8220 17.8838  -2
 -12   1   5 13.8220 17.8838   1
  11  -1  15 24.2719 12.2081  -2
 -11   1   5 24.2719 12.2081   1
  10  -1  14 117.397 11.4786  -2
 -10   1   5 117.397 11.4786   1
   9  -1  13 134.359 12.8299  -2
  -9   1   5 134.359 12.8299   1
   8  -1  12 3173.66 114.338  -2
  -8   1   5 3173.66 114.338   1
   7  -1  11 141.305 9.90081  -2
  -7   1   5 141.305 9.90081   1
   6  -1  10 228.867 10.0821  -2
  -6   1   5 228.867 10.0821   1
   5  -1   9 1456.61 41.8495  -2
  -5   1   5 1456.61 41.8495   1
   4  -1   8 40.9418 14.6059  -2
  -4   1   5 40.9418 14.6059   1
   3  -1   7 21.9518 13.0562  -2
  -3   1   5 21.9518 13.0562   1
  -2   1   5 71.4772 4.36486   1
  -1   1   5 946.669 30.3998   1
   0   1   5 872.303 24.6660   1
  -1  -1   4 1943.43 85.6348  -2
   1   1   5 1943.43 85.6348   1
  -2  -1   3 453.820 17.1690  -2
   2   1   5 453.820 17.1690   1
  -3  -1   2 832.306 36.9366  -2
   3   1   5 832.306 36.9366   1
  -4  -1   1 1664.19 51.6045  -2
   4   1   5 1664.19 51.6045   1
   5   1   0 565.384 17.0064  -2
   5   1   5 565.384 17.0064   1
   6   1   1 1091.60 31.3799  -2
   6   1   5 1091.60 31.3799   1
   7   1   2 31.1485 4.17719  -2
   7   1   5 31.1485 4.17719   1
   8   1   3 360.160 14.0892  -2
   8   1   5 360.160 14.0892   1
   9   1   4 693.328 24.2529  -2
   9   1   5 693.328 24.2529   1
  10   1   5 -6.5993 20.7739  -2
  10   1   5 -6.5993 20.7739   1
  11   1   6 7.97741 11.9599  -2
  11   1   5 7.97741 11.9599   1
  12   1   7 285.055 22.6214  -2
  12   1   5 285.055 22.6214   1
  13   1   5 604.356 20.5253   1
  14   1   5 109.612 8.15673   1
  15   1   9 91.1275 23.5884  -2
  15   1   5 91.1275 23.5884   1
  16   1  10 187.775 52.1239  -2
  16   1   5 187.775 52.1239   1
  17   1  11 75.8004 47.9863  -2
  17   1   5 75.8004 47.9863   1
  13  -2  16 192.553 27.3359  -2
 -13   2   5 192.553 27.3359   1
  12  -2  15 403.811 30.2390  -2
 -12   2   5 403.811 30.2390   1
  11  -2  14 88.1608 33.8416  -2
 -11   2   5 88.1608 33.8416   1
  10  -2  14 648.974 52.4301  -2
  10  -2  13 648.974 52.4301  -2
 -10   2   5 648.974 52.4301   1
   9  -2  13 151.498 31.0064  -2
  -9   2   5 151.498 31.0064   1
   8  -2  12 30.3483 15.3747  -2
  -8   2   5 30.3483 15.3747   1
   7  -2  11 221.470 11.8067  -2
  -7   2   5 221.470 11.8067   1
   6  -2  10 -6.3388 7.44823  -2
  -6   2   5 -6.3388 7.44823   1
   5  -2   9 216.212 9.16561  -2
  -5   2   5 216.212 9.16561   1
   4  -2   8 1687.87 53.2360  -2
  -4   2   5 1687.87 53.2360   1
   3  -2   7 346.447 10.9451  -2
  -3   2   5 346.447 10.9451   1
   2  -2   6 423.467 12.6717  -2
  -2   2   5 423.467 12.6717   1
   1  -2   5 966.574 27.4255  -2
  -1   2   5 966.574 27.4255   1
   0  -2   4 131.197 4.66847  -2
   0   2   5 131.197 4.66847   1
  -1  -2   3 390.898 15.2069  -2
   1   2   5 390.898 15.2069   1
  -2  -2   2 124.227 9.71250  -2
   2   2   5 124.227 9.71250   1
   3   2   5 37.4217 2.16345   1
   4   2   5 4694.96 117.731   1
   5   2   5 229.675 7.18823   1
   6   2   5 96.0526 4.63444   1
   7   2   5 632.505 19.1644   1
   8   2   3 304.012 24.2093  -2
   8   2   5 304.012 24.2093   1
   9   2   4 627.122 31.7217  -2
   9   2   5 627.122 31.7217   1
  10   2   5 231.832 18.6393  -2
  10   2   5 231.832 18.6393   1
  11   2   6 395.276 15.3316  -2
  11   2   5 395.276 15.3316   1
  12   2   7 121.113 11.3610  -2
  12   2   5 121.113 11.3610   1
  13   2   8 523.718 23.9427  -2
  13   2   5 523.718 23.9427   1
  14   2   9 371.347 16.8506  -2
  14   2   5 371.347 16.8506   1
  15   2  10 338.396 20.9125  -2
  15   2   5 338.396 20.9125   1
  16   2  11 531.780 40.2406  -2
  16   2   5 531.780 40.2406   1
  17   2  12 440.059 40.4813  -2
  17   2   5 440.059 40.4813   1
  13  -3  16 19.3131 14.8309  -2
 -13   3   5 19.3131 14.8309   1
  12  -3  15 710.810 31.6163  -2
 -12   3   5 710.810 31.6163   1
  11  -3  14 45.7187 10.9863  -2
 -11   3   5 45.7187 10.9863   1
  10  -3  13 28.5116 11.5567  -2
 -10   3   5 28.5116 11.5567   1
   9  -3  12 248.469 15.4601  -2
  -9   3   5 248.469 15.4601   1
   8  -3  11 186.269 11.2973  -2
  -8   3   5 186.269 11.2973   1
   7  -3  10 128.006 11.7547  -2
  -7   3   5 128.006 11.7547   1
   6  -3   9 163.932 14.5984  -2
  -6   3   5 163.932 14.5984   1
   5  -3   8 556.953 36.6188  -2
  -5   3   5 556.953 36.6188   1
  -4   3   5 368.583 11.6682   1
  -3   3   5 989.318 28.1168   1
   2  -3   6 77.3238 7.16501  -2
  -2   3   5 77.3238 7.16501   1
   1  -3   5 863.264 27.4040  -2
  -1   3   5 863.264 27.4040   1
   0  -3   4 87.6270 3.65040  -2
   0   3   5 87.6270 3.65040   1
  -1  -3   3 456.368 13.2399  -2
   1   3   5 456.368 13.2399   1
  -2  -3   2 1408.73 39.7065  -2
   2   3   5 1408.73 39.7065   1
  -3  -3   1 1144.99 32.3995  -2
   3   3   5 1144.99 32.3995   1
   4   3   0 758.458 19.8662  -2
   4   3   5 758.458 19.8662   1
   5   3   1 60.3990 5.22065  -2
   5   3   5 60.3990 5.22065   1
   6   3   2 2278.68 83.2456  -2
   6   3   5 2278.68 83.2456   1
   7   3   3 776.879 53.6239  -2
   7   3   5 776.879 53.6239   1
   8   3   4 739.721 35.9625  -2
   8   3   5 739.721 35.9625   1
   9   3   5 2310.81 141.484  -2
   9   3   5 2310.81 141.484   1
  10   3   5 166.829 10.7630   1
  11   3   5 502.952 17.3925   1
  12   3   7 818.920 59.4956  -2
  12   3   5 818.920 59.4956   1
  13   3   8 247.223 30.0215  -2
  13   3   5 247.223 30.0215   1
  14   3   9 270.514 18.4131  -2
  14   3   5 270.514 18.4131   1
  15   3  10 625.049 24.8894  -2
  15   3   5 625.049 24.8894   1
  16   3  11 33.6306 30.2161  -2
  16   3   5 33.6306 30.2161   1
  17   3  12 291.825 34.3387  -2
  17   3   5 291.825 34.3387   1
 -13   4   5 -1.1863 10.7152   1
 -12   4   5 7.61705 9.31435   1
  11  -4  14 191.978 19.6510  -2
 -11   4   5 191.978 19.6510   1
  10  -4  13 100.535 12.7214  -2
 -10   4   5 100.535 12.7214   1
   9  -4  12 722.166 32.8085  -2
  -9   4   5 722.166 32.8085   1
   8  -4  11 114.630 9.02830  -2
  -8   4   5 114.630 9.02830   1
   7  -4  10 -0.0208 7.14176  -2
  -7   4   5 -0.0208 7.14176   1
   6  -4   9 779.167 29.7429  -2
  -6   4   5 779.167 29.7429   1
   5  -4   8 489.175 16.8379  -2
  -5   4   5 489.175 16.8379   1
   4  -4   7 6.15344 3.88326  -2
  -4   4   5 6.15344 3.88326   1
   3  -4   6 901.392 25.7212  -2
  -3   4   5 901.392 25.7212   1
   2  -4   5 1351.32 37.5824  -2
  -2   4   5 1351.32 37.5824   1
   1  -4   4 82.4306 5.17667  -2
  -1   4   5 82.4306 5.17667   1
   0  -4   3 553.795 35.2067  -2
   0   4   5 553.795 35.2067   1
   1   4   5 1890.14 58.5496   1
   2   4   5 83.8878 4.20101   1
   3   4   5 262.282 8.18833   1
   4   4   5 145.221 5.59765   1
   5   4   1 377.962 25.9203  -2
   5   4   5 377.962 25.9203   1
   6   4   2 82.7498 10.5138  -2
   6   4   5 82.7498 10.5138   1
   7   4   3 612.911 42.6339  -2
   7   4   5 612.911 42.6339   1
   8   4   4 28.3662 8.32061  -2
   8   4   5 28.3662 8.32061   1
   9   4   5 287.624 15.0358  -2
   9   4   5 287.624 15.0358   1
  10   4   6 2897.83 127.578  -2
  10   4   5 2897.83 127.578   1
  11   4   7 73.2012 9.16924  -2
  11   4   5 73.2012 9.16924   1
  12   4   8 92.1069 12.1703  -2
  12   4   5 92.1069 12.1703   1
  13   4   9 583.627 21.9957  -2
  13   4   5 583.627 21.9957   1
  14   4  10 214.600 15.8785  -2
  14   4   5 214.600 15.8785   1
  15   4  11 75.5434 18.2172  -2
  15   4   5 75.5434 18.2172   1
  16   4  12 0.48030 50.2932  -2
  16   4   5 0.48030 50.2932   1
  17   4   5 86.5293 33.2368   1
  13  -5  15 54.6424 15.7006  -2
 -13   5   5 54.6424 15.7006   1
  12  -5  14 37.4744 16.4377  -2
 -12   5   5 37.4744 16.4377   1
  11  -5  13 886.541 29.1802  -2
 -11   5   5 886.541 29.1802   1
  10  -5  12 167.445 13.7228  -2
 -10   5   5 167.445 13.7228   1
   9  -5  11 7.57635 15.5040  -2
  -9   5   5 7.57635 15.5040   1
   8  -5  10 253.704 22.8147  -2
  -8   5   5 253.704 22.8147   1
   7  -5   9 67.4372 16.9072  -2
  -7   5   5 67.4372 16.9072   1
   6  -5   9 289.630 20.8772  -2
  -6   5   5 289.630 20.8772   1
   5  -5   8 833.207 52.0866  -2
  -5   5   5 833.207 52.0866   1
   4  -5   7 136.540 6.60421  -2
  -4   5   5 136.540 6.60421   1
   3  -5   6 133.221 5.07855  -2
  -3   5   5 133.221 5.07855   1
   2  -5   5 1474.94 52.2610  -2
  -2   5   5 1474.94 52.2610   1
   1  -5   4 75.6999 4.42193  -2
  -1   5   5 75.6999 4.42193   1
   0  -5   3 726.443 22.9163  -2
   0   5   5 726.443 22.9163   1
  -1  -5   2 1228.24 38.6330  -2
   1   5   5 1228.24 38.6330   1
  -2  -5   1 1035.78 32.6071  -2
   2   5   5 1035.78 32.6071   1
   3   5   0 38.4901 3.99819  -2
   3   5   5 38.4901 3.99819   1
   4   5   1 616.837 22.9761  -2
   4   5   5 616.837 22.9761   1
   5   5   2 841.935 37.9621  -2
   5   5   5 841.935 37.9621   1
   6   5   3 434.025 21.4088  -2
   6   5   5 434.025 21.4088   1
   7   5   4 225.762 22.2898  -2
   7   5   5 225.762 22.2898   1
   8   5   5 20.5472 3.70535   1
   9   5   5 2.05740 3.73081   1
  10   5   5 220.920 11.2215   1
  11   5   7 -35.838 26.4346  -2
  11   5   5 -35.838 26.4346   1
  12   5   8 203.487 16.1836  -2
  12   5   5 203.487 16.1836   1
  13   5   9 13.5851 12.5716  -2
  13   5   5 13.5851 12.5716   1
  14   5  10 195.253 14.8280  -2
  14   5   5 195.253 14.8280   1
  15   5  11 -3.0655 19.4994  -2
  15   5   5 -3.0655 19.4994   1
  16   5  12 29.9968 20.2195  -2
  16   5   5 29.9968 20.2195   1
  17   5  13 5.38180 26.1857  -2
  17   5   5 5.38180 26.1857   1
  13  -6  15 417.600 24.5637  -2
 -13   6   5 417.600 24.5637   1
  12  -6  14 6.93816 14.7841  -2
 -12   6   5 6.93816 14.7841   1
  11  -6  13 88.5393 14.0541  -2
 -11   6   5 88.5393 14.0541   1
  10  -6  12 679.890 22.4847  -2
 -10   6   5 679.890 22.4847   1
   9  -6  11 546.763 23.8393  -2
  -9   6   5 546.763 23.8393   1
   8  -6  10 329.812 13.7709  -2
  -8   6   5 329.812 13.7709   1
   7  -6   9 487.459 15.7113  -2
  -7   6   5 487.459 15.7113   1
   6  -6   8 386.770 11.6216  -2
  -6   6   5 386.770 11.6216   1
   5  -6   7 30.8881 3.97446  -2
  -5   6   5 30.8881 3.97446   1
   4  -6   6 483.228 18.8500  -2
  -4   6   5 483.228 18.8500   1
   3  -6   5 396.458 19.0506  -2
  -3   6   5 396.458 19.0506   1
   2  -6   4 795.386 48.8888  -2
  -2   6   5 795.386 48.8888   1
  -1   6   5 104.685 4.54144   1
   0   6   5 14.2099 1.49623   1
   1   6   5 1.23570 1.18957   1
  -2  -6   1 22.5494 9.63330  -2
   2   6   5 22.5494 9.63330   1
   3   6   0 137.973 10.6111  -2
   3   6   5 137.973 10.6111   1
   4   6   1 507.375 24.0094  -2
   4   6   5 507.375 24.0094   1
   5   6   2 234.251 8.11633  -2
   5   6   5 234.251 8.11633   1
   6   6   3 2419.36 75.8714  -2
   6   6   5 2419.36 75.8714   1
   7   6   4 109.524 7.14570  -2
   7   6   5 109.524 7.14570   1
   8   6   5 60.1439 5.74378  -2
   8   6   5 60.1439 5.74378   1
   9   6   6 341.577 13.3605  -2
   9   6   5 341.577 13.3605   1
  10   6   7 32.2727 10.5917  -2
  10   6   5 32.2727 10.5917   1
  11   6   8 -10.984 10.3422  -2
  11   6   5 -10.984 10.3422   1
  12   6   9 219.392 17.6250  -2
  12   6   5 219.392 17.6250   1
  13   6  10 219.393 20.0708  -2
  13   6   5 219.393 20.0708   1
  14   6  11 410.514 25.5908  -2
  14   6   5 410.514 25.5908   1
  15   6  12 117.284 32.6003  -2
  15   6   5 117.284 32.6003   1
  16   6  12 120.343 58.5459  -2
  16   6   5 120.343 58.5459   1
  13  -7  14 24.2895 26.4525  -2
 -13   7   5 24.2895 26.4525   1
  12  -7  13 31.4514 17.3789  -2
 -12   7   5 31.4514 17.3789   1
  11  -7  12 59.8932 14.1229  -2
 -11   7   5 59.8932 14.1229   1
  10  -7  11 33.2470 18.0075  -2
 -10   7   5 33.2470 18.0075   1
  -9   7   5 14.1649 4.13656   1
   8  -7  10 -9.8331 11.9921  -2
  -8   7   5 -9.8331 11.9921   1
   7  -7   9 4.41560 6.12128  -2
  -7   7   5 4.41560 6.12128   1
   6  -7   8 948.571 35.3738  -2
  -6   7   5 948.571 35.3738   1
   5  -7   7 224.584 10.2754  -2
  -5   7   5 224.584 10.2754   1
   4  -7   6 66.1362 5.77853  -2
  -4   7   5 66.1362 5.77853   1
   3  -7   5 583.668 18.8361  -2
  -3   7   5 583.668 18.8361   1
   2  -7   4 8.56394 3.12748  -2
  -2   7   5 8.56394 3.12748   1
   1  -7   3 505.066 18.8785  -2
  -1   7   5 505.066 18.8785   1
   0  -7   2 1072.82 47.3697  -2
   0   7   5 1072.82 47.3697   1
  -1  -7   1 -2.0159 5.60913  -2
   1   7   5 -2.0159 5.60913   1
   2   7   0 457.843 21.5517  -2
   2   7   5 457.843 21.5517   1
   3   7   1 632.909 30.6414  -2
   3   7   5 632.909 30.6414   1
   4   7   2 203.435 14.7777  -2
   4   7   5 203.435 14.7777   1
   5   7   3 7.62076 14.7079  -2
   5   7   5 7.62076 14.7079   1
   6   7   5 360.896 11.8820   1
   7   7   5 101.839 5.86367   1
   8   7   5 40.6518 17.4329  -2
   8   7   5 40.6518 17.4329   1
   9   7   6 3368.03 150.448  -2
   9   7   5 3368.03 150.448   1
  10   7   7 523.092 19.0612  -2
  10   7   5 523.092 19.0612   1
  11   7   8 20.1915 10.8021  -2
  11   7   5 20.1915 10.8021   1
  12   7   9 438.356 20.4848  -2
  12   7   5 438.356 20.4848   1
  13   7  10 411.622 23.5299  -2
  13   7   5 411.622 23.5299   1
  14   7  11 119.937 11.5322  -2
  14   7   5 119.937 11.5322   1
  15   7  12 98.6038 14.7773  -2
  15   7   5 98.6038 14.7773   1
  16   7  13 518.115 58.2538  -2
  16   7   5 518.115 58.2538   1
  12  -8  13 456.822 32.8658  -2
 -12   8   5 456.822 32.8658   1
  11  -8  12 230.272 11.4532  -2
 -11   8   5 230.272 11.4532   1
  10  -8  11 175.054 10.4322  -2
 -10   8   5 175.054 10.4322   1
   9  -8  10 162.586 8.06999  -2
  -9   8   5 162.586 8.06999   1
   8  -8   9 330.917 20.8183  -2
  -8   8   5 330.917 20.8183   1
   7  -8   8 65.8774 8.96178  -2
  -7   8   5 65.8774 8.96178   1
   6  -8   7 530.214 21.7367  -2
  -6   8   5 530.214 21.7367   1
   5  -8   6 205.341 18.5176  -2
  -5   8   5 205.341 18.5176   1
   4  -8   5 112.734 14.0270  -2
  -4   8   5 112.734 14.0270   1
  -3   8   5 1887.10 58.0718   1
  -2   8   5 36.0183 2.81186   1
   1  -8   3 389.660 26.1942  -2
  -1   8   5 389.660 26.1942   1
   0  -8   2 586.067 27.7729  -2
   0   8   5 586.067 27.7729   1
  -1  -8   1 746.751 33.7456  -2
   1   8   5 746.751 33.7456   1
   2   8   0 714.337 32.5704  -2
   2   8   5 714.337 32.5704   1
   3   8   1 35.0062 4.43185  -2
   3   8   5 35.0062 4.43185   1
   4   8   2 421.382 17.0712  -2
   4   8   5 421.382 17.0712   1
   5   8   3 1765.67 64.1455  -2
   5   8   5 1765.67 64.1455   1
   6   8   4 685.469 22.5415  -2
   6   8   5 685.469 22.5415   1
   7   8   5 -4.1871 6.31267  -2
   7   8   5 -4.1871 6.31267   1
   8   8   6 63.7494 7.49667  -2
   8   8   5 63.7494 7.49667   1
   9   8   7 776.233 53.7810  -2
   9   8   5 776.233 53.7810   1
  10   8   8 337.070 18.6866  -2
  10   8   5 337.070 18.6866   1
  11   8   9 -13.275 21.5865  -2
  11   8   5 -13.275 21.5865   1
  12   8   5 10.0725 5.77409   1
  13   8  10 548.420 56.0639  -2
  13   8   5 548.420 56.0639   1
  14   8  11 -24.938 27.8528  -2
  14   8   5 -24.938 27.8528   1
  15   8  12 4.63900 26.0780  -2
  15   8   5 4.63900 26.0780   1
 -12   9   5 149.041 13.8619   1
 -11   9   5 340.075 45.8508   1
  10  -9  11 -17.367 26.5477  -2
 -10   9   5 -17.367 26.5477   1
   9  -9  10 729.688 31.8992  -2
  -9   9   5 729.688 31.8992   1
   8  -9   9 1285.16 60.5237  -2
  -8   9   5 1285.16 60.5237   1
   7  -9   8 586.300 29.9243  -2
  -7   9   5 586.300 29.9243   1
   6  -9   7 14.0274 7.25248  -2
  -6   9   5 14.0274 7.25248   1
   5  -9   6 428.349 17.4098  -2
  -5   9   5 428.349 17.4098   1
   4  -9   5 271.652 14.5856  -2
  -4   9   5 271.652 14.5856   1
   3  -9   4 558.051 21.8977  -2
  -3   9   5 558.051 21.8977   1
   2  -9   3 103.040 5.18804  -2
  -2   9   5 103.040 5.18804   1
   1  -9   2 159.068 11.3535  -2
  -1   9   5 159.068 11.3535   1
   0  -9   1 151.371 11.4734  -2
   0   9   5 151.371 11.4734   1
   1   9   0 2666.56 115.798  -2
   1   9   5 2666.56 115.798   1
   2   9   5 1024.88 37.4723   1
   3   9   5 1.31171 2.58187   1
   4   9   5 1016.88 33.1107   1
   5   9   5 59.6269 5.07345   1
   6   9   4 507.827 39.9328  -2
   6   9   5 507.827 39.9328   1
   7   9   5 200.627 9.80552  -2
   7   9   5 200.627 9.80552   1
   8   9   6 355.601 14.8840  -2
   8   9   5 355.601 14.8840   1
   9   9   7 127.155 9.30572  -2
   9   9   5 127.155 9.30572   1
  10   9   8 459.121 16.9579  -2
  10   9   5 459.121 16.9579   1
  11   9   9 141.360 10.4698  -2
  11   9   5 141.360 10.4698   1
  12   9  10 32.8506 11.0460  -2
  12   9   5 32.8506 11.0460   1
  13   9  11 382.918 18.3801  -2
  13   9   5 382.918 18.3801   1
  14   9  12 582.201 26.9911  -2
  14   9   5 582.201 26.9911   1
  15   9  13 125.008 33.7015  -2
  15   9   5 125.008 33.7015   1
  12 -10  12 150.219 28.3548  -2
 -12  10   5 150.219 28.3548   1
  11 -10  11 283.039 24.5090  -2
 -11  10   5 283.039 24.5090   1
  10 -10  10 14.0958 12.8358  -2
 -10  10   5 14.0958 12.8358   1
   9 -10   9 115.131 19.4963  -2
  -9  10   5 115.131 19.4963   1
   8 -10   8 487.108 36.5389  -2
  -8  10   5 487.108 36.5389   1
   7 -10   7 1019.00 68.3204  -2
  -7  10   5 1019.00 68.3204   1
  -6  10   5 544.894 18.9880   1
   5 -10   6 295.562 24.9490  -2
  -5  10   5 295.562 24.9490   1
  -4  10   5 190.014 9.36897   1
   3 -10   4 340.125 18.5243  -2
  -3  10   5 340.125 18.5243   1
   2 -10   3 34.8776 6.09016  -2
  -2  10   5 34.8776 6.09016   1
   1 -10   2 325.730 23.7776  -2
  -1  10   5 325.730 23.7776   1
   0 -10   1 940.724 43.0478  -2
   0  10   5 940.724 43.0478   1
   1  10   0 322.643 17.0742  -2
   1  10   5 322.643 17.0742   1
   2  10   1 98.2326 6.47984  -2
   2  10   5 98.2326 6.47984   1
   3  10   2 162.678 10.5725  -2
   3  10   5 162.678 10.5725   1
   4  10   3 25.5663 11.1308  -2
   4  10   5 25.5663 11.1308   1
   5  10   4 755.067 25.9412  -2
   5  10   5 755.067 25.9412   1
   6  10   5 1429.24 65.6661  -2
   6  10   5 1429.24 65.6661   1
   7  10   6 114.685 15.6394  -2
   7  10   5 114.685 15.6394   1
   8  10   7 27.0086 13.2789  -2
   8  10   5 27.0086 13.2789   1
   9  10   8 127.876 28.7057  -2
   9  10   5 127.876 28.7057   1
  10  10   5 49.1627 6.17396   1
  11  10   9 254.320 34.3521  -2
  11  10   5 254.320 34.3521   1
  12  10  10 45.6304 17.3908  -2
  12  10   5 45.6304 17.3908   1
  13  10  11 164.539 19.2975  -2
  13  10   5 164.539 19.2975   1
  14  10  12 187.307 21.6349  -2
  14  10   5 187.307 21.6349   1
  11 -11  11 13.1573 23.8631  -2
 -11  11   5 13.1573 23.8631   1
  10 -11  10 5.80061 16.0349  -2
 -10  11   5 5.80061 16.0349   1
   9 -11   9 109.047 14.3490  -2
  -9  11   5 109.047 14.3490   1
   8 -11   8 39.4788 13.3450  -2
  -8  11   5 39.4788 13.3450   1
   7 -11   7 2.34883 9.00187  -2
  -7  11   5 2.34883 9.00187   1
   6 -11   6 400.251 23.0688  -2
  -6  11   5 400.251 23.0688   1
   5 -11   5 14.5567 7.16304  -2
  -5  11   5 14.5567 7.16304   1
   4 -11   4 190.853 10.5421  -2
  -4  11   5 190.853 10.5421   1
   3 -11   3 298.456 15.6106  -2
  -3  11   5 298.456 15.6106   1
   2 -11   2 843.582 54.2318  -2
  -2  11   5 843.582 54.2318   1
   1 -11   1 657.409 43.8733  -2
  -1  11   5 657.409 43.8733   1
   0  11   5 -2.9961 6.02833   1
   1  11   5 81.2600 5.03982   1
   2  11   5 239.494 10.6607   1
   3  11   2 41.5080 9.52645  -2
   3  11   5 41.5080 9.52645   1
   4  11   3 168.593 12.2547  -2
   4  11   5 168.593 12.2547   1
   5  11   4 97.8765 10.0703  -2
   5  11   5 97.8765 10.0703   1
   6  11   5 1609.08 51.8388  -2
   6  11   5 1609.08 51.8388   1
   7  11   6 163.191 12.9212  -2
   7  11   5 163.191 12.9212   1
   8  11   7 1101.27 52.8256  -2
   8  11   5 1101.27 52.8256   1
   9  11   8 87.9327 8.30193  -2
   9  11   5 87.9327 8.30193   1
  10  11   9 252.712 12.9783  -2
  10  11   5 252.712 12.9783   1
  11  11  10 622.436 22.8900  -2
  11  11   5 622.436 22.8900   1
  12  11  11 655.343 25.0598  -2
  12  11   5 655.343 25.0598   1
  13  11  12 108.865 23.4146  -2
  13  11   5 108.865 23.4146   1
  14  11   5 12.5762 9.27668   1
  10 -12   9 114.051 22.1617  -2
 -10  12   5 114.051 22.1617   1
   9 -12   8 193.854 29.8118  -2
  -9  12   5 193.854 29.8118   1
  -8  12   5 49.1339 6.32710   1
   7 -12   7 -7.3406 22.3426  -2
  -7  12   5 -7.3406 22.3426   1
  -6  12   5 259.227 27.7348   1
   5 -12   5 60.5089 13.5490  -2
  -5  12   5 60.5089 13.5490   1
   4 -12   4 52.6428 11.5285  -2
  -4  12   5 52.6428 11.5285   1
   3 -12   3 10.8302 6.16487  -2
  -3  12   5 10.8302 6.16487   1
   2 -12   2 427.156 17.2688  -2
  -2  12   5 427.156 17.2688   1
   1 -12   1 926.623 42.7815  -2
  -1  12   5 926.623 42.7815   1
   0  12   0 1274.72 57.4379  -2
   0  12   5 1274.72 57.4379   1
   1  12   1 233.755 9.64806  -2
   1  12   5 233.755 9.64806   1
   2  12   2 244.932 10.6017  -2
   2  12   5 244.932 10.6017   1
   3  12   3 658.558 26.0476  -2
   3  12   5 658.558 26.0476   1
   4  12   4 273.268 18.5333  -2
   4  12   5 273.268 18.5333   1
   5  12   5 31.7661 23.4504  -2
   5  12   5 31.7661 23.4504   1
   6  12   6 332.960 22.1196  -2
   6  12   5 332.960 22.1196   1
   7  12   5 65.3368 7.82278   1
   8  12   5 -6.4085 6.76186   1
   9  12   8 390.493 40.0108  -2
   9  12   5 390.493 40.0108   1
  10  12   9 108.181 12.7706  -2
  10  12   5 108.181 12.7706   1
  11  12  10 103.094 13.3669  -2
  11  12   5 103.094 13.3669   1
  12  12  11 164.039 21.1744  -2
  12  12   5 164.039 21.1744   1
  13  12  12 116.313 38.9643  -2
  13  12   5 116.313 38.9643   1
  10 -13   9 145.945 13.7123  -2
 -10  13   5 145.945 13.7123   1
   9 -13   8 143.047 14.9386  -2
  -9  13   5 143.047 14.9386   1
   8 -13   7 376.077 19.5832  -2
  -8  13   5 376.077 19.5832   1
   7 -13   6 226.491 21.1460  -2
  -7  13   5 226.491 21.1460   1
   6 -13   5 704.769 51.2308  -2
  -6  13   5 704.769 51.2308   1
  -5  13   5 80.9312 14.2694   1
   4 -13   3 230.737 25.9750  -2
  -4  13   5 230.737 25.9750   1
   3 -13   2 227.880 25.8137  -2
  -3  13   5 227.880 25.8137   1
  -2  13   5 295.991 11.4211   1
  -1  13   5 413.815 14.5845   1
   0  13   0 157.564 17.0135  -2
   0  13   5 157.564 17.0135   1
   1  13   1 173.570 8.89334  -2
   1  13   5 173.570 8.89334   1
   2  13   2 954.123 31.1295  -2
   2  13   5 954.123 31.1295   1
   3  13   3 1585.46 59.0300  -2
   3  13   5 1585.46 59.0300   1
   4  13   4 96.9159 8.84371  -2
   4  13   5 96.9159 8.84371   1
   5  13   5 593.294 25.7172  -2
   5  13   5 593.294 25.7172   1
   6  13   6 674.241 24.5434  -2
   6  13   5 674.241 24.5434   1
   7  13   7 132.982 24.8393  -2
   7  13   5 132.982 24.8393   1
   8  13   8 140.717 19.0499  -2
   8  13   5 140.717 19.0499   1
   9  13   9 48.9453 17.2112  -2
   9  13   5 48.9453 17.2112   1
  10  13  10 47.9359 20.2708  -2
  10  13   5 47.9359 20.2708   1
  11  13  11 113.806 29.4685  -2
  11  13   5 113.806 29.4685   1
  12  13   5 187.948 25.3817   1
  -9  14   5 27.3995 11.0748   1
   8 -14   7 64.6326 27.6785  -2
  -8  14   5 64.6326 27.6785   1
   7 -14   6 125.396 15.8857  -2
  -7  14   5 125.396 15.8857   1
   6 -14   5 358.452 18.5746  -2
  -6  14   5 358.452 18.5746   1
   5 -14   4 113.425 17.2978  -2
  -5  14   5 113.425 17.2978   1
   4 -14   3 334.251 13.7045  -2
  -4  14   5 334.251 13.7045   1
   3 -14   2 472.475 24.7311  -2
  -3  14   5 472.475 24.7311   1
   2 -14   1 30.1622 5.76634  -2
  -2  14   5 30.1622 5.76634   1
  -1  14   0 507.931 20.2933  -2
  -1  14   5 507.931 20.2933   1
   0  14   1 203.039 10.7793  -2
   0  14   5 203.039 10.7793   1
   1  14   2 196.253 10.3548  -2
   1  14   5 196.253 10.3548   1
   2  14   3 21.6414 11.2100  -2
   2  14   5 21.6414 11.2100   1
   3  14   4 584.567 44.9694  -2
   3  14   5 584.567 44.9694   1
   4  14   5 8.79130 5.02467   1
   5  14   5 360.742 16.5381   1
   6  14   6 572.448 27.2389  -2
   6  14   5 572.448 27.2389   1
   7  14   7 223.433 23.1674  -2
   7  14   5 223.433 23.1674   1
   8  14   8 75.2635 22.8535  -2
   8  14   5 75.2635 22.8535   1
   9  14   9 171.772 26.2084  -2
   9  14   5 171.772 26.2084   1
  10  14  10 45.0997 20.4369  -2
  10  14   5 45.0997 20.4369   1
  11  14  11 95.2073 25.2910  -2
  11  14   5 95.2073 25.2910   1
   8 -15   6 236.160 33.1607  -2
  -8  15   5 236.160 33.1607   1
   7 -15   5 66.1670 28.4050  -2
  -7  15   5 66.1670 28.4050   1
   6 -15   4 327.298 34.7649  -2
  -6  15   5 327.298 34.7649   1
   5 -15   3 12.8925 27.1252  -2
  -5  15   5 12.8925 27.1252   1
  -4  15   5 6.44077 4.31361   1
   3 -15   2 274.332 24.2151  -2
  -3  15   5 274.332 24.2151   1
   2 -15   1 372.911 15.2066  -2
  -2  15   5 372.911 15.2066   1
  -1  15   0 185.262 9.64227  -2
  -1  15   5 185.262 9.64227   1
   0  15   1 100.162 7.96447  -2
   0  15   5 100.162 7.96447   1
   1  15   2 30.3475 7.01621  -2
   1  15   5 30.3475 7.01621   1
   2  15   3 22.4657 7.23279  -2
   2  15   5 22.4657 7.23279   1
   3  15   4 -1.3871 7.56983  -2
   3  15   5 -1.3871 7.56983   1
   4  15   5 138.553 9.75917  -2
   4  15   5 138.553 9.75917   1
   5  15   6 49.6706 11.3512  -2
   5  15   5 49.6706 11.3512   1
   6  15   7 740.328 38.1615  -2
   6  15   5 740.328 38.1615   1
   7  15   8 492.659 33.1498  -2
   7  15   5 492.659 33.1498   1
   8  15   9 -43.070 36.0383  -2
   8  15   5 -43.070 36.0383   1
   9  15  10 237.817 47.2402  -2
   9  15   5 237.817 47.2402   1
  10  15   5 181.101 16.8183   1
   6 -16   4 68.3892 15.1608  -2
  -6  16   5 68.3892 15.1608   1
   5 -16   3 -2.4445 13.2889  -2
  -5  16   5 -2.4445 13.2889   1
   4 -16   2 72.0284 10.2074  -2
  -4  16   5 72.0284 10.2074   1
   3 -16   1 345.660 14.9035  -2
  -3  16   5 345.660 14.9035   1
  -2  16   0 237.851 12.0331  -2
  -2  16   5 237.851 12.0331   1
  -1  16   1 514.465 20.0247  -2
  -1  16   5 514.465 20.0247   1
   0  16   2 145.618 15.2452  -2
   0  16   5 145.618 15.2452   1
   1  16   5 4.61250 4.18546   1
   2  16   5 1888.00 60.5124   1
   3  16   4 50.2598 13.8364  -2
   3  16   5 50.2598 13.8364   1
   4  16   5 88.1712 14.9945  -2
   4  16   5 88.1712 14.9945   1
   5  16   6 448.146 30.0079  -2
   5  16   5 448.146 30.0079   1
   6  16   7 191.326 33.5940  -2
   6  16   5 191.326 33.5940   1
   7  16   8 181.614 22.8434  -2
   7  16   5 181.614 22.8434   1
   8  16   9 10.1890 28.6943  -2
   8  16   5 10.1890 28.6943   1
   4 -17   2 314.543 35.6106  -2
  -4  17   5 314.543 35.6106   1
   3 -17   1 123.493 27.0449  -2
  -3  17   5 123.493 27.0449   1
  -2  17   0 408.819 36.0301  -2
  -2  17   5 408.819 36.0301   1
  -1  17   1 37.7655 10.2637  -2
  -1  17   5 37.7655 10.2637   1
   0  17   2 116.939 12.0586  -2
   0  17   5 116.939 12.0586   1
   1  17   3 248.110 14.0491  -2
   1  17   5 248.110 14.0491   1
   2  17   4 119.873 15.9564  -2
   2  17   5 119.873 15.9564   1
   3  17   5 25.0488 13.1766  -2
   3  17   5 25.0488 13.1766   1
   4  17   6 274.068 22.3173  -2
   4  17   5 274.068 22.3173   1
   5  17   7 449.686 32.7688  -2
   5  17   5 449.686 32.7688   1
   6  17   8 648.292 37.0998  -2
   6  17   5 648.292 37.0998   1
  -1  18   5 66.8632 15.4054   1
   0  18   5 -2.3168 14.7315   1
   1  18   3 158.888 31.8589  -2
   1  18   5 158.888 31.8589   1
   2  18   4 126.152 31.4847  -2
   2  18   5 126.152 31.4847   1
   0  15  12 -18.257 34.0653  -2
   0 -15   6 -18.257 34.0653   1
  -1  15  11 181.745 21.7565  -2
   1 -15   6 181.745 21.7565   1
  -2  15  10 119.488 21.0132  -2
   2 -15   6 119.488 21.0132   1
  -3  15   9 435.369 27.4837  -2
   3 -15   6 435.369 27.4837   1
   4 -15   6 -3.8113 9.43399   1
   5 -15   6 247.161 16.8873   1
  -6  15   7 62.1581 27.9807  -2
   6 -15   6 62.1581 27.9807   1
  -7  15   6 116.271 37.3844  -2
   7 -15   6 116.271 37.3844   1
  -8  15   5 96.1486 40.2609  -2
   8 -15   6 96.1486 40.2609   1
  -3 -14   6 0.12935 8.61475   1
   2  14  14 62.2368 29.1040  -2
  -2 -14   6 62.2368 29.1040   1
   1  14  13 57.0953 26.5487  -2
  -1 -14   6 57.0953 26.5487   1
   0  14  12 54.7553 14.5154  -2
   0 -14   6 54.7553 14.5154   1
  -1  14  11 48.5613 10.6977  -2
   1 -14   6 48.5613 10.6977   1
  -2  14  10 -6.7904 10.7687  -2
   2 -14   6 -6.7904 10.7687   1
  -3  14   9 79.2001 8.88068  -2
   3 -14   6 79.2001 8.88068   1
  -4  14   8 102.457 9.72517  -2
   4 -14   6 102.457 9.72517   1
  -5  14   7 30.5129 12.7472  -2
   5 -14   6 30.5129 12.7472   1
  -6  14   6 53.3658 16.1384  -2
   6 -14   6 53.3658 16.1384   1
  -7  14   5 144.823 21.4157  -2
   7 -14   6 144.823 21.4157   1
  -8  14   4 23.5254 28.0586  -2
   8 -14   6 23.5254 28.0586   1
  -9  14   3 255.844 22.2774  -2
   9 -14   6 255.844 22.2774   1
 -10  14   2 133.841 40.2357  -2
  10 -14   6 133.841 40.2357   1
   4  13  15 74.6381 18.3679  -2
  -4 -13   6 74.6381 18.3679   1
   3  13  14 90.4022 15.5694  -2
  -3 -13   6 90.4022 15.5694   1
   2  13  13 158.927 14.0324  -2
  -2 -13   6 158.927 14.0324   1
   1  13  12 575.202 22.9992  -2
  -1 -13   6 575.202 22.9992   1
   0  13  11 303.251 18.0031  -2
   0 -13   6 303.251 18.0031   1
  -1  13  10 379.828 28.3536  -2
   1 -13   6 379.828 28.3536   1
   2 -13   6 277.022 11.1265   1
  -3  13   9 -26.200 31.5164  -2
   3 -13   6 -26.200 31.5164   1
  -4  13   8 256.833 15.3815  -2
   4 -13   6 256.833 15.3815   1
  -5  13   7 309.001 15.1128  -2
   5 -13   6 309.001 15.1128   1
  -6  13   6 37.2387 11.5437  -2
   6 -13   6 37.2387 11.5437   1
  -7  13   5 181.387 13.6531  -2
   7 -13   6 181.387 13.6531   1
  -8  13   4 67.5217 9.09899  -2
   8 -13   6 67.5217 9.09899   1
  -9  13   3 271.365 18.2014  -2
   9 -13   6 271.365 18.2014   1
 -10  13   2 415.957 18.4754  -2
  10 -13   6 415.957 18.4754   1
 -11  13   1 123.607 16.6970  -2
  11 -13   6 123.607 16.6970   1
 -12  13   0 198.575 35.6011  -2
  12 -13   6 198.575 35.6011   1
  -6 -12   6 55.2799 8.93201   1
   5  12  16 98.9284 32.0135  -2
  -5 -12   6 98.9284 32.0135   1
   4  12  15 276.496 20.2720  -2
  -4 -12   6 276.496 20.2720   1
   3  12  14 643.884 24.0733  -2
  -3 -12   6 643.884 24.0733   1
   2  12  13 166.046 14.6166  -2
  -2 -12   6 166.046 14.6166   1
   1  12  12 142.495 10.8660  -2
  -1 -12   6 142.495 10.8660   1
   0  12  11 18.6879 9.40486  -2
   0 -12   6 18.6879 9.40486   1
  -1  12  10 105.032 8.58056  -2
   1 -12   6 105.032 8.58056   1
  -2  12   9 152.833 11.0076  -2
   2 -12   6 152.833 11.0076   1
  -3  12   8 170.746 10.3102  -2
   3 -12   6 170.746 10.3102   1
  -4  12   7 63.8016 9.18792  -2
   4 -12   6 63.8016 9.18792   1
  -5  12   6 406.653 16.0614  -2
   5 -12   6 406.653 16.0614   1
  -6  12   5 329.733 16.6527  -2
   6 -12   6 329.733 16.6527   1
  -7  12   4 356.659 26.8822  -2
   7 -12   6 356.659 26.8822   1
  -8  12   3 103.024 31.9956  -2
   8 -12   6 103.024 31.9956   1
  -9  12   3 37.1671 22.8572  -2
   9 -12   6 37.1671 22.8572   1
 -10  12   2 493.938 25.7142  -2
  10 -12   6 493.938 25.7142   1
 -11  12   1 232.275 14.7530  -2
  11 -12   6 232.275 14.7530   1
 -12  12   0 155.284 17.7141  -2
  12 -12   6 155.284 17.7141   1
   7  11  17 121.559 28.1037  -2
  -7 -11   6 121.559 28.1037   1
   6  11  16 92.7213 19.8920  -2
  -6 -11   6 92.7213 19.8920   1
   5  11  15 63.6698 25.9972  -2
  -5 -11   6 63.6698 25.9972   1
   4  11  14 117.428 26.4273  -2
  -4 -11   6 117.428 26.4273   1
   3  11  13 147.018 14.4069  -2
  -3 -11   6 147.018 14.4069   1
   2  11  12 167.228 23.0579  -2
  -2 -11   6 167.228 23.0579   1
  -1 -11   6 0.44832 4.48096   1
   0 -11   6 49.7555 6.41694   1
  -1  11  10 241.645 14.1693  -2
   1 -11   6 241.645 14.1693   1
  -2  11   9 112.504 10.3515  -2
   2 -11   6 112.504 10.3515   1
  -3  11   8 586.962 18.5091  -2
   3 -11   6 586.962 18.5091   1
  -4  11   7 -0.6026 8.50898  -2
   4 -11   6 -0.6026 8.50898   1
  -5  11   6 72.2357 8.99577  -2
   5 -11   6 72.2357 8.99577   1
  -6  11   5 315.282 14.3454  -2
   6 -11   6 315.282 14.3454   1
  -7  11   4 74.9479 6.50068  -2
   7 -11   6 74.9479 6.50068   1
  -8  11   3 199.125 10.7214  -2
   8 -11   6 199.125 10.7214   1
  -9  11   2 19.3009 9.38316  -2
   9 -11   6 19.3009 9.38316   1
 -10  11   1 77.9223 10.6850  -2
  10 -11   6 77.9223 10.6850   1
 -11  11   0 106.260 13.0798  -2
  11 -11   6 106.260 13.0798   1
  12 -11   1 189.091 18.1313  -2
  12 -11   6 189.091 18.1313   1
  13 -11   2 425.315 27.0874  -2
  13 -11   6 425.315 27.0874   1
  -8 -10   6 43.1777 18.5718   1
   7  10  17 265.077 35.1593  -2
  -7 -10   6 265.077 35.1593   1
   6  10  16 238.270 28.9872  -2
  -6 -10   6 238.270 28.9872   1
   5  10  15 414.854 21.9283  -2
  -5 -10   6 414.854 21.9283   1
   4  10  14 351.130 18.9005  -2
  -4 -10   6 351.130 18.9005   1
   3  10  13 65.6412 11.4234  -2
  -3 -10   6 65.6412 11.4234   1
   2  10  12 458.092 16.8443  -2
  -2 -10   6 458.092 16.8443   1
   1  10  11 265.233 12.3395  -2
  -1 -10   6 265.233 12.3395   1
   0  10  10 170.575 11.0178  -2
   0 -10   6 170.575 11.0178   1
  -1  10   9 481.048 17.1853  -2
   1 -10   6 481.048 17.1853   1
  -2  10   8 154.525 10.5505  -2
   2 -10   6 154.525 10.5505   1
  -3  10   7 1149.58 34.6228  -2
   3 -10   6 1149.58 34.6228   1
  -4  10   6 55.4604 16.3219  -2
   4 -10   6 55.4604 16.3219   1
   5 -10   6 240.498 9.35282   1
   6 -10   6 122.541 6.77282   1
   7 -10   6 1128.97 33.1454   1
  -8  10   3 885.763 30.8122  -2
   8 -10   6 885.763 30.8122   1
  -9  10   2 69.9315 10.8763  -2
   9 -10   6 69.9315 10.8763   1
 -10  10   1 70.4711 12.9831  -2
  10 -10   6 70.4711 12.9831   1
 -11  10   0 157.653 12.7752  -2
  11 -10   6 157.653 12.7752   1
  12 -10   1 607.959 19.9926  -2
  12 -10   6 607.959 19.9926   1
  13 -10   2 23.5621 11.0117  -2
  13 -10   6 23.5621 11.0117   1
  14 -10   3 3.68760 13.9083  -2
  14 -10   6 3.68760 13.9083   1
  15 -10   4 720.987 43.8444  -2
  15 -10   6 720.987 43.8444   1
   9   9  18 89.0716 25.1828  -2
  -9  -9   6 89.0716 25.1828   1
   8   9  17 147.787 22.6027  -2
  -8  -9   6 147.787 22.6027   1
   7   9  16 21.2410 17.5309  -2
  -7  -9   6 21.2410 17.5309   1
   6   9  15 118.412 18.7535  -2
  -6  -9   6 118.412 18.7535   1
   5   9  14 1110.61 40.5127  -2
  -5  -9   6 1110.61 40.5127   1
  -4  -9   6 7.11789 5.43051   1
  -3  -9   6 37.2263 5.46104   1
   2   9  12 422.966 25.1229  -2
  -2  -9   6 422.966 25.1229   1
   1   9  11 470.867 16.1533  -2
  -1  -9   6 470.867 16.1533   1
   0   9  10 794.463 33.1639  -2
   0  -9   6 794.463 33.1639   1
  -1   9   9 194.622 13.2488  -2
   1  -9   6 194.622 13.2488   1
  -2   9   8 435.813 17.7806  -2
   2  -9   6 435.813 17.7806   1
  -3   9   7 105.138 9.33217  -2
   3  -9   6 105.138 9.33217   1
  -4   9   6 2590.43 94.7133  -2
   4  -9   6 2590.43 94.7133   1
  -5   9   5 413.879 16.3924  -2
   5  -9   6 413.879 16.3924   1
  -6   9   4 94.6957 7.18943  -2
   6  -9   6 94.6957 7.18943   1
  -7   9   3 735.315 21.0007  -2
   7  -9   6 735.315 21.0007   1
  -8   9   2 82.7432 10.4599  -2
   8  -9   6 82.7432 10.4599   1
  -9   9   1 196.169 13.1973  -2
   9  -9   6 196.169 13.1973   1
 -10   9   0 69.0423 14.6699  -2
  10  -9   6 69.0423 14.6699   1
  11  -9   1 14.4761 16.3581  -2
  11  -9   6 14.4761 16.3581   1
  12  -9   6 620.846 19.3718   1
  13  -9   6 11.9693 6.40954   1
  14  -9   3 39.4833 22.5182  -2
  14  -9   6 39.4833 22.5182   1
  15  -9   4 73.7315 22.2253  -2
  15  -9   6 73.7315 22.2253   1
   9   8  18 20.5305 21.9842  -2
  -9  -8   6 20.5305 21.9842   1
   8   8  17 48.1494 16.7602  -2
  -8  -8   6 48.1494 16.7602   1
   7   8  16 0.04573 13.4217  -2
  -7  -8   6 0.04573 13.4217   1
   6   8  15 257.983 17.0645  -2
  -6  -8   6 257.983 17.0645   1
   5   8  14 336.945 17.0218  -2
  -5  -8   6 336.945 17.0218   1
   4   8  13 226.297 15.2066  -2
  -4  -8   6 226.297 15.2066   1
   3   8  12 87.6091 12.0465  -2
  -3  -8   6 87.6091 12.0465   1
   2   8  11 291.908 17.6429  -2
  -2  -8   6 291.908 17.6429   1
   1   8  10 1983.47 56.5397  -2
  -1  -8   6 1983.47 56.5397   1
   0   8   9 398.461 14.6981  -2
   0  -8   6 398.461 14.6981   1
  -1   8   8 718.938 24.8867  -2
   1  -8   6 718.938 24.8867   1
   2  -8   6 565.863 16.4210   1
   3  -8   6 3.09272 3.29089   1
   4  -8   6 427.188 13.0753   1
  -5   8   5 231.747 12.1640  -2
   5  -8   6 231.747 12.1640   1
  -6   8   4 230.167 10.7018  -2
   6  -8   6 230.167 10.7018   1
  -7   8   3 101.657 9.81563  -2
   7  -8   6 101.657 9.81563   1
  -8   8   2 1910.20 49.7462  -2
   8  -8   6 1910.20 49.7462   1
  -9   8   1 401.253 16.5634  -2
   9  -8   6 401.253 16.5634   1
 -10   8   0 -13.082 8.44997  -2
  10  -8   6 -13.082 8.44997   1
  11  -8   1 517.043 16.7095  -2
  11  -8   6 517.043 16.7095   1
  12  -8   2 229.619 11.6468  -2
  12  -8   6 229.619 11.6468   1
  13  -8   3 323.107 15.6395  -2
  13  -8   6 323.107 15.6395   1
  14  -8   4 10.5809 15.9088  -2
  14  -8   6 10.5809 15.9088   1
  15  -8   5 10.0882 18.4756  -2
  15  -8   6 10.0882 18.4756   1
  16  -8   6 49.9012 51.5846  -2
  16  -8   6 49.9012 51.5846   1
  10   7  18 24.8042 27.3572  -2
 -10  -7   6 24.8042 27.3572   1
   9   7  17 84.7789 21.0398  -2
  -9  -7   6 84.7789 21.0398   1
   8   7  16 277.007 18.5513  -2
  -8  -7   6 277.007 18.5513   1
   7   7  15 164.256 41.8589  -2
  -7  -7   6 164.256 41.8589   1
  -6  -7   6 60.4234 6.75784   1
   5   7  14 57.8263 35.1174  -2
  -5  -7   6 57.8263 35.1174   1
   4   7  13 299.058 21.5496  -2
  -4  -7   6 299.058 21.5496   1
   3   7  12 159.816 16.8614  -2
  -3  -7   6 159.816 16.8614   1
   2   7  11 262.632 13.8849  -2
  -2  -7   6 262.632 13.8849   1
   1   7  10 99.4070 8.01320  -2
  -1  -7   6 99.4070 8.01320   1
   0   7   9 334.620 13.6729  -2
   0  -7   6 334.620 13.6729   1
  -1   7   8 81.6930 5.71845  -2
   1  -7   6 81.6930 5.71845   1
  -2   7   7 49.5906 5.21640  -2
   2  -7   6 49.5906 5.21640   1
  -3   7   6 111.386 6.77742  -2
   3  -7   6 111.386 6.77742   1
  -4   7   5 75.5343 6.91927  -2
   4  -7   6 75.5343 6.91927   1
  -5   7   4 119.898 8.17585  -2
   5  -7   6 119.898 8.17585   1
  -6   7   3 285.756 13.5335  -2
   6  -7   6 285.756 13.5335   1
  -7   7   2 32.7185 8.81623  -2
   7  -7   6 32.7185 8.81623   1
  -8   7   1 35.3305 13.9232  -2
   8  -7   6 35.3305 13.9232   1
   9  -7   6 204.281 9.79588   1
  10  -7   6 21.0248 5.06805   1
  11  -7   1 303.681 23.8234  -2
  11  -7   6 303.681 23.8234   1
  12  -7   2 119.739 14.2310  -2
  12  -7   6 119.739 14.2310   1
  13  -7   3 187.420 13.2967  -2
  13  -7   6 187.420 13.2967   1
  14  -7   4 84.8292 13.4393  -2
  14  -7   6 84.8292 13.4393   1
  15  -7   5 92.2918 19.9653  -2
  15  -7   6 92.2918 19.9653   1
  16  -7   6 161.690 17.3032  -2
  16  -7   6 161.690 17.3032   1
  10   6  18 187.180 22.0148  -2
 -10  -6   6 187.180 22.0148   1
   9   6  17 101.690 17.5455  -2
  -9  -6   6 101.690 17.5455   1
   8   6  16 40.2302 11.5581  -2
  -8  -6   6 40.2302 11.5581   1
   7   6  15 30.6755 10.0376  -2
  -7  -6   6 30.6755 10.0376   1
   6   6  14 460.099 17.7628  -2
  -6  -6   6 460.099 17.7628   1
   5   6  13 116.761 10.5919  -2
  -5  -6   6 116.761 10.5919   1
   4   6  12 158.129 12.0018  -2
  -4  -6   6 158.129 12.0018   1
   3   6  11 120.333 11.5985  -2
  -3  -6   6 120.333 11.5985   1
   2   6  10 455.096 20.6057  -2
  -2  -6   6 455.096 20.6057   1
  -1  -6   6 8.10772 3.40756   1
   0  -6   6 156.850 6.55370   1
   1  -6   6 3.51529 2.88369   1
   2  -6   6 127.462 5.77808   1
  -3   6   6 664.352 22.7286  -2
   3  -6   6 664.352 22.7286   1
  -4   6   5 610.480 18.7336  -2
   4  -6   6 610.480 18.7336   1
  -5   6   4 621.166 17.6286  -2
   5  -6   6 621.166 17.6286   1
  -6   6   3 561.979 16.1606  -2
   6  -6   6 561.979 16.1606   1
  -7   6   2 154.181 8.74386  -2
   7  -6   6 154.181 8.74386   1
  -8   6   1 305.185 11.4257  -2
   8  -6   6 305.185 11.4257   1
  -9   6   0 4.72061 6.63765  -2
   9  -6   6 4.72061 6.63765   1
  10  -6   1 403.088 24.0309  -2
  10  -6   6 403.088 24.0309   1
  11  -6   2 130.985 10.7324  -2
  11  -6   6 130.985 10.7324   1
  12  -6   3 209.731 12.5515  -2
  12  -6   6 209.731 12.5515   1
  13  -6   4 248.227 15.4200  -2
  13  -6   6 248.227 15.4200   1
  14  -6   5 186.910 17.8648  -2
  14  -6   6 186.910 17.8648   1
  15  -6   6 444.770 53.9377  -2
  15  -6   6 444.770 53.9377   1
  16  -6   6 3.55891 9.28340   1
  17  -6   7 292.909 52.4703  -2
  17  -6   6 292.909 52.4703   1
  11   5  18 22.3185 25.8573  -2
 -11  -5   6 22.3185 25.8573   1
 -10  -5   6 -6.7527 9.95291   1
  -9  -5   6 38.8159 7.10004   1
  -8  -5   6 99.7197 9.24761   1
   7   5  15 -17.751 13.6382  -2
  -7  -5   6 -17.751 13.6382   1
   6   5  14 8.62384 11.5560  -2
  -6  -5   6 8.62384 11.5560   1
   5   5  13 186.405 12.8832  -2
  -5  -5   6 186.405 12.8832   1
   4   5  12 486.354 19.1847  -2
  -4  -5   6 486.354 19.1847   1
   3   5  11 295.380 13.6436  -2
  -3  -5   6 295.380 13.6436   1
   2   5  10 4015.08 125.328  -2
  -2  -5   6 4015.08 125.328   1
   1   5   9 423.263 13.8824  -2
  -1  -5   6 423.263 13.8824   1
   0   5   8 385.942 14.3737  -2
   0  -5   6 385.942 14.3737   1
  -1   5   7 1567.02 40.5641  -2
   1  -5   6 1567.02 40.5641   1
  -2   5   6 1568.55 44.5922  -2
   2  -5   6 1568.55 44.5922   1
  -3   5   5 148.898 8.18196  -2
   3  -5   6 148.898 8.18196   1
  -4   5   4 136.196 8.02984  -2
   4  -5   6 136.196 8.02984   1
  -5   5   3 302.288 23.5377  -2
   5  -5   6 302.288 23.5377   1
   6  -5   6 803.571 21.5957   1
   7  -5   6 2572.52 65.5276   1
  -8   5   1 180.685 22.4971  -2
   8  -5   6 180.685 22.4971   1
  -9   5   0 932.690 35.7074  -2
   9  -5   6 932.690 35.7074   1
  10  -5   1 742.885 37.5603  -2
  10  -5   6 742.885 37.5603   1
  11  -5   2 91.5124 10.1439  -2
  11  -5   6 91.5124 10.1439   1
  12  -5   3 38.1237 9.82054  -2
  12  -5   6 38.1237 9.82054   1
  13  -5   4 205.228 11.7182  -2
  13  -5   6 205.228 11.7182   1
  14  -5   5 592.172 21.0081  -2
  14  -5   6 592.172 21.0081   1
  15  -5   6 40.1393 8.45714  -2
  15  -5   6 40.1393 8.45714   1
  16  -5   7 220.600 17.5532  -2
  16  -5   6 220.600 17.5532   1
  17  -5   8 223.863 52.5869  -2
  17  -5   6 223.863 52.5869   1
  11   4  18 148.351 16.8106  -2
 -11  -4   6 148.351 16.8106   1
  10   4  17 157.468 19.6871  -2
 -10  -4   6 157.468 19.6871   1
   9   4  16 163.587 11.9496  -2
  -9  -4   6 163.587 11.9496   1
   8   4  15 54.8825 11.3917  -2
  -8  -4   6 54.8825 11.3917   1
   7   4  14 57.5805 11.1131  -2
  -7  -4   6 57.5805 11.1131   1
   6   4  13 33.1736 10.3762  -2
  -6  -4   6 33.1736 10.3762   1
   5   4  12 16.1299 11.2925  -2
  -5  -4   6 16.1299 11.2925   1
   4   4  11 475.738 44.0549  -2
  -4  -4   6 475.738 44.0549   1
  -3  -4   6 12.7966 3.67696   1
  -2  -4   6 55.8520 4.62074   1
  -1  -4   6 209.272 7.57310   1
   0   4   8 257.562 9.72636  -2
   0  -4   6 257.562 9.72636   1
  -1   4   7 637.046 17.6895  -2
   1  -4   6 637.046 17.6895   1
  -2   4   6 968.743 28.2788  -2
   2  -4   6 968.743 28.2788   1
  -3   4   5 778.493 20.7757  -2
   3  -4   6 778.493 20.7757   1
  -4   4   4 10.6148 3.84389  -2
   4  -4   6 10.6148 3.84389   1
  -5   4   3 393.156 11.4512  -2
   5  -4   6 393.156 11.4512   1
  -6   4   2 293.379 9.47277  -2
   6  -4   6 293.379 9.47277   1
  -7   4   1 92.0191 5.98187  -2
   7  -4   6 92.0191 5.98187   1
  -8   4   0 132.413 7.54566  -2
   8  -4   6 132.413 7.54566   1
   9  -4   1 217.610 17.9743  -2
   9  -4   6 217.610 17.9743   1
  10  -4   2 25.0197 11.3354  -2
  10  -4   6 25.0197 11.3354   1
  11  -4   3 378.285 36.1969  -2
  11  -4   6 378.285 36.1969   1
  12  -4   4 232.626 32.5653  -2
  12  -4   6 232.626 32.5653   1
  13  -4   6 3.90543 4.98571   1
  14  -4   6 27.5823 5.95284   1
  15  -4   6 465.149 32.0474  -2
  15  -4   6 465.149 32.0474   1
  16  -4   7 0.08108 22.9156  -2
  16  -4   6 0.08108 22.9156   1
  17  -4   8 56.4373 31.8588  -2
  17  -4   6 56.4373 31.8588   1
 -12  -3   6 250.773 21.8040   1
 -11  -3   6 177.742 13.3212   1
  10   3  17 -9.5993 20.2108  -2
 -10  -3   6 -9.5993 20.2108   1
   9   3  16 500.760 24.6089  -2
  -9  -3   6 500.760 24.6089   1
   8   3  15 50.6858 12.2777  -2
  -8  -3   6 50.6858 12.2777   1
   7   3  14 168.483 12.0266  -2
  -7  -3   6 168.483 12.0266   1
   6   3  13 743.099 30.2670  -2
  -6  -3   6 743.099 30.2670   1
   5   3  12 579.253 25.4157  -2
  -5  -3   6 579.253 25.4157   1
   4   3  11 715.001 28.2894  -2
  -4  -3   6 715.001 28.2894   1
   3   3  10 88.3244 6.88162  -2
  -3  -3   6 88.3244 6.88162   1
   2   3   9 739.771 22.3217  -2
  -2  -3   6 739.771 22.3217   1
   1   3   8 297.094 10.6841  -2
  -1  -3   6 297.094 10.6841   1
   0   3   7 2541.55 64.7368  -2
   0  -3   6 2541.55 64.7368   1
  -1   3   6 387.635 12.8341  -2
   1  -3   6 387.635 12.8341   1
  -2   3   5 94.1799 8.45249  -2
   2  -3   6 94.1799 8.45249   1
  -3   3   4 2722.77 164.093  -2
   3  -3   6 2722.77 164.093   1
   4  -3   6 759.888 20.1348   1
   5  -3   6 370.691 10.7878   1
   6  -3   6 101.533 5.10429   1
  -7   3   1 38.7276 8.15576  -2
   7  -3   6 38.7276 8.15576   1
  -8   3   0 109.797 8.73667  -2
   8  -3   6 109.797 8.73667   1
   9  -3   1 197.219 9.09743  -2
   9  -3   6 197.219 9.09743   1
  10  -3   2 303.079 13.5099  -2
  10  -3   6 303.079 13.5099   1
  11  -3   3 355.463 17.7710  -2
  11  -3   6 355.463 17.7710   1
  12  -3   4 700.059 24.8651  -2
  12  -3   6 700.059 24.8651   1
  13  -3   5 1447.16 39.3069  -2
  13  -3   6 1447.16 39.3069   1
  14  -3   6 12.2547 11.6867  -2
  14  -3   6 12.2547 11.6867   1
  15  -3   7 -9.4115 16.0226  -2
  15  -3   6 -9.4115 16.0226   1
  16  -3   8 162.049 23.8173  -2
  16  -3   6 162.049 23.8173   1
  17  -3   9 27.8668 35.1273  -2
  17  -3   6 27.8668 35.1273   1
  12   2  18 91.8906 17.2192  -2
 -12  -2   6 91.8906 17.2192   1
  11   2  17 89.9486 18.9689  -2
 -11  -2   6 89.9486 18.9689   1
  10   2  16 251.553 16.6663  -2
 -10  -2   6 251.553 16.6663   1
   9   2  15 170.081 13.3883  -2
  -9  -2   6 170.081 13.3883   1
   8   2  14 827.176 31.0577  -2
  -8  -2   6 827.176 31.0577   1
   7   2  13 460.210 30.1560  -2
  -7  -2   6 460.210 30.1560   1
  -6  -2   6 63.6998 5.59568   1
  -5  -2   6 4.99542 3.79452   1
  -4  -2   6 262.483 10.1989   1
   3   2  10 87.5959 20.3038  -2
  -3  -2   6 87.5959 20.3038   1
   2   2   9 120.512 7.11971  -2
  -2  -2   6 120.512 7.11971   1
   1   2   8 165.720 9.09213  -2
  -1  -2   6 165.720 9.09213   1
   0   2   7 386.038 11.0719  -2
   0  -2   6 386.038 11.0719   1
  -1   2   6 35.1842 3.34316  -2
   1  -2   6 35.1842 3.34316   1
  -2   2   5 429.848 13.1350  -2
   2  -2   6 429.848 13.1350   1
  -3   2   4 65.8827 3.59708  -2
   3  -2   6 65.8827 3.59708   1
  -4   2   3 558.786 15.1949  -2
   4  -2   6 558.786 15.1949   1
  -5   2   2 1934.54 49.3936  -2
   5  -2   6 1934.54 49.3936   1
  -6   2   1 248.090 10.1414  -2
   6  -2   6 248.090 10.1414   1
  -7   2   0 547.749 21.3865  -2
   7  -2   6 547.749 21.3865   1
   8  -2   1 987.846 44.7789  -2
   8  -2   6 987.846 44.7789   1
   9  -2   6 238.814 8.94609   1
  10  -2   6 489.628 15.8096   1
  11  -2   6 166.407 8.25114   1
  12  -2   4 793.740 55.6677  -2
  12  -2   6 793.740 55.6677   1
  13  -2   5 140.538 16.9658  -2
  13  -2   6 140.538 16.9658   1
  14  -2   6 189.509 14.6092  -2
  14  -2   6 189.509 14.6092   1
  15  -2   7 6.23740 13.6686  -2
  15  -2   6 6.23740 13.6686   1
  16  -2   8 112.351 21.8435  -2
  16  -2   6 112.351 21.8435   1
  17  -2   9 820.400 70.4583  -2
  17  -2   6 820.400 70.4583   1
  12   1  18 -36.048 24.3213  -2
 -12  -1   6 -36.048 24.3213   1
  11   1  17 55.5075 17.6751  -2
 -11  -1   6 55.5075 17.6751   1
  10   1  16 5.90079 14.2010  -2
 -10  -1   6 5.90079 14.2010   1
   9   1  15 211.335 11.8561  -2
  -9  -1   6 211.335 11.8561   1
   8   1  14 114.805 10.3662  -2
  -8  -1   6 114.805 10.3662   1
   7   1  13 67.8698 8.19288  -2
  -7  -1   6 67.8698 8.19288   1
   6   1  12 251.219 9.70917  -2
  -6  -1   6 251.219 9.70917   1
   5   1  11 134.241 9.75410  -2
  -5  -1   6 134.241 9.75410   1
   4   1  10 140.725 7.76637  -2
  -4  -1   6 140.725 7.76637   1
   3   1   9 682.505 20.9669  -2
  -3  -1   6 682.505 20.9669   1
   2   1   8 989.331 28.9912  -2
  -2  -1   6 989.331 28.9912   1
   1   1   7 836.789 39.4736  -2
  -1  -1   6 836.789 39.4736   1
   0  -1   6 3466.59 96.0703   1
   1  -1   6 22.7769 1.90772   1
   2  -1   6 421.083 11.5036   1
  -3   1   4 448.505 28.6719  -2
   3  -1   6 448.505 28.6719   1
  -4   1   3 2053.51 89.6799  -2
   4  -1   6 2053.51 89.6799   1
  -5   1   2 129.822 7.64215  -2
   5  -1   6 129.822 7.64215   1
  -6   1   1 1006.59 32.1996  -2
   6  -1   6 1006.59 32.1996   1
  -7   1   0 318.708 11.5645  -2
   7  -1   6 318.708 11.5645   1
   8  -1   1 316.891 11.4239  -2
   8  -1   6 316.891 11.4239   1
   9  -1   2 4665.23 128.813  -2
   9  -1   6 4665.23 128.813   1
  10  -1   3 163.516 13.4072  -2
  10  -1   6 163.516 13.4072   1
  11  -1   4 538.933 23.9878  -2
  11  -1   6 538.933 23.9878   1
  12  -1   5 743.727 27.3052  -2
  12  -1   6 743.727 27.3052   1
  13  -1   6 2116.32 61.6091  -2
  13  -1   6 2116.32 61.6091   1
  14  -1   7 95.6880 17.0302  -2
  14  -1   6 95.6880 17.0302   1
  15  -1   8 30.4727 18.6463  -2
  15  -1   6 30.4727 18.6463   1
  16  -1   9 958.091 76.8160  -2
  16  -1   6 958.091 76.8160   1
  17  -1   6 16.9583 14.4191   1
  12   0  17 226.539 30.3526  -2
 -12   0   6 226.539 30.3526   1
  11   0  16 44.7464 17.6520  -2
 -11   0   6 44.7464 17.6520   1
  10   0  15 25.6017 14.4292  -2
 -10   0   6 25.6017 14.4292   1
   9   0  14 209.210 24.5539  -2
  -9   0   6 209.210 24.5539   1
  -8   0   6 204.232 11.5954   1
  -7   0   6 1.55524 4.39316   1
   6   0  12 329.240 30.9077  -2
  -6   0   6 329.240 30.9077   1
   5   0  11 50.2090 20.1310  -2
  -5   0   6 50.2090 20.1310   1
   4   0  10 325.801 14.1680  -2
  -4   0   6 325.801 14.1680   1
   3   0   9 1297.32 37.5186  -2
  -3   0   6 1297.32 37.5186   1
   2   0   8 407.771 13.0885  -2
  -2   0   6 407.771 13.0885   1
   1   0   7 3604.60 100.669  -2
  -1   0   6 3604.60 100.669   1
   0   0   6 105.160 4.62192  -2
   0   0   6 105.160 4.62192   1
  -1   0   5 453.222 12.4023  -2
   1   0   6 453.222 12.4023   1
  -2   0   4 395.532 10.7961  -2
   2   0   6 395.532 10.7961   1
  -3   0   3 191.102 6.76318  -2
   3   0   6 191.102 6.76318   1
  -4   0   2 245.368 13.3151  -2
   4   0   6 245.368 13.3151   1
  -5   0   1 -10.747 9.39508  -2
   5   0   6 -10.747 9.39508   1
   6   0   6 138.112 5.59265   1
   7   0   6 948.072 25.1865   1
   8   0   6 60.7231 4.18933   1
   9   0   6 42.9863 4.73211   1
  10   0   6 224.097 9.95211   1
  11   0   4 83.1613 14.4287  -2
  11   0   6 83.1613 14.4287   1
  12   0   5 214.482 15.3855  -2
  12   0   6 214.482 15.3855   1
  13   0   6 178.968 12.8363  -2
  13   0   6 178.968 12.8363   1
  14   0   7 240.972 15.3932  -2
  14   0   6 240.972 15.3932   1
  15   0   8 282.461 14.8929  -2
  15   0   6 282.461 14.8929   1
  16   0   9 5.14377 13.5967  -2
  16   0   6 5.14377 13.5967   1
  17   0  10 10.8967 25.4465  -2
  17   0   6 10.8967 25.4465   1
  18   0   6 84.7544 31.2673   1
  12  -1  17 210.559 24.5209  -2
 -12   1   6 210.559 24.5209   1
  11  -1  16 56.0963 14.6607  -2
 -11   1   6 56.0963 14.6607   1
  10  -1  15 73.9172 11.4693  -2
 -10   1   6 73.9172 11.4693   1
   9  -1  14 1280.12 38.6330  -2
  -9   1   6 1280.12 38.6330   1
   8  -1  13 429.719 16.3212  -2
  -8   1   6 429.719 16.3212   1
   7  -1  12 40.0030 9.50608  -2
  -7   1   6 40.0030 9.50608   1
   6  -1  11 113.258 10.2824  -2
  -6   1   6 113.258 10.2824   1
   5  -1  10 1173.32 34.6549  -2
  -5   1   6 1173.32 34.6549   1
   4  -1   9 516.541 22.3687  -2
  -4   1   6 516.541 22.3687   1
   3  -1   8 319.646 25.4671  -2
  -3   1   6 319.646 25.4671   1
  -2   1   6 93.7202 5.28919   1
  -1   1   6 166.330 6.08396   1
   0   1   6 11.6668 2.56318   1
  -1  -1   5 985.175 31.5691  -2
   1   1   6 985.175 31.5691   1
  -2  -1   4 770.394 24.9545  -2
   2   1   6 770.394 24.9545   1
  -3  -1   3 1394.64 43.3345  -2
   3   1   6 1394.64 43.3345   1
  -4  -1   2 115.046 4.72087  -2
   4   1   6 115.046 4.72087   1
  -5  -1   1 660.083 17.7058  -2
   5   1   6 660.083 17.7058   1
   6   1   0 90.1026 5.43400  -2
   6   1   6 90.1026 5.43400   1
   7   1   1 401.205 11.9690  -2
   7   1   6 401.205 11.9690   1
   8   1   2 5.65559 5.89306  -2
   8   1   6 5.65559 5.89306   1
   9   1   3 426.596 16.5897  -2
   9   1   6 426.596 16.5897   1
  10   1   4 291.778 19.3764  -2
  10   1   6 291.778 19.3764   1
  11   1   5 9.49478 12.1965  -2
  11   1   6 9.49478 12.1965   1
  12   1   6 145.051 23.2538  -2
  12   1   6 145.051 23.2538   1
  13   1   6 10.7966 5.45567   1
  14   1   6 11.7293 6.09418   1
  15   1   8 110.962 27.8150  -2
  15   1   6 110.962 27.8150   1
  16   1   6 228.654 19.7060   1
  13  -2  17 352.046 33.8178  -2
 -13   2   6 352.046 33.8178   1
  12  -2  16 659.392 34.1149  -2
 -12   2   6 659.392 34.1149   1
  11  -2  15 26.9755 36.6777  -2
 -11   2   6 26.9755 36.6777   1
  10  -2  15 168.579 28.8850  -2
 -10   2   6 168.579 28.8850   1
   9  -2  14 68.3958 21.3516  -2
  -9   2   6 68.3958 21.3516   1
   8  -2  13 567.258 22.2187  -2
  -8   2   6 567.258 22.2187   1
   7  -2  12 169.777 12.7076  -2
  -7   2   6 169.777 12.7076   1
   6  -2  11 56.3237 8.35486  -2
  -6   2   6 56.3237 8.35486   1
   5  -2  10 3556.03 99.1050  -2
  -5   2   6 3556.03 99.1050   1
   4  -2   9 644.393 25.4396  -2
  -4   2   6 644.393 25.4396   1
   3  -2   8 649.538 21.5916  -2
  -3   2   6 649.538 21.5916   1
   2  -2   7 909.361 26.0773  -2
  -2   2   6 909.361 26.0773   1
   1  -2   6 27.0629 2.83500  -2
  -1   2   6 27.0629 2.83500   1
   0  -2   5 62.6796 3.37971  -2
   0   2   6 62.6796 3.37971   1
  -1  -2   4 299.575 11.0096  -2
   1   2   6 299.575 11.0096   1
  -2  -2   3 48.4875 3.71717  -2
   2   2   6 48.4875 3.71717   1
   3   2   6 289.985 9.16038   1
   4   2   6 1022.97 29.1361   1
   5   2   6 24.6107 2.57811   1
   6   2   6 222.218 7.47798   1
   7   2   6 527.131 16.4122   1
   8   2   2 2850.12 172.590  -2
   8   2   6 2850.12 172.590   1
   9   2   3 22.9827 11.8139  -2
   9   2   6 22.9827 11.8139   1
  10   2   4 433.525 26.3072  -2
  10   2   6 433.525 26.3072   1
  11   2   5 441.908 20.8535  -2
  11   2   6 441.908 20.8535   1
  12   2   6 438.137 20.6892  -2
  12   2   6 438.137 20.6892   1
  13   2   7 203.024 11.9014  -2
  13   2   6 203.024 11.9014   1
  14   2   8 724.466 24.9017  -2
  14   2   6 724.466 24.9017   1
  15   2   9 462.949 20.3045  -2
  15   2   6 462.949 20.3045   1
  16   2  10 4.30616 28.2559  -2
  16   2   6 4.30616 28.2559   1
  17   2  11 140.815 32.9721  -2
  17   2   6 140.815 32.9721   1
 -13   3   6 110.664 31.2028   1
  12  -3  16 156.823 17.7800  -2
 -12   3   6 156.823 17.7800   1
  11  -3  15 125.228 14.1989  -2
 -11   3   6 125.228 14.1989   1
  10  -3  14 69.5855 12.7342  -2
 -10   3   6 69.5855 12.7342   1
   9  -3  13 84.6562 13.5758  -2
  -9   3   6 84.6562 13.5758   1
   8  -3  12 172.071 12.8950  -2
  -8   3   6 172.071 12.8950   1
   7  -3  11 234.474 12.8017  -2
  -7   3   6 234.474 12.8017   1
   6  -3  10 16.2942 12.0397  -2
  -6   3   6 16.2942 12.0397   1
   5  -3   9 186.185 17.2298  -2
  -5   3   6 186.185 17.2298   1
  -4   3   6 680.142 22.9414   1
  -3   3   6 41.7304 2.94454   1
   2  -3   7 71.1130 4.90224  -2
  -2   3   6 71.1130 4.90224   1
   1  -3   6 314.274 11.2320  -2
  -1   3   6 314.274 11.2320   1
   0  -3   5 1035.88 29.4390  -2
   0   3   6 1035.88 29.4390   1
  -1  -3   4 243.371 7.70454  -2
   1   3   6 243.371 7.70454   1
  -2  -3   3 24.9560 2.90081  -2
   2   3   6 24.9560 2.90081   1
  -3  -3   2 1450.17 37.0664  -2
   3   3   6 1450.17 37.0664   1
  -4  -3   1 108.918 4.21645  -2
   4   3   6 108.918 4.21645   1
   5   3   0 938.292 27.0399  -2
   5   3   6 938.292 27.0399   1
   6   3   1 1031.06 29.8924  -2
   6   3   6 1031.06 29.8924   1
   7   3   2 390.480 19.8489  -2
   7   3   6 390.480 19.8489   1
   8   3   3 817.711 38.8727  -2
   8   3   6 817.711 38.8727   1
   9   3   4 744.136 50.3335  -2
   9   3   6 744.136 50.3335   1
  10   3   6 607.039 21.9113   1
  11   3   6 354.245 13.4136   1
  12   3   6 637.198 21.3757   1
  13   3   7 220.306 30.8883  -2
  13   3   6 220.306 30.8883   1
  14   3   8 294.205 28.7214  -2
  14   3   6 294.205 28.7214   1
  15   3   9 1048.24 34.6688  -2
  15   3   6 1048.24 34.6688   1
  16   3  10 445.994 37.8464  -2
  16   3   6 445.994 37.8464   1
  17   3  11 257.302 34.1138  -2
  17   3   6 257.302 34.1138   1
  12  -4  16 295.875 41.3688  -2
 -12   4   6 295.875 41.3688   1
  11  -4  15 368.677 21.8710  -2
 -11   4   6 368.677 21.8710   1
  10  -4  14 156.923 15.5511  -2
 -10   4   6 156.923 15.5511   1
   9  -4  13 376.005 18.4862  -2
  -9   4   6 376.005 18.4862   1
   8  -4  12 319.516 13.4640  -2
  -8   4   6 319.516 13.4640   1
   7  -4  11 246.206 10.8152  -2
  -7   4   6 246.206 10.8152   1
   6  -4  10 612.851 24.6122  -2
  -6   4   6 612.851 24.6122   1
   5  -4   9 289.330 10.2098  -2
  -5   4   6 289.330 10.2098   1
   4  -4   8 397.821 12.6692  -2
  -4   4   6 397.821 12.6692   1
   3  -4   7 42.7874 3.98518  -2
  -3   4   6 42.7874 3.98518   1
   2  -4   6 1177.14 33.3046  -2
  -2   4   6 1177.14 33.3046   1
   1  -4   5 2353.50 85.4199  -2
  -1   4   6 2353.50 85.4199   1
   0  -4   4 1543.02 95.5809  -2
   0   4   6 1543.02 95.5809   1
   1   4   6 2447.08 61.5425   1
   2   4   6 7.87415 1.47542   1
   3   4   6 6.32605 1.62920   1
   4   4   6 106.558 4.32269   1
   5   4   0 78.8211 12.7171  -2
   5   4   6 78.8211 12.7171   1
   6   4   1 136.615 10.0860  -2
   6   4   6 136.615 10.0860   1
   7   4   6 48.6189 5.15024   1
   8   4   3 1384.12 52.0072  -2
   8   4   6 1384.12 52.0072   1
   9   4   4 651.342 26.3121  -2
   9   4   6 651.342 26.3121   1
  10   4   5 2510.13 113.977  -2
  10   4   6 2510.13 113.977   1
  11   4   6 0.73213 8.05361  -2
  11   4   6 0.73213 8.05361   1
  12   4   7 35.1363 11.2051  -2
  12   4   6 35.1363 11.2051   1
  13   4   8 261.744 14.7799  -2
  13   4   6 261.744 14.7799   1
  14   4   9 18.1529 13.4323  -2
  14   4   6 18.1529 13.4323   1
  15   4  10 79.6807 16.3979  -2
  15   4   6 79.6807 16.3979   1
  16   4  11 -56.208 47.3797  -2
  16   4   6 -56.208 47.3797   1
  17   4   6 7.02634 14.4367   1
  12  -5  15 201.673 17.6170  -2
 -12   5   6 201.673 17.6170   1
  11  -5  14 58.2029 14.4017  -2
 -11   5   6 58.2029 14.4017   1
  10  -5  13 442.327 19.7767  -2
 -10   5   6 442.327 19.7767   1
   9  -5  12 167.041 15.7444  -2
  -9   5   6 167.041 15.7444   1
   8  -5  11 2.68611 11.7867  -2
  -8   5   6 2.68611 11.7867   1
   7  -5  10 614.167 40.2638  -2
  -7   5   6 614.167 40.2638   1
   6  -5  10 657.136 42.8731  -2
  -6   5   6 657.136 42.8731   1
   5  -5   9 128.762 10.9712  -2
  -5   5   6 128.762 10.9712   1
   4  -5   8 132.703 7.10158  -2
  -4   5   6 132.703 7.10158   1
   3  -5   7 1291.51 40.4491  -2
  -3   5   6 1291.51 40.4491   1
   2  -5   6 1445.48 40.6530  -2
  -2   5   6 1445.48 40.6530   1
   1  -5   5 485.818 18.3453  -2
  -1   5   6 485.818 18.3453   1
   0  -5   4 232.688 8.15481  -2
   0   5   6 232.688 8.15481   1
  -1  -5   3 62.5745 3.15138  -2
   1   5   6 62.5745 3.15138   1
  -2  -5   2 2213.63 79.7150  -2
   2   5   6 2213.63 79.7150   1
  -3  -5   1 775.291 24.7481  -2
   3   5   6 775.291 24.7481   1
   4   5   0 1422.91 44.8892  -2
   4   5   6 1422.91 44.8892   1
   5   5   1 1733.77 77.3541  -2
   5   5   6 1733.77 77.3541   1
   6   5   2 398.351 19.8712  -2
   6   5   6 398.351 19.8712   1
   7   5   3 394.803 30.2187  -2
   7   5   6 394.803 30.2187   1
   8   5   6 272.386 10.5961   1
   9   5   6 7.31752 4.04505   1
  10   5   6 69.4477 6.62373   1
  11   5   6 39.5150 16.9530  -2
  11   5   6 39.5150 16.9530   1
  12   5   7 403.508 20.9790  -2
  12   5   6 403.508 20.9790   1
  13   5   8 570.969 21.6390  -2
  13   5   6 570.969 21.6390   1
  14   5   9 742.708 26.4469  -2
  14   5   6 742.708 26.4469   1
  15   5  10 38.5976 13.5552  -2
  15   5   6 38.5976 13.5552   1
  16   5  11 12.5507 20.1554  -2
  16   5   6 12.5507 20.1554   1
  17   5  12 5.14824 26.9603  -2
  17   5   6 5.14824 26.9603   1
  12  -6  15 23.8467 17.7373  -2
 -12   6   6 23.8467 17.7373   1
  11  -6  14 16.7701 12.3672  -2
 -11   6   6 16.7701 12.3672   1
  10  -6  13 20.8332 10.3134  -2
 -10   6   6 20.8332 10.3134   1
   9  -6  12 49.8109 9.86775  -2
  -9   6   6 49.8109 9.86775   1
   8  -6  11 80.2798 7.92130  -2
  -8   6   6 80.2798 7.92130   1
   7  -6  10 67.4434 7.14650  -2
  -7   6   6 67.4434 7.14650   1
   6  -6   9 1036.60 33.1013  -2
  -6   6   6 1036.60 33.1013   1
   5  -6   8 545.771 16.7448  -2
  -5   6   6 545.771 16.7448   1
   4  -6   7 332.556 14.1842  -2
  -4   6   6 332.556 14.1842   1
   3  -6   6 603.450 27.5800  -2
  -3   6   6 603.450 27.5800   1
   2  -6   5 575.126 35.8876  -2
  -2   6   6 575.126 35.8876   1
  -1   6   6 85.8776 4.32956   1
   0   6   6 20.8826 2.06024   1
   1   6   6 403.137 13.1957   1
  -2  -6   2 943.289 42.6715  -2
   2   6   6 943.289 42.6715   1
  -3  -6   1 115.396 6.87084  -2
   3   6   6 115.396 6.87084   1
   4   6   0 267.963 14.6808  -2
   4   6   6 267.963 14.6808   1
   5   6   1 1462.81 41.5685  -2
   5   6   6 1462.81 41.5685   1
   6   6   2 449.468 14.1010  -2
   6   6   6 449.468 14.1010   1
   7   6   3 207.973 9.21798  -2
   7   6   6 207.973 9.21798   1
   8   6   4 114.946 6.91842  -2
   8   6   6 114.946 6.91842   1
   9   6   5 339.852 16.5565  -2
   9   6   6 339.852 16.5565   1
  10   6   6 188.526 11.8215  -2
  10   6   6 188.526 11.8215   1
  11   6   7 107.993 14.4554  -2
  11   6   6 107.993 14.4554   1
  12   6   8 94.7914 13.7523  -2
  12   6   6 94.7914 13.7523   1
  13   6   9 62.0596 18.5593  -2
  13   6   6 62.0596 18.5593   1
  14   6  10 2140.02 100.740  -2
  14   6   6 2140.02 100.740   1
  15   6  11 92.0111 30.3074  -2
  15   6   6 92.0111 30.3074   1
  16   6   6 -0.7838 8.60062   1
  12  -7  14 76.6425 18.2552  -2
 -12   7   6 76.6425 18.2552   1
  11  -7  13 218.720 16.9194  -2
 -11   7   6 218.720 16.9194   1
  10  -7  12 85.5367 19.4191  -2
 -10   7   6 85.5367 19.4191   1
  -9   7   6 45.0678 5.28880   1
   8  -7  11 110.749 13.4711  -2
  -8   7   6 110.749 13.4711   1
   7  -7  10 80.5882 7.98521  -2
  -7   7   6 80.5882 7.98521   1
   6  -7   9 137.645 13.6431  -2
  -6   7   6 137.645 13.6431   1
   5  -7   8 63.7000 7.32217  -2
  -5   7   6 63.7000 7.32217   1
   4  -7   7 1032.57 32.8014  -2
  -4   7   6 1032.57 32.8014   1
   3  -7   6 86.6493 5.36789  -2
  -3   7   6 86.6493 5.36789   1
   2  -7   5 400.051 15.7344  -2
  -2   7   6 400.051 15.7344   1
   1  -7   4 136.144 5.56471  -2
  -1   7   6 136.144 5.56471   1
   0  -7   3 831.801 26.2487  -2
   0   7   6 831.801 26.2487   1
  -1  -7   2 48.3229 6.23162  -2
   1   7   6 48.3229 6.23162   1
  -2  -7   1 274.427 13.8433  -2
   2   7   6 274.427 13.8433   1
   3   7   0 596.835 28.1403  -2
   3   7   6 596.835 28.1403   1
   4   7   1 435.285 22.4169  -2
   4   7   6 435.285 22.4169   1
   5   7   6 118.418 7.84436   1
   6   7   6 80.6960 4.85130   1
   7   7   6 75.8220 4.96504   1
   8   7   6 346.063 12.5023   1
   9   7   5 2884.07 127.586  -2
   9   7   6 2884.07 127.586   1
  10   7   6 306.387 15.9028  -2
  10   7   6 306.387 15.9028   1
  11   7   7 408.384 19.7412  -2
  11   7   6 408.384 19.7412   1
  12   7   8 111.851 11.8704  -2
  12   7   6 111.851 11.8704   1
  13   7   9 374.190 19.0369  -2
  13   7   6 374.190 19.0369   1
  14   7  10 154.393 11.4597  -2
  14   7   6 154.393 11.4597   1
  15   7  11 61.5272 14.0351  -2
  15   7   6 61.5272 14.0351   1
  16   7  12 144.111 32.1603  -2
  16   7   6 144.111 32.1603   1
  12  -8  14 65.0352 23.3307  -2
 -12   8   6 65.0352 23.3307   1
  11  -8  13 26.9411 15.1058  -2
 -11   8   6 26.9411 15.1058   1
  10  -8  12 66.0561 7.31425  -2
 -10   8   6 66.0561 7.31425   1
   9  -8  11 86.6263 7.50291  -2
  -9   8   6 86.6263 7.50291   1
   8  -8  10 493.859 26.1783  -2
  -8   8   6 493.859 26.1783   1
   7  -8   9 885.133 29.9960  -2
  -7   8   6 885.133 29.9960   1
   6  -8   8 231.169 13.0243  -2
  -6   8   6 231.169 13.0243   1
   5  -8   7 9.43105 12.5931  -2
  -5   8   6 9.43105 12.5931   1
   4  -8   6 1393.84 85.2814  -2
  -4   8   6 1393.84 85.2814   1
  -3   8   6 87.6015 4.53759   1
  -2   8   6 41.4581 3.34289   1
   1  -8   4 34.5643 15.0950  -2
  -1   8   6 34.5643 15.0950   1
   0  -8   3 120.762 9.85466  -2
   0   8   6 120.762 9.85466   1
  -1  -8   2 1685.00 73.2883  -2
   1   8   6 1685.00 73.2883   1
  -2  -8   1 111.018 6.09016  -2
   2   8   6 111.018 6.09016   1
   3   8   0 223.085 9.69752  -2
   3   8   6 223.085 9.69752   1
   4   8   1 2726.43 84.9600  -2
   4   8   6 2726.43 84.9600   1
   5   8   2 996.773 37.4503  -2
   5   8   6 996.773 37.4503   1
   6   8   3 719.294 34.4764  -2
   6   8   6 719.294 34.4764   1
   7   8   4 311.182 12.3655  -2
   7   8   6 311.182 12.3655   1
   8   8   5 76.3603 8.46856  -2
   8   8   6 76.3603 8.46856   1
   9   8   6 16.1201 18.9911  -2
   9   8   6 16.1201 18.9911   1
  10   8   7 142.728 14.6647  -2
  10   8   6 142.728 14.6647   1
  11   8   8 12.5413 16.7937  -2
  11   8   6 12.5413 16.7937   1
  12   8   9 -19.890 35.0657  -2
  12   8   6 -19.890 35.0657   1
  13   8   6 255.814 13.1324   1
  14   8  10 25.5414 30.0699  -2
  14   8   6 25.5414 30.0699   1
  15   8  11 35.5636 26.5341  -2
  15   8   6 35.5636 26.5341   1
  16   8  12 142.124 35.6144  -2
  16   8   6 142.124 35.6144   1
 -11   9   6 8.66474 25.0452   1
  10  -9  12 135.613 23.7507  -2
 -10   9   6 135.613 23.7507   1
   9  -9  11 6.49740 15.3635  -2
  -9   9   6 6.49740 15.3635   1
   8  -9  10 114.509 27.6914  -2
  -8   9   6 114.509 27.6914   1
   7  -9   9 868.826 29.6412  -2
  -7   9   6 868.826 29.6412   1
   6  -9   8 451.762 16.9251  -2
  -6   9   6 451.762 16.9251   1
   5  -9   7 87.5601 7.09510  -2
  -5   9   6 87.5601 7.09510   1
   4  -9   6 2097.87 64.9013  -2
  -4   9   6 2097.87 64.9013   1
   3  -9   5 568.594 19.0875  -2
  -3   9   6 568.594 19.0875   1
   2  -9   4 147.882 7.48960  -2
  -2   9   6 147.882 7.48960   1
   1  -9   3 326.050 13.9418  -2
  -1   9   6 326.050 13.9418   1
   0  -9   2 4671.58 200.604  -2
   0   9   6 4671.58 200.604   1
  -1  -9   1 462.476 22.6639  -2
   1   9   6 462.476 22.6639   1
   2   9   6 524.645 20.0127   1
   3   9   6 200.401 8.67219   1
   4   9   6 144.573 7.54783   1
   5   9   6 790.518 31.1394   1
   6   9   6 37.8052 5.52264   1
   7   9   4 366.655 23.9739  -2
   7   9   6 366.655 23.9739   1
   8   9   5 399.558 21.9574  -2
   8   9   6 399.558 21.9574   1
   9   9   6 1171.23 44.4437  -2
   9   9   6 1171.23 44.4437   1
  10   9   7 100.911 10.1967  -2
  10   9   6 100.911 10.1967   1
  11   9   8 267.049 11.4686  -2
  11   9   6 267.049 11.4686   1
  12   9   9 93.9401 11.3733  -2
  12   9   6 93.9401 11.3733   1
  13   9  10 169.437 15.7268  -2
  13   9   6 169.437 15.7268   1
  14   9  11 215.569 23.0259  -2
  14   9   6 215.569 23.0259   1
  15   9  12 452.752 32.1453  -2
  15   9   6 452.752 32.1453   1
  11 -10  12 92.4910 20.9216  -2
 -11  10   6 92.4910 20.9216   1
  10 -10  11 27.4588 17.5823  -2
 -10  10   6 27.4588 17.5823   1
   9 -10  10 6.91324 13.6690  -2
  -9  10   6 6.91324 13.6690   1
   8 -10   9 317.432 18.3979  -2
  -8  10   6 317.432 18.3979   1
   7 -10   8 645.970 46.2990  -2
  -7  10   6 645.970 46.2990   1
   6 -10   7 363.144 29.0541  -2
  -6  10   6 363.144 29.0541   1
   5 -10   7 259.236 23.4176  -2
  -5  10   6 259.236 23.4176   1
  -4  10   6 86.6025 5.97885   1
   3 -10   5 453.940 21.9697  -2
  -3  10   6 453.940 21.9697   1
   2 -10   4 88.7081 8.55964  -2
  -2  10   6 88.7081 8.55964   1
   1 -10   3 25.7103 3.52704  -2
  -1  10   6 25.7103 3.52704   1
   0 -10   2 246.329 14.5149  -2
   0  10   6 246.329 14.5149   1
  -1 -10   1 349.752 24.0491  -2
   1  10   6 349.752 24.0491   1
   2  10   0 26.9266 2.88016  -2
   2  10   6 26.9266 2.88016   1
   3  10   1 710.677 26.9158  -2
   3  10   6 710.677 26.9158   1
   4  10   2 79.5390 11.0436  -2
   4  10   6 79.5390 11.0436   1
   5  10   3 620.527 25.1699  -2
   5  10   6 620.527 25.1699   1
   6  10   4 1465.61 67.4366  -2
   6  10   6 1465.61 67.4366   1
   7  10   5 86.9050 21.7096  -2
   7  10   6 86.9050 21.7096   1
   8  10   6 66.9545 27.9058  -2
   8  10   6 66.9545 27.9058   1
   9  10   7 75.8373 28.5284  -2
   9  10   6 75.8373 28.5284   1
  10  10   6 14.3709 5.30817   1
  11  10   8 26.0130 31.0923  -2
  11  10   6 26.0130 31.0923   1
  12  10   9 93.0329 24.1596  -2
  12  10   6 93.0329 24.1596   1
  13  10  10 65.7735 17.8102  -2
  13  10   6 65.7735 17.8102   1
  14  10  11 213.704 21.7205  -2
  14  10   6 213.704 21.7205   1
  10 -11  11 -10.379 19.8751  -2
 -10  11   6 -10.379 19.8751   1
   9 -11  10 219.206 16.9636  -2
  -9  11   6 219.206 16.9636   1
   8 -11   9 130.667 12.6128  -2
  -8  11   6 130.667 12.6128   1
   7 -11   8 154.243 11.7503  -2
  -7  11   6 154.243 11.7503   1
   6 -11   7 89.5993 10.9895  -2
  -6  11   6 89.5993 10.9895   1
   5 -11   6 59.3785 9.45400  -2
  -5  11   6 59.3785 9.45400   1
   4 -11   5 490.666 20.4390  -2
  -4  11   6 490.666 20.4390   1
   3 -11   4 567.860 26.8116  -2
  -3  11   6 567.860 26.8116   1
   2 -11   3 809.887 38.3248  -2
  -2  11   6 809.887 38.3248   1
   1 -11   2 223.688 21.1065  -2
  -1  11   6 223.688 21.1065   1
   0  11   6 -10.266 5.67890   1
   1  11   6 153.223 11.8582   1
   2  11   0 138.759 18.9672  -2
   2  11   6 138.759 18.9672   1
   3  11   1 263.297 28.0497  -2
   3  11   6 263.297 28.0497   1
   4  11   2 25.3093 10.1601  -2
   4  11   6 25.3093 10.1601   1
   5  11   3 289.176 18.9028  -2
   5  11   6 289.176 18.9028   1
   6  11   4 883.952 35.6473  -2
   6  11   6 883.952 35.6473   1
   7  11   5 171.767 13.0258  -2
   7  11   6 171.767 13.0258   1
   8  11   6 4.35433 10.5129  -2
   8  11   6 4.35433 10.5129   1
   9  11   7 376.902 14.0793  -2
   9  11   6 376.902 14.0793   1
  10  11   8 171.085 10.6453  -2
  10  11   6 171.085 10.6453   1
  11  11   9 465.030 18.7386  -2
  11  11   6 465.030 18.7386   1
  12  11  10 6.35790 17.0278  -2
  12  11   6 6.35790 17.0278   1
  13  11  11 82.3652 18.6571  -2
  13  11   6 82.3652 18.6571   1
  14  11  12 108.038 32.2415  -2
  14  11   6 108.038 32.2415   1
  10 -12  10 114.676 30.3259  -2
 -10  12   6 114.676 30.3259   1
   9 -12   9 79.1653 27.6800  -2
  -9  12   6 79.1653 27.6800   1
   8 -12   9 170.709 28.2901  -2
  -8  12   6 170.709 28.2901   1
   7 -12   8 363.074 33.2989  -2
  -7  12   6 363.074 33.2989   1
   6 -12   7 238.665 19.9187  -2
  -6  12   6 238.665 19.9187   1
   5 -12   6 437.909 25.2789  -2
  -5  12   6 437.909 25.2789   1
   4 -12   5 705.796 27.4555  -2
  -4  12   6 705.796 27.4555   1
   3 -12   4 257.097 12.1406  -2
  -3  12   6 257.097 12.1406   1
   2 -12   3 940.629 35.4204  -2
  -2  12   6 940.629 35.4204   1
   1 -12   2 71.7184 10.5704  -2
  -1  12   6 71.7184 10.5704   1
   0 -12   1 237.523 15.3422  -2
   0  12   6 237.523 15.3422   1
   1  12   0 508.201 25.4676  -2
   1  12   6 508.201 25.4676   1
   2  12   1 331.489 14.5224  -2
   2  12   6 331.489 14.5224   1
   3  12   2 2559.62 92.6806  -2
   3  12   6 2559.62 92.6806   1
   4  12   3 576.991 30.0501  -2
   4  12   6 576.991 30.0501   1
   5  12   4 44.0049 12.8334  -2
   5  12   6 44.0049 12.8334   1
   6  12   5 447.545 31.4255  -2
   6  12   6 447.545 31.4255   1
   7  12   6 448.050 21.3825   1
   8  12   6 163.432 15.0851   1
   9  12   7 574.708 46.2705  -2
   9  12   6 574.708 46.2705   1
  10  12   8 1297.25 67.6913  -2
  10  12   6 1297.25 67.6913   1
  11  12   9 312.342 14.7777  -2
  11  12   6 312.342 14.7777   1
  12  12  10 318.293 17.4816  -2
  12  12   6 318.293 17.4816   1
  13  12  11 12.6114 33.6643  -2
  13  12   6 12.6114 33.6643   1
   9 -13   9 55.1599 17.8326  -2
  -9  13   6 55.1599 17.8326   1
   8 -13   8 151.685 21.6631  -2
  -8  13   6 151.685 21.6631   1
   7 -13   7 156.396 18.9265  -2
  -7  13   6 156.396 18.9265   1
   6 -13   6 51.2201 24.9825  -2
  -6  13   6 51.2201 24.9825   1
  -5  13   6 216.317 25.0506   1
  -4  13   6 0.22412 3.69448   1
   3 -13   3 271.277 26.9866  -2
  -3  13   6 271.277 26.9866   1
  -2  13   6 7.68694 2.29365   1
   1 -13   2 623.389 43.7616  -2
  -1  13   6 623.389 43.7616   1
   0 -13   1 150.959 17.0711  -2
   0  13   6 150.959 17.0711   1
   1  13   0 111.700 7.94949  -2
   1  13   6 111.700 7.94949   1
   2  13   1 1532.65 48.5248  -2
   2  13   6 1532.65 48.5248   1
   3  13   2 29.4923 6.72105  -2
   3  13   6 29.4923 6.72105   1
   4  13   3 25.9398 8.57481  -2
   4  13   6 25.9398 8.57481   1
   5  13   4 152.978 11.2304  -2
   5  13   6 152.978 11.2304   1
   6  13   5 702.013 28.7706  -2
   6  13   6 702.013 28.7706   1
   7  13   6 101.304 13.3890  -2
   7  13   6 101.304 13.3890   1
   8  13   7 347.894 25.4926  -2
   8  13   6 347.894 25.4926   1
   9  13   8 96.6178 16.9956  -2
   9  13   6 96.6178 16.9956   1
  10  13   9 101.503 20.1084  -2
  10  13   6 101.503 20.1084   1
  11  13  10 911.220 50.2634  -2
  11  13   6 911.220 50.2634   1
  12  13   6 -4.6819 12.6452   1
   7 -14   7 30.9574 26.4449  -2
  -7  14   6 30.9574 26.4449   1
   6 -14   6 36.5771 15.6913  -2
  -6  14   6 36.5771 15.6913   1
   5 -14   5 252.447 18.2457  -2
  -5  14   6 252.447 18.2457   1
   4 -14   4 104.757 12.7034  -2
  -4  14   6 104.757 12.7034   1
   3 -14   3 1379.97 63.0101  -2
  -3  14   6 1379.97 63.0101   1
   2 -14   2 32.4853 5.17448  -2
  -2  14   6 32.4853 5.17448   1
   1 -14   1 230.352 11.2797  -2
  -1  14   6 230.352 11.2797   1
   0  14   0 80.2296 6.08589  -2
   0  14   6 80.2296 6.08589   1
   1  14   1 384.802 16.5409  -2
   1  14   6 384.802 16.5409   1
   2  14   2 -8.5489 8.50715  -2
   2  14   6 -8.5489 8.50715   1
   3  14   3 106.272 24.6688  -2
   3  14   6 106.272 24.6688   1
   4  14   6 27.8327 5.05727   1
   5  14   6 113.874 8.60611   1
   6  14   5 455.779 38.4143  -2
   6  14   6 455.779 38.4143   1
   7  14   6 284.644 31.7720  -2
   7  14   6 284.644 31.7720   1
   8  14   7 282.750 28.9221  -2
   8  14   6 282.750 28.9221   1
   9  14   8 14.0944 17.7925  -2
   9  14   6 14.0944 17.7925   1
  10  14   9 35.0489 18.2969  -2
  10  14   6 35.0489 18.2969   1
  11  14  10 38.8175 23.6959  -2
  11  14   6 38.8175 23.6959   1
  -7  15   6 83.1880 21.0796   1
   6 -15   5 154.022 29.7181  -2
  -6  15   6 154.022 29.7181   1
  -5  15   6 94.6011 7.58873   1
  -4  15   6 9.39826 4.01099   1
   3 -15   3 319.542 15.8445  -2
  -3  15   6 319.542 15.8445   1
   2 -15   2 158.793 11.3921  -2
  -2  15   6 158.793 11.3921   1
   1 -15   1 113.209 7.01514  -2
  -1  15   6 113.209 7.01514   1
   0  15   0 46.7658 5.77125  -2
   0  15   6 46.7658 5.77125   1
   1  15   1 55.8217 6.56839  -2
   1  15   6 55.8217 6.56839   1
   2  15   2 66.1668 8.83252  -2
   2  15   6 66.1668 8.83252   1
   3  15   3 19.9448 7.25866  -2
   3  15   6 19.9448 7.25866   1
   4  15   4 321.379 16.8494  -2
   4  15   6 321.379 16.8494   1
   5  15   5 53.5162 10.7300  -2
   5  15   6 53.5162 10.7300   1
   6  15   6 350.718 19.4166  -2
   6  15   6 350.718 19.4166   1
   7  15   7 44.6028 17.4611  -2
   7  15   6 44.6028 17.4611   1
   8  15   8 109.687 35.2059  -2
   8  15   6 109.687 35.2059   1
   9  15   9 355.905 47.5124  -2
   9  15   6 355.905 47.5124   1
  10  15  10 66.5138 43.3218  -2
  10  15   6 66.5138 43.3218   1
   6 -16   5 4.59779 20.0238  -2
  -6  16   6 4.59779 20.0238   1
   5 -16   4 61.4065 21.0505  -2
  -5  16   6 61.4065 21.0505   1
   4 -16   3 12.6405 12.8983  -2
  -4  16   6 12.6405 12.8983   1
   3 -16   2 73.6028 10.4893  -2
  -3  16   6 73.6028 10.4893   1
   2 -16   1 516.521 19.3402  -2
  -2  16   6 516.521 19.3402   1
  -1  16   0 260.080 11.7293  -2
  -1  16   6 260.080 11.7293   1
   0  16   1 118.559 28.3017  -2
   0  16   6 118.559 28.3017   1
   1  16   2 1651.18 105.463  -2
   1  16   6 1651.18 105.463   1
   2  16   6 75.7208 6.51977   1
   3  16   3 32.0116 16.9882  -2
   3  16   6 32.0116 16.9882   1
   4  16   4 60.5100 18.3077  -2
   4  16   6 60.5100 18.3077   1
   5  16   5 569.493 26.4498  -2
   5  16   6 569.493 26.4498   1
   6  16   6 101.599 27.8006  -2
   6  16   6 101.599 27.8006   1
   7  16   7 138.717 20.7948  -2
   7  16   6 138.717 20.7948   1
   8  16   8 83.3342 20.7083  -2
   8  16   6 83.3342 20.7083   1
  -4  17   6 -2.9832 13.2573   1
   3 -17   2 24.1337 24.3560  -2
  -3  17   6 24.1337 24.3560   1
   2 -17   1 -2.9497 22.4532  -2
  -2  17   6 -2.9497 22.4532   1
  -1  17   0 30.2884 18.4014  -2
  -1  17   6 30.2884 18.4014   1
   0  17   1 27.7959 8.59525  -2
   0  17   6 27.7959 8.59525   1
   1  17   2 35.5064 9.86008  -2
   1  17   6 35.5064 9.86008   1
   2  17   3 816.839 39.3583  -2
   2  17   6 816.839 39.3583   1
   3  17   4 224.988 18.1421  -2
   3  17   6 224.988 18.1421   1
   4  17   5 189.779 21.0687  -2
   4  17   6 189.779 21.0687   1
   5  17   6 194.248 22.4403  -2
   5  17   6 194.248 22.4403   1
   6  17   7 70.2656 32.8775  -2
   6  17   6 70.2656 32.8775   1
   0  18   6 174.876 24.8827   1
   1  18   2 23.2789 30.3565  -2
   1  18   6 23.2789 30.3565   1
   2  18   3 269.031 36.0527  -2
   2  18   6 269.031 36.0527   1
  -3  15  10 13.7601 38.7499  -2
   3 -15   7 13.7601 38.7499   1
  -4  15   9 25.8019 47.8717  -2
   4 -15   7 25.8019 47.8717   1
   5 -15   7 1.67748 13.4229   1
   6 -15   7 21.3048 14.0275   1
   7 -15   7 -10.153 13.9370   1
   1  14  14 6.79774 38.4791  -2
  -1 -14   7 6.79774 38.4791   1
   0  14  13 171.363 17.1667  -2
   0 -14   7 171.363 17.1667   1
  -1  14  12 19.6689 22.7387  -2
   1 -14   7 19.6689 22.7387   1
  -2  14  11 230.845 16.6797  -2
   2 -14   7 230.845 16.6797   1
  -3  14  10 450.948 23.6698  -2
   3 -14   7 450.948 23.6698   1
  -4  14   9 111.463 12.8507  -2
   4 -14   7 111.463 12.8507   1
  -5  14   8 538.938 22.4286  -2
   5 -14   7 538.938 22.4286   1
  -6  14   7 948.367 40.0636  -2
   6 -14   7 948.367 40.0636   1
  -7  14   6 38.4044 17.2404  -2
   7 -14   7 38.4044 17.2404   1
  -8  14   5 68.6306 24.1237  -2
   8 -14   7 68.6306 24.1237   1
  -9  14   4 234.908 32.2836  -2
   9 -14   7 234.908 32.2836   1
   3  13  15 51.2423 17.4994  -2
  -3 -13   7 51.2423 17.4994   1
   2  13  14 615.566 23.8943  -2
  -2 -13   7 615.566 23.8943   1
   1  13  13 117.882 16.5129  -2
  -1 -13   7 117.882 16.5129   1
   0  13  12 61.6498 14.6387  -2
   0 -13   7 61.6498 14.6387   1
  -1  13  11 495.655 21.9563  -2
   1 -13   7 495.655 21.9563   1
   2 -13   7 18.6673 7.05954   1
  -3  13  10 64.4746 18.9646  -2
   3 -13   7 64.4746 18.9646   1
  -4  13   9 24.5271 14.8299  -2
   4 -13   7 24.5271 14.8299   1
  -5  13   8 522.810 18.8889  -2
   5 -13   7 522.810 18.8889   1
  -6  13   7 168.490 13.9278  -2
   6 -13   7 168.490 13.9278   1
  -7  13   6 158.813 13.1671  -2
   7 -13   7 158.813 13.1671   1
  -8  13   5 409.882 19.0408  -2
   8 -13   7 409.882 19.0408   1
  -9  13   4 76.6215 12.2916  -2
   9 -13   7 76.6215 12.2916   1
 -10  13   3 392.717 18.7722  -2
  10 -13   7 392.717 18.7722   1
 -11  13   2 31.0728 28.8921  -2
  11 -13   7 31.0728 28.8921   1
  -5 -12   7 7.80157 8.35097   1
   4  12  16 92.7712 18.7089  -2
  -4 -12   7 92.7712 18.7089   1
   3  12  15 -13.433 18.0044  -2
  -3 -12   7 -13.433 18.0044   1
   2  12  14 358.217 16.2072  -2
  -2 -12   7 358.217 16.2072   1
   1  12  13 36.9854 11.8232  -2
  -1 -12   7 36.9854 11.8232   1
   0  12  12 112.210 10.2320  -2
   0 -12   7 112.210 10.2320   1
  -1  12  11 143.075 10.0627  -2
   1 -12   7 143.075 10.0627   1
  -2  12  10 999.349 40.1979  -2
   2 -12   7 999.349 40.1979   1
  -3  12   9 57.5317 10.8665  -2
   3 -12   7 57.5317 10.8665   1
  -4  12   8 78.4385 10.5983  -2
   4 -12   7 78.4385 10.5983   1
  -5  12   7 192.250 12.1126  -2
   5 -12   7 192.250 12.1126   1
  -6  12   6 266.192 14.3407  -2
   6 -12   7 266.192 14.3407   1
  -7  12   5 2.51505 30.6373  -2
   7 -12   7 2.51505 30.6373   1
  -8  12   4 246.146 37.9797  -2
   8 -12   7 246.146 37.9797   1
  -9  12   4 136.681 37.1653  -2
   9 -12   7 136.681 37.1653   1
 -10  12   3 177.304 23.8340  -2
  10 -12   7 177.304 23.8340   1
 -11  12   2 127.600 23.0922  -2
  11 -12   7 127.600 23.0922   1
 -12  12   1 175.490 37.4614  -2
  12 -12   7 175.490 37.4614   1
  13 -12   7 195.606 29.2829   1
   6  11  17 254.094 31.4957  -2
  -6 -11   7 254.094 31.4957   1
   5  11  16 -12.603 21.8445  -2
  -5 -11   7 -12.603 21.8445   1
   4  11  15 28.4975 17.5946  -2
  -4 -11   7 28.4975 17.5946   1
   3  11  14 95.7222 14.8894  -2
  -3 -11   7 95.7222 14.8894   1
   2  11  13 3.14211 15.2475  -2
  -2 -11   7 3.14211 15.2475   1
  -1 -11   7 33.8185 5.59930   1
   0  11  12 243.624 31.3162  -2
   0 -11   7 243.624 31.3162   1
  -1  11  11 117.918 13.7161  -2
   1 -11   7 117.918 13.7161   1
  -2  11  10 760.371 26.0212  -2
   2 -11   7 760.371 26.0212   1
  -3  11   9 86.9390 11.8429  -2
   3 -11   7 86.9390 11.8429   1
  -4  11   8 24.6141 12.3721  -2
   4 -11   7 24.6141 12.3721   1
  -5  11   7 120.250 9.95987  -2
   5 -11   7 120.250 9.95987   1
  -6  11   6 75.0228 9.20801  -2
   6 -11   7 75.0228 9.20801   1
  -7  11   5 2.05521 7.43648  -2
   7 -11   7 2.05521 7.43648   1
  -8  11   4 278.342 14.1561  -2
   8 -11   7 278.342 14.1561   1
  -9  11   3 4.51926 11.1861  -2
   9 -11   7 4.51926 11.1861   1
 -10  11   2 48.7420 13.3985  -2
  10 -11   7 48.7420 13.3985   1
 -11  11   1 120.754 16.3763  -2
  11 -11   7 120.754 16.3763   1
 -12  11   0 334.609 18.6856  -2
  12 -11   7 334.609 18.6856   1
  13 -11   1 304.191 21.5002  -2
  13 -11   7 304.191 21.5002   1
  14 -11   2 309.121 48.3385  -2
  14 -11   7 309.121 48.3385   1
  -7 -10   7 47.9369 17.7612   1
   6  10  17 124.919 28.8861  -2
  -6 -10   7 124.919 28.8861   1
   5  10  16 190.034 19.7899  -2
  -5 -10   7 190.034 19.7899   1
   4  10  15 16.3655 15.3314  -2
  -4 -10   7 16.3655 15.3314   1
   3  10  14 70.1017 11.0570  -2
  -3 -10   7 70.1017 11.0570   1
   2  10  13 277.803 11.9563  -2
  -2 -10   7 277.803 11.9563   1
   1  10  12 130.114 12.7184  -2
  -1 -10   7 130.114 12.7184   1
   0  10  11 278.048 12.0869  -2
   0 -10   7 278.048 12.0869   1
  -1  10  10 106.978 9.78411  -2
   1 -10   7 106.978 9.78411   1
  -2  10   9 532.826 19.5619  -2
   2 -10   7 532.826 19.5619   1
  -3  10   8 46.3490 10.2799  -2
   3 -10   7 46.3490 10.2799   1
  -4  10   7 335.323 23.4786  -2
   4 -10   7 335.323 23.4786   1
   5 -10   7 302.992 11.9584   1
   6 -10   7 125.387 6.96258   1
  -7  10   5 969.364 70.6822  -2
   7 -10   7 969.364 70.6822   1
  -8  10   4 1114.79 37.8202  -2
   8 -10   7 1114.79 37.8202   1
  -9  10   3 234.047 15.1124  -2
   9 -10   7 234.047 15.1124   1
 -10  10   2 12.2843 11.1780  -2
  10 -10   7 12.2843 11.1780   1
 -11  10   1 400.416 17.0656  -2
  11 -10   7 400.416 17.0656   1
 -12  10   0 313.872 15.9613  -2
  12 -10   7 313.872 15.9613   1
  13 -10   1 310.476 17.4620  -2
  13 -10   7 310.476 17.4620   1
  14 -10   2 18.7061 13.1395  -2
  14 -10   7 18.7061 13.1395   1
   8   9  18 72.7890 43.9186  -2
  -8  -9   7 72.7890 43.9186   1
   7   9  17 22.3642 29.4145  -2
  -7  -9   7 22.3642 29.4145   1
   6   9  16 178.928 29.9366  -2
  -6  -9   7 178.928 29.9366   1
   5   9  15 137.457 22.0329  -2
  -5  -9   7 137.457 22.0329   1
  -4  -9   7 10.2181 6.01314   1
  -3  -9   7 28.1853 6.33203   1
   2   9  13 308.826 25.5119  -2
  -2  -9   7 308.826 25.5119   1
   1   9  12 201.400 12.6809  -2
  -1  -9   7 201.400 12.6809   1
   0   9  11 11.3588 9.44622  -2
   0  -9   7 11.3588 9.44622   1
  -1   9  10 451.638 15.3934  -2
   1  -9   7 451.638 15.3934   1
  -2   9   9 704.252 25.5054  -2
   2  -9   7 704.252 25.5054   1
  -3   9   8 299.864 13.9017  -2
   3  -9   7 299.864 13.9017   1
  -4   9   7 170.403 12.0703  -2
   4  -9   7 170.403 12.0703   1
  -5   9   6 88.0800 7.91795  -2
   5  -9   7 88.0800 7.91795   1
  -6   9   5 26.0771 8.01511  -2
   6  -9   7 26.0771 8.01511   1
  -7   9   4 94.6928 9.85904  -2
   7  -9   7 94.6928 9.85904   1
  -8   9   3 1869.72 59.9342  -2
   8  -9   7 1869.72 59.9342   1
  -9   9   2 324.831 18.6562  -2
   9  -9   7 324.831 18.6562   1
 -10   9   1 45.3185 14.9620  -2
  10  -9   7 45.3185 14.9620   1
 -11   9   0 893.060 37.3198  -2
  11  -9   7 893.060 37.3198   1
  12  -9   1 112.427 33.7770  -2
  12  -9   7 112.427 33.7770   1
  13  -9   1 145.442 35.1854  -2
  13  -9   7 145.442 35.1854   1
  14  -9   2 130.787 19.9978  -2
  14  -9   7 130.787 19.9978   1
  15  -9   3 456.128 30.6144  -2
  15  -9   7 456.128 30.6144   1
   8   8  18 141.861 21.3172  -2
  -8  -8   7 141.861 21.3172   1
   7   8  17 181.395 16.5320  -2
  -7  -8   7 181.395 16.5320   1
   6   8  16 52.0107 15.5786  -2
  -6  -8   7 52.0107 15.5786   1
   5   8  15 177.026 14.4095  -2
  -5  -8   7 177.026 14.4095   1
   4   8  14 264.065 13.0199  -2
  -4  -8   7 264.065 13.0199   1
   3   8  13 47.1915 11.8560  -2
  -3  -8   7 47.1915 11.8560   1
   2   8  12 253.146 14.3938  -2
  -2  -8   7 253.146 14.3938   1
   1   8  11 1384.02 41.0283  -2
  -1  -8   7 1384.02 41.0283   1
   0   8  10 536.751 21.8041  -2
   0  -8   7 536.751 21.8041   1
  -1   8   9 2.54648 10.1237  -2
   1  -8   7 2.54648 10.1237   1
   2  -8   7 109.690 5.93480   1
   3  -8   7 51.3893 4.49043   1
   4  -8   7 41.2541 4.33561   1
  -5   8   6 52.4558 16.0609  -2
   5  -8   7 52.4558 16.0609   1
  -6   8   5 579.008 21.8008  -2
   6  -8   7 579.008 21.8008   1
  -7   8   4 93.7215 11.1987  -2
   7  -8   7 93.7215 11.1987   1
  -8   8   3 527.237 20.3879  -2
   8  -8   7 527.237 20.3879   1
  -9   8   2 177.412 10.6578  -2
   9  -8   7 177.412 10.6578   1
 -10   8   1 47.4969 8.23744  -2
  10  -8   7 47.4969 8.23744   1
 -11   8   0 301.037 12.2418  -2
  11  -8   7 301.037 12.2418   1
  12  -8   1 78.4153 10.5911  -2
  12  -8   7 78.4153 10.5911   1
  13  -8   2 208.498 13.3303  -2
  13  -8   7 208.498 13.3303   1
  14  -8   3 21.0975 16.3565  -2
  14  -8   7 21.0975 16.3565   1
  15  -8   4 23.3393 20.4997  -2
  15  -8   7 23.3393 20.4997   1
  16  -8   5 147.333 53.4616  -2
  16  -8   7 147.333 53.4616   1
   9   7  18 258.253 26.2506  -2
  -9  -7   7 258.253 26.2506   1
   8   7  17 20.7181 21.4667  -2
  -8  -7   7 20.7181 21.4667   1
   7   7  16 34.2095 43.5729  -2
  -7  -7   7 34.2095 43.5729   1
  -6  -7   7 29.1241 7.22241   1
   5   7  15 -36.449 33.9435  -2
  -5  -7   7 -36.449 33.9435   1
   4   7  14 90.7710 16.3659  -2
  -4  -7   7 90.7710 16.3659   1
   3   7  13 111.600 14.3446  -2
  -3  -7   7 111.600 14.3446   1
   2   7  12 49.3106 10.5285  -2
  -2  -7   7 49.3106 10.5285   1
   1   7  11 344.747 13.4451  -2
  -1  -7   7 344.747 13.4451   1
   0   7  10 40.9901 7.39335  -2
   0  -7   7 40.9901 7.39335   1
  -1   7   9 106.093 6.84458  -2
   1  -7   7 106.093 6.84458   1
  -2   7   8 420.859 15.8085  -2
   2  -7   7 420.859 15.8085   1
  -3   7   7 770.246 26.2465  -2
   3  -7   7 770.246 26.2465   1
  -4   7   6 1216.20 39.4283  -2
   4  -7   7 1216.20 39.4283   1
  -5   7   5 308.028 13.3267  -2
   5  -7   7 308.028 13.3267   1
  -6   7   4 182.722 9.83062  -2
   6  -7   7 182.722 9.83062   1
  -7   7   3 807.319 27.5822  -2
   7  -7   7 807.319 27.5822   1
  -8   7   2 97.1787 24.6930  -2
   8  -7   7 97.1787 24.6930   1
   9  -7   7 15.5693 4.93043   1
  10  -7   7 116.008 7.42556   1
 -11   7   0 322.153 20.0557  -2
  11  -7   7 322.153 20.0557   1
  12  -7   1 630.215 25.6901  -2
  12  -7   7 630.215 25.6901   1
  13  -7   2 654.497 23.8995  -2
  13  -7   7 654.497 23.8995   1
  14  -7   3 36.3261 12.4702  -2
  14  -7   7 36.3261 12.4702   1
  15  -7   4 423.935 22.5515  -2
  15  -7   7 423.935 22.5515   1
  16  -7   5 469.387 24.1764  -2
  16  -7   7 469.387 24.1764   1
 -10  -6   7 104.091 22.8851   1
   9   6  18 68.9107 17.8995  -2
  -9  -6   7 68.9107 17.8995   1
   8   6  17 354.713 21.6127  -2
  -8  -6   7 354.713 21.6127   1
   7   6  16 159.887 15.3703  -2
  -7  -6   7 159.887 15.3703   1
   6   6  15 65.2842 11.0905  -2
  -6  -6   7 65.2842 11.0905   1
   5   6  14 149.024 11.7048  -2
  -5  -6   7 149.024 11.7048   1
   4   6  13 72.4033 10.4312  -2
  -4  -6   7 72.4033 10.4312   1
   3   6  12 484.021 23.2740  -2
  -3  -6   7 484.021 23.2740   1
   2   6  11 283.589 14.1380  -2
  -2  -6   7 283.589 14.1380   1
   1   6  10 129.087 18.5962  -2
  -1  -6   7 129.087 18.5962   1
   0  -6   7 491.112 14.5565   1
   1  -6   7 871.943 23.7841   1
   2  -6   7 274.101 9.36969   1
  -3   6   7 528.697 19.3911  -2
   3  -6   7 528.697 19.3911   1
  -4   6   6 454.040 15.6177  -2
   4  -6   7 454.040 15.6177   1
  -5   6   5 47.0866 6.46951  -2
   5  -6   7 47.0866 6.46951   1
  -6   6   4 212.485 9.85830  -2
   6  -6   7 212.485 9.85830   1
  -7   6   3 938.274 63.1077  -2
   7  -6   7 938.274 63.1077   1
  -8   6   2 229.612 9.03156  -2
   8  -6   7 229.612 9.03156   1
  -9   6   1 238.511 14.0109  -2
   9  -6   7 238.511 14.0109   1
 -10   6   0 1015.32 34.0480  -2
  10  -6   7 1015.32 34.0480   1
  11  -6   1 912.340 28.5822  -2
  11  -6   7 912.340 28.5822   1
  12  -6   2 535.548 22.4877  -2
  12  -6   7 535.548 22.4877   1
  13  -6   3 804.902 27.5165  -2
  13  -6   7 804.902 27.5165   1
  14  -6   4 701.188 28.4705  -2
  14  -6   7 701.188 28.4705   1
  15  -6   5 700.994 64.8781  -2
  15  -6   7 700.994 64.8781   1
  16  -6   7 4.66200 8.95749   1
  17  -6   6 284.859 60.6211  -2
  17  -6   7 284.859 60.6211   1
  10   5  18 102.726 47.0191  -2
 -10  -5   7 102.726 47.0191   1
  -9  -5   7 3.49140 9.73838   1
  -8  -5   7 10.9567 6.82149   1
   7   5  16 26.4411 19.5823  -2
  -7  -5   7 26.4411 19.5823   1
   6   5  15 319.852 16.3929  -2
  -6  -5   7 319.852 16.3929   1
   5   5  14 295.001 14.3109  -2
  -5  -5   7 295.001 14.3109   1
   4   5  13 273.312 13.0984  -2
  -4  -5   7 273.312 13.0984   1
   3   5  12 536.916 23.9186  -2
  -3  -5   7 536.916 23.9186   1
   2   5  11 123.745 9.76474  -2
  -2  -5   7 123.745 9.76474   1
   1   5  10 379.071 31.4738  -2
  -1  -5   7 379.071 31.4738   1
   0   5   9 530.028 18.8022  -2
   0  -5   7 530.028 18.8022   1
  -1   5   8 491.647 14.3783  -2
   1  -5   7 491.647 14.3783   1
  -2   5   7 23.6916 5.56267  -2
   2  -5   7 23.6916 5.56267   1
  -3   5   6 1218.34 39.3719  -2
   3  -5   7 1218.34 39.3719   1
  -4   5   5 130.861 8.12201  -2
   4  -5   7 130.861 8.12201   1
  -5   5   4 1091.86 68.3213  -2
   5  -5   7 1091.86 68.3213   1
   6  -5   7 170.088 7.00907   1
   7  -5   7 7.90545 3.33140   1
  -8   5   2 644.249 44.9367  -2
   8  -5   7 644.249 44.9367   1
  -9   5   1 60.8337 11.8620  -2
   9  -5   7 60.8337 11.8620   1
 -10   5   0 859.068 41.6979  -2
  10  -5   7 859.068 41.6979   1
  11  -5   1 639.129 21.6055  -2
  11  -5   7 639.129 21.6055   1
  12  -5   2 166.066 11.7697  -2
  12  -5   7 166.066 11.7697   1
  13  -5   3 118.912 11.0889  -2
  13  -5   7 118.912 11.0889   1
  14  -5   4 409.011 15.7033  -2
  14  -5   7 409.011 15.7033   1
  15  -5   5 371.813 16.3371  -2
  15  -5   7 371.813 16.3371   1
  16  -5   6 212.408 17.9254  -2
  16  -5   7 212.408 17.9254   1
  17  -5   7 737.939 70.6179  -2
  17  -5   7 737.939 70.6179   1
 -11  -4   7 384.749 45.6769   1
  10   4  18 255.682 20.0259  -2
 -10  -4   7 255.682 20.0259   1
   9   4  17 15.5675 12.7492  -2
  -9  -4   7 15.5675 12.7492   1
   8   4  16 138.131 12.9323  -2
  -8  -4   7 138.131 12.9323   1
   7   4  15 634.637 22.9653  -2
  -7  -4   7 634.637 22.9653   1
   6   4  14 153.203 12.5555  -2
  -6  -4   7 153.203 12.5555   1
   5   4  13 42.3985 10.6435  -2
  -5  -4   7 42.3985 10.6435   1
   4   4  12 122.069 25.9810  -2
  -4  -4   7 122.069 25.9810   1
  -3  -4   7 -2.3530 3.74020   1
  -2  -4   7 69.7786 6.07849   1
  -1  -4   7 440.952 13.2915   1
   0   4   9 402.312 15.1062  -2
   0  -4   7 402.312 15.1062   1
  -1   4   8 1027.51 27.4916  -2
   1  -4   7 1027.51 27.4916   1
  -2   4   7 1590.44 41.1927  -2
   2  -4   7 1590.44 41.1927   1
  -3   4   6 60.1447 5.77395  -2
   3  -4   7 60.1447 5.77395   1
  -4   4   5 1.81352 4.16755  -2
   4  -4   7 1.81352 4.16755   1
  -5   4   4 1068.87 28.0476  -2
   5  -4   7 1068.87 28.0476   1
  -6   4   3 334.700 10.5773  -2
   6  -4   7 334.700 10.5773   1
  -7   4   2 166.556 7.48842  -2
   7  -4   7 166.556 7.48842   1
  -8   4   1 135.545 7.88706  -2
   8  -4   7 135.545 7.88706   1
  -9   4   0 309.830 14.5393  -2
   9  -4   7 309.830 14.5393   1
  10  -4   1 223.716 12.4937  -2
  10  -4   7 223.716 12.4937   1
  11  -4   2 431.729 26.5474  -2
  11  -4   7 431.729 26.5474   1
  12  -4   3 99.8638 23.5542  -2
  12  -4   7 99.8638 23.5542   1
  13  -4   7 17.8988 5.37513   1
  14  -4   7 11.5324 5.70819   1
  15  -4   5 12.6297 22.8609  -2
  15  -4   7 12.6297 22.8609   1
  16  -4   6 103.451 33.8307  -2
  16  -4   7 103.451 33.8307   1
  17  -4   7 55.0817 31.3409  -2
  17  -4   7 55.0817 31.3409   1
  11   3  19 281.512 43.7559  -2
 -11  -3   7 281.512 43.7559   1
  10   3  18 35.2623 48.0562  -2
 -10  -3   7 35.2623 48.0562   1
   9   3  17 536.901 30.9433  -2
  -9  -3   7 536.901 30.9433   1
   8   3  16 340.385 17.3055  -2
  -8  -3   7 340.385 17.3055   1
   7   3  15 156.207 12.2307  -2
  -7  -3   7 156.207 12.2307   1
   6   3  14 388.016 15.7152  -2
  -6  -3   7 388.016 15.7152   1
   5   3  13 100.808 9.90928  -2
  -5  -3   7 100.808 9.90928   1
   4   3  12 71.9523 7.13439  -2
  -4  -3   7 71.9523 7.13439   1
   3   3  11 362.469 20.1954  -2
  -3  -3   7 362.469 20.1954   1
   2   3  10 189.386 8.94956  -2
  -2  -3   7 189.386 8.94956   1
   1   3   9 122.030 8.72386  -2
  -1  -3   7 122.030 8.72386   1
   0   3   8 212.901 8.82518  -2
   0  -3   7 212.901 8.82518   1
  -1   3   7 127.500 6.09380  -2
   1  -3   7 127.500 6.09380   1
  -2   3   6 73.0085 8.64605  -2
   2  -3   7 73.0085 8.64605   1
  -3   3   5 1069.09 65.7407  -2
   3  -3   7 1069.09 65.7407   1
   4  -3   7 7.11524 2.39636   1
   5  -3   7 124.475 5.51410   1
  -6   3   3 127.623 11.2181  -2
   6  -3   7 127.623 11.2181   1
  -7   3   2 22.2049 7.46656  -2
   7  -3   7 22.2049 7.46656   1
  -8   3   1 391.654 14.0578  -2
   8  -3   7 391.654 14.0578   1
  -9   3   0 330.230 17.1141  -2
   9  -3   7 330.230 17.1141   1
  10  -3   1 311.021 12.6410  -2
  10  -3   7 311.021 12.6410   1
  11  -3   2 148.921 12.2986  -2
  11  -3   7 148.921 12.2986   1
  12  -3   3 1352.02 39.7765  -2
  12  -3   7 1352.02 39.7765   1
  13  -3   4 9.33583 8.66989  -2
  13  -3   7 9.33583 8.66989   1
  14  -3   5 277.449 15.4433  -2
  14  -3   7 277.449 15.4433   1
  15  -3   6 13.8194 12.8187  -2
  15  -3   7 13.8194 12.8187   1
  16  -3   7 48.2037 30.8254  -2
  16  -3   7 48.2037 30.8254   1
  17  -3   8 81.9770 32.5142  -2
  17  -3   7 81.9770 32.5142   1
  11   2  18 345.300 23.7362  -2
 -11  -2   7 345.300 23.7362   1
  10   2  17 42.5523 16.0394  -2
 -10  -2   7 42.5523 16.0394   1
   9   2  16 43.1843 14.3993  -2
  -9  -2   7 43.1843 14.3993   1
   8   2  15 168.209 13.9252  -2
  -8  -2   7 168.209 13.9252   1
   7   2  14 125.240 13.3726  -2
  -7  -2   7 125.240 13.3726   1
  -6  -2   7 162.940 8.81076   1
  -5  -2   7 496.721 18.3101   1
  -4  -2   7 101.632 6.30842   1
  -3  -2   7 4.49380 4.36866   1
   2   2  10 824.887 24.9413  -2
  -2  -2   7 824.887 24.9413   1
   1   2   9 200.707 10.9550  -2
  -1  -2   7 200.707 10.9550   1
   0   2   8 313.465 9.76626  -2
   0  -2   7 313.465 9.76626   1
  -1   2   7 758.588 20.2127  -2
   1  -2   7 758.588 20.2127   1
  -2   2   6 924.250 26.7440  -2
   2  -2   7 924.250 26.7440   1
  -3   2   5 336.640 9.79855  -2
   3  -2   7 336.640 9.79855   1
  -4   2   4 2702.96 74.8145  -2
   4  -2   7 2702.96 74.8145   1
  -5   2   3 87.9657 5.25034  -2
   5  -2   7 87.9657 5.25034   1
  -6   2   2 1241.34 35.4228  -2
   6  -2   7 1241.34 35.4228   1
  -7   2   1 641.350 25.1671  -2
   7  -2   7 641.350 25.1671   1
  -8   2   0 72.3532 14.6755  -2
   8  -2   7 72.3532 14.6755   1
   9  -2   1 1553.05 97.1169  -2
   9  -2   7 1553.05 97.1169   1
  10  -2   7 24.0649 4.35801   1
  11  -2   7 17.3850 4.41161   1
  12  -2   3 171.754 18.5086  -2
  12  -2   7 171.754 18.5086   1
  13  -2   4 1924.00 72.9279  -2
  13  -2   7 1924.00 72.9279   1
  14  -2   5 14.5598 12.7191  -2
  14  -2   7 14.5598 12.7191   1
  15  -2   6 32.5563 13.6862  -2
  15  -2   7 32.5563 13.6862   1
  16  -2   7 3678.27 137.378  -2
  16  -2   7 3678.27 137.378   1
  17  -2   8 97.2171 28.1564  -2
  17  -2   7 97.2171 28.1564   1
  18  -2   9 363.116 49.7412  -2
  18  -2   7 363.116 49.7412   1
  11   1  18 55.2665 19.4477  -2
 -11  -1   7 55.2665 19.4477   1
  10   1  17 101.722 16.5130  -2
 -10  -1   7 101.722 16.5130   1
   9   1  16 11.9794 10.7120  -2
  -9  -1   7 11.9794 10.7120   1
   8   1  15 195.239 11.0015  -2
  -8  -1   7 195.239 11.0015   1
   7   1  14 16.3380 7.17860  -2
  -7  -1   7 16.3380 7.17860   1
   6   1  13 33.2806 6.37705  -2
  -6  -1   7 33.2806 6.37705   1
   5   1  12 215.037 13.6065  -2
  -5  -1   7 215.037 13.6065   1
   4   1  11 368.069 17.3709  -2
  -4  -1   7 368.069 17.3709   1
   3   1  10 1043.81 30.7412  -2
  -3  -1   7 1043.81 30.7412   1
   2   1   9 280.001 10.9265  -2
  -2  -1   7 280.001 10.9265   1
   1   1   8 958.301 31.9121  -2
  -1  -1   7 958.301 31.9121   1
   0   1   7 896.247 54.9653  -2
   0  -1   7 896.247 54.9653   1
   1  -1   7 87.0175 3.87413   1
   2  -1   7 2.33096 1.81243   1
  -3   1   5 33.9997 7.87461  -2
   3  -1   7 33.9997 7.87461   1
  -4   1   4 738.185 33.7625  -2
   4  -1   7 738.185 33.7625   1
  -5   1   3 1342.22 42.2824  -2
   5  -1   7 1342.22 42.2824   1
  -6   1   2 741.131 22.0040  -2
   6  -1   7 741.131 22.0040   1
  -7   1   1 46.5976 5.35571  -2
   7  -1   7 46.5976 5.35571   1
  -8   1   0 1372.17 35.9721  -2
   8  -1   7 1372.17 35.9721   1
   9  -1   1 401.174 12.5486  -2
   9  -1   7 401.174 12.5486   1
  10  -1   2 288.876 17.8812  -2
  10  -1   7 288.876 17.8812   1
  11  -1   3 310.625 14.4645  -2
  11  -1   7 310.625 14.4645   1
  12  -1   4 67.0909 11.1849  -2
  12  -1   7 67.0909 11.1849   1
  13  -1   5 429.437 19.7882  -2
  13  -1   7 429.437 19.7882   1
  14  -1   6 107.764 17.4558  -2
  14  -1   7 107.764 17.4558   1
  15  -1   7 80.9069 18.8098  -2
  15  -1   7 80.9069 18.8098   1
  16  -1   8 169.981 40.6913  -2
  16  -1   7 169.981 40.6913   1
  17  -1   7 447.626 32.8986   1
  18  -1   7 8.77274 17.6024   1
  12   0  18 105.019 27.7902  -2
 -12   0   7 105.019 27.7902   1
  11   0  17 172.156 24.8551  -2
 -11   0   7 172.156 24.8551   1
  10   0  16 97.3833 18.6051  -2
 -10   0   7 97.3833 18.6051   1
   9   0  15 436.729 28.0008  -2
  -9   0   7 436.729 28.0008   1
  -8   0   7 290.165 14.6825   1
  -7   0   7 12.9676 5.31657   1
   6   0  13 64.6801 18.4503  -2
  -6   0   7 64.6801 18.4503   1
   5   0  12 1012.21 34.1004  -2
  -5   0   7 1012.21 34.1004   1
   4   0  11 1444.95 47.1182  -2
  -4   0   7 1444.95 47.1182   1
   3   0  10 318.320 11.7040  -2
  -3   0   7 318.320 11.7040   1
   2   0   9 96.3610 5.76203  -2
  -2   0   7 96.3610 5.76203   1
   1   0   8 501.620 15.4899  -2
  -1   0   7 501.620 15.4899   1
   0   0   7 55.7771 3.87097  -2
   0   0   7 55.7771 3.87097   1
  -1   0   6 3465.87 96.1863  -2
   1   0   7 3465.87 96.1863   1
  -2   0   5 345.381 11.0345  -2
   2   0   7 345.381 11.0345   1
  -3   0   4 1399.21 35.8703  -2
   3   0   7 1399.21 35.8703   1
  -4   0   3 2255.91 79.7006  -2
   4   0   7 2255.91 79.7006   1
  -5   0   2 974.275 60.0302  -2
   5   0   7 974.275 60.0302   1
  -6   0   1 192.603 17.0738  -2
   6   0   7 192.603 17.0738   1
   7   0   7 72.8503 4.30119   1
   8   0   7 1130.33 29.9304   1
   9   0   7 71.9007 4.88844   1
  10   0   7 937.217 45.6029   1
  11   0   3 153.686 17.6606  -2
  11   0   7 153.686 17.6606   1
  12   0   4 1955.27 72.7594  -2
  12   0   7 1955.27 72.7594   1
  13   0   5 778.882 28.9573  -2
  13   0   7 778.882 28.9573   1
  14   0   6 215.839 13.2479  -2
  14   0   7 215.839 13.2479   1
  15   0   7 -9.3862 10.7664  -2
  15   0   7 -9.3862 10.7664   1
  16   0   8 24.2397 11.2270  -2
  16   0   7 24.2397 11.2270   1
  17   0   9 57.5523 26.9930  -2
  17   0   7 57.5523 26.9930   1
  12  -1  18 510.875 46.4826  -2
 -12   1   7 510.875 46.4826   1
  11  -1  17 64.7162 20.0879  -2
 -11   1   7 64.7162 20.0879   1
  10  -1  16 81.7306 12.3550  -2
 -10   1   7 81.7306 12.3550   1
   9  -1  15 90.5680 11.2992  -2
  -9   1   7 90.5680 11.2992   1
   8  -1  14 6.79022 10.8340  -2
  -8   1   7 6.79022 10.8340   1
   7  -1  13 724.340 23.4733  -2
  -7   1   7 724.340 23.4733   1
   6  -1  12 237.166 13.8010  -2
  -6   1   7 237.166 13.8010   1
   5  -1  11 410.496 16.9492  -2
  -5   1   7 410.496 16.9492   1
   4  -1  10 928.073 31.7435  -2
  -4   1   7 928.073 31.7435   1
   3  -1   9 132.579 17.9214  -2
  -3   1   7 132.579 17.9214   1
  -2   1   7 359.274 11.7351   1
  -1   1   7 545.610 16.4253   1
   0   1   7 1049.92 29.9037   1
  -1  -1   6 1000.75 32.2383  -2
   1   1   7 1000.75 32.2383   1
  -2  -1   5 194.730 7.35350  -2
   2   1   7 194.730 7.35350   1
  -3  -1   4 297.496 8.76984  -2
   3   1   7 297.496 8.76984   1
  -4  -1   3 501.207 13.7260  -2
   4   1   7 501.207 13.7260   1
  -5  -1   2 217.612 7.36650  -2
   5   1   7 217.612 7.36650   1
  -6  -1   1 104.230 5.11756  -2
   6   1   7 104.230 5.11756   1
   7   1   0 606.609 16.8934  -2
   7   1   7 606.609 16.8934   1
   8   1   1 58.6102 6.57195  -2
   8   1   7 58.6102 6.57195   1
   9   1   2 417.505 14.9728  -2
   9   1   7 417.505 14.9728   1
  10   1   3 235.567 17.4002  -2
  10   1   7 235.567 17.4002   1
  11   1   4 153.347 13.6923  -2
  11   1   7 153.347 13.6923   1
  12   1   5 233.908 25.9328  -2
  12   1   7 233.908 25.9328   1
  13   1   6 1079.41 74.0447  -2
  13   1   7 1079.41 74.0447   1
  14   1   7 69.0435 7.53154   1
  15   1   7 280.370 35.3214  -2
  15   1   7 280.370 35.3214   1
  16   1   7 72.0260 11.3730   1
  17   1   9 64.8828 45.8158  -2
  17   1   7 64.8828 45.8158   1
  12  -2  17 146.273 33.3679  -2
 -12   2   7 146.273 33.3679   1
  11  -2  16 223.994 50.4559  -2
 -11   2   7 223.994 50.4559   1
 -10   2   7 28.9204 7.44484   1
   9  -2  15 402.845 23.2132  -2
  -9   2   7 402.845 23.2132   1
   8  -2  14 506.030 21.8981  -2
  -8   2   7 506.030 21.8981   1
   7  -2  13 53.9841 11.6940  -2
  -7   2   7 53.9841 11.6940   1
   6  -2  12 39.8975 9.36020  -2
  -6   2   7 39.8975 9.36020   1
   5  -2  11 37.4388 7.49069  -2
  -5   2   7 37.4388 7.49069   1
   4  -2  10 575.727 20.1877  -2
  -4   2   7 575.727 20.1877   1
   3  -2   9 321.512 14.0206  -2
  -3   2   7 321.512 14.0206   1
   2  -2   8 41.8864 4.48002  -2
  -2   2   7 41.8864 4.48002   1
   1  -2   7 811.928 26.3160  -2
  -1   2   7 811.928 26.3160   1
   0  -2   6 416.450 14.7085  -2
   0   2   7 416.450 14.7085   1
  -1  -2   5 776.966 25.5849  -2
   1   2   7 776.966 25.5849   1
  -2  -2   4 446.369 17.8405  -2
   2   2   7 446.369 17.8405   1
   3   2   7 28.5287 2.14092   1
   4   2   7 243.797 8.32405   1
   5   2   7 7.34414 2.34429   1
   6   2   7 1082.67 28.3664   1
   7   2   7 69.5274 4.75818   1
   8   2   1 444.637 32.3771  -2
   8   2   7 444.637 32.3771   1
   9   2   2 60.4891 12.5698  -2
   9   2   7 60.4891 12.5698   1
  10   2   3 261.613 15.3581  -2
  10   2   7 261.613 15.3581   1
  11   2   4 261.301 13.7210  -2
  11   2   7 261.301 13.7210   1
  12   2   5 125.973 12.2578  -2
  12   2   7 125.973 12.2578   1
  13   2   6 186.549 11.8494  -2
  13   2   7 186.549 11.8494   1
  14   2   7 51.7823 10.5189  -2
  14   2   7 51.7823 10.5189   1
  15   2   8 952.045 34.9418  -2
  15   2   7 952.045 34.9418   1
  16   2   9 505.006 29.9025  -2
  16   2   7 505.006 29.9025   1
  17   2  10 239.243 35.5531  -2
  17   2   7 239.243 35.5531   1
  12  -3  17 5.55052 14.5406  -2
 -12   3   7 5.55052 14.5406   1
  11  -3  16 38.8615 13.6470  -2
 -11   3   7 38.8615 13.6470   1
  10  -3  15 188.374 14.7550  -2
 -10   3   7 188.374 14.7550   1
   9  -3  14 101.506 16.4714  -2
  -9   3   7 101.506 16.4714   1
   8  -3  13 100.955 11.2178  -2
  -8   3   7 100.955 11.2178   1
   7  -3  12 9.16919 12.1105  -2
  -7   3   7 9.16919 12.1105   1
   6  -3  11 494.390 27.1831  -2
  -6   3   7 494.390 27.1831   1
   5  -3  10 102.415 13.2839  -2
  -5   3   7 102.415 13.2839   1
  -4   3   7 79.9088 5.81116   1
  -3   3   7 2.50708 2.94656   1
   2  -3   8 6.72531 4.63326  -2
  -2   3   7 6.72531 4.63326   1
   1  -3   7 142.633 7.84441  -2
  -1   3   7 142.633 7.84441   1
   0  -3   6 2131.12 59.9681  -2
   0   3   7 2131.12 59.9681   1
  -1  -3   5 14.8505 4.32849  -2
   1   3   7 14.8505 4.32849   1
  -2  -3   4 89.8676 3.63117  -2
   2   3   7 89.8676 3.63117   1
  -3  -3   3 2098.36 53.3698  -2
   3   3   7 2098.36 53.3698   1
  -4  -3   2 2215.65 56.3553  -2
   4   3   7 2215.65 56.3553   1
  -5  -3   1 113.122 5.73851  -2
   5   3   7 113.122 5.73851   1
   6   3   0 562.028 17.4329  -2
   6   3   7 562.028 17.4329   1
   7   3   1 273.501 15.4648  -2
   7   3   7 273.501 15.4648   1
   8   3   2 1689.04 75.4973  -2
   8   3   7 1689.04 75.4973   1
   9   3   3 280.664 24.8240  -2
   9   3   7 280.664 24.8240   1
  10   3   7 11.5243 5.65332   1
  11   3   7 8.44812 4.81409   1
  12   3   7 79.4696 7.00613   1
  13   3   6 160.285 24.3616  -2
  13   3   7 160.285 24.3616   1
  14   3   7 37.7383 17.1649  -2
  14   3   7 37.7383 17.1649   1
  15   3   8 223.409 16.6759  -2
  15   3   7 223.409 16.6759   1
  16   3   9 83.9345 22.2317  -2
  16   3   7 83.9345 22.2317   1
  17   3  10 379.421 36.8892  -2
  17   3   7 379.421 36.8892   1
 -12   4   7 127.597 14.8098   1
  11  -4  16 -6.3318 23.4234  -2
 -11   4   7 -6.3318 23.4234   1
  10  -4  15 99.7392 16.2223  -2
 -10   4   7 99.7392 16.2223   1
   9  -4  14 44.0489 14.1823  -2
  -9   4   7 44.0489 14.1823   1
   8  -4  13 257.219 14.3546  -2
  -8   4   7 257.219 14.3546   1
   7  -4  12 153.974 10.0432  -2
  -7   4   7 153.974 10.0432   1
   6  -4  11 337.240 15.9272  -2
  -6   4   7 337.240 15.9272   1
   5  -4  10 438.682 18.5284  -2
  -5   4   7 438.682 18.5284   1
   4  -4   9 699.957 20.9038  -2
  -4   4   7 699.957 20.9038   1
   3  -4   8 1385.98 39.3359  -2
  -3   4   7 1385.98 39.3359   1
   2  -4   7 1765.98 49.5889  -2
  -2   4   7 1765.98 49.5889   1
   1  -4   6 784.864 25.8607  -2
  -1   4   7 784.864 25.8607   1
   0  -4   5 2645.61 95.1486  -2
   0   4   7 2645.61 95.1486   1
   1   4   7 183.642 6.30952   1
   2   4   7 901.026 23.2160   1
   3   4   7 356.388 9.95228   1
   4   4   7 246.140 7.57713   1
  -5  -4   1 234.629 17.8431  -2
   5   4   7 234.629 17.8431   1
   6   4   0 1387.84 50.3951  -2
   6   4   7 1387.84 50.3951   1
   7   4   1 2393.85 105.111  -2
   7   4   7 2393.85 105.111   1
   8   4   2 515.961 16.9559  -2
   8   4   7 515.961 16.9559   1
   9   4   3 1485.91 43.0240  -2
   9   4   7 1485.91 43.0240   1
  10   4   4 388.975 22.8241  -2
  10   4   7 388.975 22.8241   1
  11   4   5 78.9994 10.8001  -2
  11   4   7 78.9994 10.8001   1
  12   4   6 27.9668 10.4434  -2
  12   4   7 27.9668 10.4434   1
  13   4   7 -4.9305 11.0851  -2
  13   4   7 -4.9305 11.0851   1
  14   4   8 126.912 16.2249  -2
  14   4   7 126.912 16.2249   1
  15   4   9 37.2827 15.3966  -2
  15   4   7 37.2827 15.3966   1
  16   4  10 88.0211 29.1969  -2
  16   4   7 88.0211 29.1969   1
  17   4   7 8.45259 14.1101   1
  12  -5  16 86.4108 16.6833  -2
 -12   5   7 86.4108 16.6833   1
  11  -5  15 64.8914 17.9077  -2
 -11   5   7 64.8914 17.9077   1
  10  -5  14 289.195 15.8806  -2
 -10   5   7 289.195 15.8806   1
   9  -5  13 473.416 34.1073  -2
  -9   5   7 473.416 34.1073   1
   8  -5  12 332.904 19.7886  -2
  -8   5   7 332.904 19.7886   1
   7  -5  11 161.550 16.8372  -2
  -7   5   7 161.550 16.8372   1
  -6   5   7 346.991 13.7953   1
   5  -5  10 42.3974 9.62249  -2
  -5   5   7 42.3974 9.62249   1
   4  -5   9 289.258 11.7075  -2
  -4   5   7 289.258 11.7075   1
   3  -5   8 270.953 9.35101  -2
  -3   5   7 270.953 9.35101   1
   2  -5   7 19.5830 3.13399  -2
  -2   5   7 19.5830 3.13399   1
   1  -5   6 1388.39 51.5447  -2
  -1   5   7 1388.39 51.5447   1
   0  -5   5 987.915 44.2135  -2
   0   5   7 987.915 44.2135   1
  -1  -5   4 2198.79 78.5895  -2
   1   5   7 2198.79 78.5895   1
  -2  -5   3 232.247 9.91392  -2
   2   5   7 232.247 9.91392   1
  -3  -5   2 1477.38 53.7510  -2
   3   5   7 1477.38 53.7510   1
  -4  -5   1 787.934 25.5086  -2
   4   5   7 787.934 25.5086   1
   5   5   0 611.987 23.0123  -2
   5   5   7 611.987 23.0123   1
   6   5   1 1905.13 84.9113  -2
   6   5   7 1905.13 84.9113   1
   7   5   2 14.2363 15.5640  -2
   7   5   7 14.2363 15.5640   1
   8   5   7 83.1303 5.17353   1
   9   5   7 91.2294 6.46001   1
  10   5   7 250.522 12.2309   1
  11   5   5 12.9299 19.9761  -2
  11   5   7 12.9299 19.9761   1
  12   5   6 457.874 25.0219  -2
  12   5   7 457.874 25.0219   1
  13   5   7 1590.69 53.4331  -2
  13   5   7 1590.69 53.4331   1
  14   5   8 579.820 22.7577  -2
  14   5   7 579.820 22.7577   1
  15   5   9 78.0558 13.7513  -2
  15   5   7 78.0558 13.7513   1
  16   5  10 16.9862 19.3167  -2
  16   5   7 16.9862 19.3167   1
  17   5  11 227.659 34.8093  -2
  17   5   7 227.659 34.8093   1
 -12   6   7 106.724 18.1562   1
  11  -6  15 165.314 13.7167  -2
 -11   6   7 165.314 13.7167   1
  10  -6  14 134.226 14.1166  -2
 -10   6   7 134.226 14.1166   1
   9  -6  13 50.4791 10.7384  -2
  -9   6   7 50.4791 10.7384   1
   8  -6  12 486.580 18.4024  -2
  -8   6   7 486.580 18.4024   1
   7  -6  11 267.449 10.7982  -2
  -7   6   7 267.449 10.7982   1
   6  -6  10 885.336 26.1024  -2
  -6   6   7 885.336 26.1024   1
   5  -6   9 -1.1234 4.86586  -2
  -5   6   7 -1.1234 4.86586   1
   4  -6   8 403.796 12.8495  -2
  -4   6   7 403.796 12.8495   1
   3  -6   7 538.671 24.9363  -2
  -3   6   7 538.671 24.9363   1
  -2   6   7 95.3216 5.71162   1
  -1   6   7 101.664 4.96867   1
   0   6   7 3.10520 1.85837   1
   1   6   7 1178.18 36.7328   1
  -2  -6   3 985.484 44.6641  -2
   2   6   7 985.484 44.6641   1
  -3  -6   2 49.6664 6.72759  -2
   3   6   7 49.6664 6.72759   1
  -4  -6   1 157.611 15.6489  -2
   4   6   7 157.611 15.6489   1
   5   6   0 1989.75 56.0755  -2
   5   6   7 1989.75 56.0755   1
   6   6   1 964.901 28.0554  -2
   6   6   7 964.901 28.0554   1
   7   6   2 278.770 10.0939  -2
   7   6   7 278.770 10.0939   1
   8   6   3 229.702 8.65097  -2
   8   6   7 229.702 8.65097   1
   9   6   4 49.1224 8.04965  -2
   9   6   7 49.1224 8.04965   1
  10   6   5 21.2587 10.0468  -2
  10   6   7 21.2587 10.0468   1
  11   6   6 91.9872 12.5152  -2
  11   6   7 91.9872 12.5152   1
  12   6   7 32.9936 12.1038  -2
  12   6   7 32.9936 12.1038   1
  13   6   8 219.860 17.4332  -2
  13   6   7 219.860 17.4332   1
  14   6   9 87.6002 21.0439  -2
  14   6   7 87.6002 21.0439   1
  15   6  10 81.4148 39.3985  -2
  15   6   7 81.4148 39.3985   1
  16   6   7 17.3398 8.96111   1
  17   6  11 -66.304 55.1287  -2
  17   6   7 -66.304 55.1287   1
  11  -7  14 128.968 24.7237  -2
 -11   7   7 128.968 24.7237   1
  10  -7  13 116.244 27.4196  -2
 -10   7   7 116.244 27.4196   1
  -9   7   7 21.0957 5.20431   1
   8  -7  12 46.7421 15.3694  -2
  -8   7   7 46.7421 15.3694   1
   7  -7  11 50.3462 7.57960  -2
  -7   7   7 50.3462 7.57960   1
   6  -7  10 11.7054 9.98722  -2
  -6   7   7 11.7054 9.98722   1
   5  -7   9 345.089 15.8755  -2
  -5   7   7 345.089 15.8755   1
   4  -7   8 217.415 10.6561  -2
  -4   7   7 217.415 10.6561   1
   3  -7   7 905.525 33.1172  -2
  -3   7   7 905.525 33.1172   1
   2  -7   6 37.7729 4.88084  -2
  -2   7   7 37.7729 4.88084   1
   1  -7   5 379.042 12.7951  -2
  -1   7   7 379.042 12.7951   1
   0  -7   4 578.957 18.6535  -2
   0   7   7 578.957 18.6535   1
  -1  -7   3 280.789 9.72311  -2
   1   7   7 280.789 9.72311   1
  -2  -7   2 429.727 20.5898  -2
   2   7   7 429.727 20.5898   1
  -3  -7   1 85.5136 7.78410  -2
   3   7   7 85.5136 7.78410   1
   4   7   0 18.6231 9.11756  -2
   4   7   7 18.6231 9.11756   1
   5   7   7 -3.0419 3.80058   1
   6   7   7 1511.48 42.8833   1
   7   7   7 258.213 9.84699   1
   8   7   3 452.662 32.8753  -2
   8   7   7 452.662 32.8753   1
   9   7   4 2269.51 102.942  -2
   9   7   7 2269.51 102.942   1
  10   7   5 528.716 24.3137  -2
  10   7   7 528.716 24.3137   1
  11   7   6 359.803 16.3215  -2
  11   7   7 359.803 16.3215   1
  12   7   7 -4.8724 10.1584  -2
  12   7   7 -4.8724 10.1584   1
  13   7   8 306.801 14.8716  -2
  13   7   7 306.801 14.8716   1
  14   7   9 528.754 19.0576  -2
  14   7   7 528.754 19.0576   1
  15   7  10 281.549 18.5422  -2
  15   7   7 281.549 18.5422   1
  16   7  11 87.6249 17.6870  -2
  16   7   7 87.6249 17.6870   1
  11  -8  14 193.679 22.7747  -2
 -11   8   7 193.679 22.7747   1
  10  -8  13 244.202 11.6485  -2
 -10   8   7 244.202 11.6485   1
   9  -8  12 50.3621 14.8533  -2
  -9   8   7 50.3621 14.8533   1
   8  -8  11 215.297 16.2230  -2
  -8   8   7 215.297 16.2230   1
   7  -8  10 322.095 19.9376  -2
  -7   8   7 322.095 19.9376   1
   6  -8   9 539.114 27.0408  -2
  -6   8   7 539.114 27.0408   1
   5  -8   8 248.553 15.2649  -2
  -5   8   7 248.553 15.2649   1
   4  -8   7 603.400 38.7643  -2
  -4   8   7 603.400 38.7643   1
  -3   8   7 0.52064 3.00655   1
  -2   8   7 805.204 26.0084   1
   1  -8   5 126.962 17.3360  -2
  -1   8   7 126.962 17.3360   1
   0  -8   4 1487.69 53.4397  -2
   0   8   7 1487.69 53.4397   1
  -1  -8   3 1406.27 50.6541  -2
   1   8   7 1406.27 50.6541   1
  -2  -8   2 546.152 20.7009  -2
   2   8   7 546.152 20.7009   1
  -3  -8   1 69.3493 5.57922  -2
   3   8   7 69.3493 5.57922   1
   4   8   0 908.307 29.4794  -2
   4   8   7 908.307 29.4794   1
   5   8   1 1476.43 66.4047  -2
   5   8   7 1476.43 66.4047   1
   6   8   2 38.4914 8.09096  -2
   6   8   7 38.4914 8.09096   1
   7   8   3 123.592 6.64537  -2
   7   8   7 123.592 6.64537   1
   8   8   4 449.252 16.9309  -2
   8   8   7 449.252 16.9309   1
   9   8   5 809.296 33.1817  -2
   9   8   7 809.296 33.1817   1
  10   8   6 174.485 16.6842  -2
  10   8   7 174.485 16.6842   1
  11   8   7 307.041 25.0290  -2
  11   8   7 307.041 25.0290   1
  12   8   8 550.082 49.8308  -2
  12   8   7 550.082 49.8308   1
  13   8   7 298.676 14.9103   1
  14   8   9 32.3757 21.8029  -2
  14   8   7 32.3757 21.8029   1
  15   8  10 15.6048 20.7570  -2
  15   8   7 15.6048 20.7570   1
  16   8  11 229.746 34.0792  -2
  16   8   7 229.746 34.0792   1
 -11   9   7 9.40453 27.2394   1
  10  -9  13 51.3110 18.9235  -2
 -10   9   7 51.3110 18.9235   1
   9  -9  12 79.4542 16.9608  -2
  -9   9   7 79.4542 16.9608   1
   8  -9  11 458.438 30.6184  -2
  -8   9   7 458.438 30.6184   1
   7  -9  10 957.896 44.9707  -2
  -7   9   7 957.896 44.9707   1
   6  -9   9 64.1754 8.25223  -2
  -6   9   7 64.1754 8.25223   1
   5  -9   8 281.153 13.3584  -2
  -5   9   7 281.153 13.3584   1
   4  -9   7 129.691 6.71961  -2
  -4   9   7 129.691 6.71961   1
   3  -9   6 88.4608 7.53991  -2
  -3   9   7 88.4608 7.53991   1
   2  -9   5 20.2955 5.52103  -2
  -2   9   7 20.2955 5.52103   1
   1  -9   4 51.9072 4.86280  -2
  -1   9   7 51.9072 4.86280   1
   0  -9   3 157.248 11.0920  -2
   0   9   7 157.248 11.0920   1
  -1  -9   2 166.161 12.2594  -2
   1   9   7 166.161 12.2594   1
   2   9   7 317.124 10.2597   1
   3   9   7 497.196 17.3855   1
   4   9   7 369.759 13.8466   1
   5   9   7 55.0417 5.05828   1
   6   9   2 87.7927 24.1576  -2
   6   9   7 87.7927 24.1576   1
   7   9   3 24.2967 12.6694  -2
   7   9   7 24.2967 12.6694   1
   8   9   4 142.225 8.44045  -2
   8   9   7 142.225 8.44045   1
   9   9   5 120.740 10.3584  -2
   9   9   7 120.740 10.3584   1
  10   9   6 121.865 10.1543  -2
  10   9   7 121.865 10.1543   1
  11   9   7 484.541 16.0122  -2
  11   9   7 484.541 16.0122   1
  12   9   8 51.8803 12.6571  -2
  12   9   7 51.8803 12.6571   1
  13   9   9 249.192 15.5040  -2
  13   9   7 249.192 15.5040   1
  14   9  10 216.086 20.0901  -2
  14   9   7 216.086 20.0901   1
  15   9  11 208.730 20.1972  -2
  15   9   7 208.730 20.1972   1
  10 -10  12 84.1859 16.3755  -2
 -10  10   7 84.1859 16.3755   1
   9 -10  11 534.274 26.7157  -2
  -9  10   7 534.274 26.7157   1
   8 -10  10 480.237 42.1914  -2
  -8  10   7 480.237 42.1914   1
   7 -10   9 57.1441 14.7663  -2
  -7  10   7 57.1441 14.7663   1
   6 -10   8 239.835 23.1080  -2
  -6  10   7 239.835 23.1080   1
   5 -10   8 72.2502 16.5246  -2
  -5  10   7 72.2502 16.5246   1
   4 -10   7 244.044 23.1432  -2
  -4  10   7 244.044 23.1432   1
   3 -10   6 918.749 42.2348  -2
  -3  10   7 918.749 42.2348   1
   2 -10   5 384.289 16.3719  -2
  -2  10   7 384.289 16.3719   1
   1 -10   4 184.891 7.89928  -2
  -1  10   7 184.891 7.89928   1
   0 -10   3 445.877 17.3930  -2
   0  10   7 445.877 17.3930   1
  -1 -10   2 23.4261 2.69396  -2
   1  10   7 23.4261 2.69396   1
  -2 -10   1 65.9947 4.42061  -2
   2  10   7 65.9947 4.42061   1
   3  10   0 394.402 16.0205  -2
   3  10   7 394.402 16.0205   1
   4  10   1 102.074 9.06846  -2
   4  10   7 102.074 9.06846   1
   5  10   2 928.141 30.8290  -2
   5  10   7 928.141 30.8290   1
   6  10   3 19.7294 12.3056  -2
   6  10   7 19.7294 12.3056   1
   7  10   7 22.6446 6.35654   1
   8  10   5 12.5064 23.9747  -2
   8  10   7 12.5064 23.9747   1
   9  10   6 79.5387 28.9543  -2
   9  10   7 79.5387 28.9543   1
  10  10   7 0.65827 4.99809   1
  11  10   7 6.16811 5.84044   1
  12  10   8 75.9121 15.5299  -2
  12  10   7 75.9121 15.5299   1
  13  10   9 510.293 22.4643  -2
  13  10   7 510.293 22.4643   1
  14  10  10 112.222 21.7462  -2
  14  10   7 112.222 21.7462   1
  15  10  11 259.548 26.9849  -2
  15  10   7 259.548 26.9849   1
  10 -11  12 69.8515 38.6546  -2
 -10  11   7 69.8515 38.6546   1
   9 -11  11 74.9794 14.6891  -2
  -9  11   7 74.9794 14.6891   1
   8 -11  10 40.5499 10.6002  -2
  -8  11   7 40.5499 10.6002   1
   7 -11   9 282.698 20.4692  -2
  -7  11   7 282.698 20.4692   1
   6 -11   8 95.1996 8.97230  -2
  -6  11   7 95.1996 8.97230   1
   5 -11   7 105.038 11.2347  -2
  -5  11   7 105.038 11.2347   1
   4 -11   6 2.06453 9.12753  -2
  -4  11   7 2.06453 9.12753   1
   3 -11   5 817.109 30.7469  -2
  -3  11   7 817.109 30.7469   1
   2 -11   4 336.391 17.1061  -2
  -2  11   7 336.391 17.1061   1
  -1  11   7 5.37274 1.97593   1
   0  11   7 84.5045 11.6104   1
   1  11   7 6.51942 6.42981   1
   2  11   7 188.241 8.36098   1
   3  11   0 272.195 28.4279  -2
   3  11   7 272.195 28.4279   1
   4  11   1 133.686 9.43276  -2
   4  11   7 133.686 9.43276   1
   5  11   2 410.796 22.1671  -2
   5  11   7 410.796 22.1671   1
   6  11   3 108.011 16.6183  -2
   6  11   7 108.011 16.6183   1
   7  11   4 451.707 24.6210  -2
   7  11   7 451.707 24.6210   1
   8  11   5 1077.12 51.6905  -2
   8  11   7 1077.12 51.6905   1
   9  11   6 346.533 23.1547  -2
   9  11   7 346.533 23.1547   1
  10  11   7 288.546 12.2962  -2
  10  11   7 288.546 12.2962   1
  11  11   8 443.631 17.5599  -2
  11  11   7 443.631 17.5599   1
  12  11   9 381.261 18.1997  -2
  12  11   7 381.261 18.1997   1
  13  11  10 -7.7694 19.6705  -2
  13  11   7 -7.7694 19.6705   1
  14  11  11 124.032 53.0086  -2
  14  11   7 124.032 53.0086   1
   9 -12  10 154.586 21.4503  -2
  -9  12   7 154.586 21.4503   1
  -8  12   7 7.71059 7.39109   1
   7 -12   9 201.501 29.5847  -2
  -7  12   7 201.501 29.5847   1
   6 -12   8 78.6542 17.0299  -2
  -6  12   7 78.6542 17.0299   1
   5 -12   7 228.497 14.6815  -2
  -5  12   7 228.497 14.6815   1
   4 -12   6 60.6453 10.3562  -2
  -4  12   7 60.6453 10.3562   1
   3 -12   5 696.154 23.8952  -2
  -3  12   7 696.154 23.8952   1
   2 -12   4 -1.1178 5.01139  -2
  -2  12   7 -1.1178 5.01139   1
   1 -12   3 320.474 13.8268  -2
  -1  12   7 320.474 13.8268   1
   0 -12   2 82.3743 10.4063  -2
   0  12   7 82.3743 10.4063   1
  -1 -12   1 2112.27 92.3071  -2
   1  12   7 2112.27 92.3071   1
   2  12   0 2076.33 65.1433  -2
   2  12   7 2076.33 65.1433   1
   3  12   1 493.206 21.0067  -2
   3  12   7 493.206 21.0067   1
   4  12   2 290.421 17.9840  -2
   4  12   7 290.421 17.9840   1
   5  12   3 57.2451 23.0723  -2
   5  12   7 57.2451 23.0723   1
   6  12   4 787.743 43.0366  -2
   6  12   7 787.743 43.0366   1
   7  12   7 58.6301 7.51307   1
   8  12   7 278.023 16.6900   1
   9  12   6 709.685 57.9335  -2
   9  12   7 709.685 57.9335   1
  10  12   7 612.110 31.0883  -2
  10  12   7 612.110 31.0883   1
  11  12   8 1432.50 58.0195  -2
  11  12   7 1432.50 58.0195   1
  12  12   9 370.308 17.3078  -2
  12  12   7 370.308 17.3078   1
  13  12  10 94.0002 24.3281  -2
  13  12   7 94.0002 24.3281   1
   8 -13   9 38.8728 18.9979  -2
  -8  13   7 38.8728 18.9979   1
   7 -13   8 357.944 39.0440  -2
  -7  13   7 357.944 39.0440   1
   6 -13   7 179.336 15.2810  -2
  -6  13   7 179.336 15.2810   1
   5 -13   6 316.052 21.3737  -2
  -5  13   7 316.052 21.3737   1
   4 -13   5 -3.2854 20.6402  -2
  -4  13   7 -3.2854 20.6402   1
  -3  13   7 207.519 9.78149   1
  -2  13   7 93.4760 5.31438   1
  -1  13   7 57.9479 8.40134   1
   0 -13   2 125.529 25.5854  -2
   0  13   7 125.529 25.5854   1
  -1 -13   1 103.273 22.4837  -2
   1  13   7 103.273 22.4837   1
   2  13   0 222.422 12.3978  -2
   2  13   7 222.422 12.3978   1
   3  13   1 996.437 37.5189  -2
   3  13   7 996.437 37.5189   1
   4  13   2 74.7100 11.0302  -2
   4  13   7 74.7100 11.0302   1
   5  13   3 18.5860 7.61735  -2
   5  13   7 18.5860 7.61735   1
   6  13   4 325.272 16.6493  -2
   6  13   7 325.272 16.6493   1
   7  13   5 174.581 14.9615  -2
   7  13   7 174.581 14.9615   1
   8  13   6 342.502 25.7272  -2
   8  13   7 342.502 25.7272   1
   9  13   7 6.51350 16.7316  -2
   9  13   7 6.51350 16.7316   1
  10  13   8 393.351 24.9915  -2
  10  13   7 393.351 24.9915   1
  11  13   9 115.039 23.5122  -2
  11  13   7 115.039 23.5122   1
  12  13  10 104.816 28.9865  -2
  12  13   7 104.816 28.9865   1
   7 -14   8 400.119 27.4958  -2
  -7  14   7 400.119 27.4958   1
   6 -14   7 987.562 69.7448  -2
  -6  14   7 987.562 69.7448   1
   5 -14   6 19.7116 18.4307  -2
  -5  14   7 19.7116 18.4307   1
   4 -14   5 28.5394 7.47381  -2
  -4  14   7 28.5394 7.47381   1
   3 -14   4 481.009 20.8040  -2
  -3  14   7 481.009 20.8040   1
   2 -14   3 50.1684 6.03500  -2
  -2  14   7 50.1684 6.03500   1
   1 -14   2 29.0240 19.1852  -2
  -1  14   7 29.0240 19.1852   1
   0 -14   1 38.4744 26.9761  -2
   0  14   7 38.4744 26.9761   1
   1  14   0 215.884 12.1867  -2
   1  14   7 215.884 12.1867   1
   2  14   1 158.910 27.1297  -2
   2  14   7 158.910 27.1297   1
   3  14   7 593.917 24.0886   1
   4  14   7 159.282 8.47121   1
   5  14   7 3.63271 4.96165   1
   6  14   4 775.624 60.3239  -2
   6  14   7 775.624 60.3239   1
   7  14   5 302.260 22.7169  -2
   7  14   7 302.260 22.7169   1
   8  14   6 169.379 26.5255  -2
   8  14   7 169.379 26.5255   1
   9  14   7 45.7387 18.7764  -2
   9  14   7 45.7387 18.7764   1
  10  14   8 -4.7205 17.8890  -2
  10  14   7 -4.7205 17.8890   1
  11  14   9 130.412 19.8336  -2
  11  14   7 130.412 19.8336   1
   6 -15   6 188.850 31.3729  -2
  -6  15   7 188.850 31.3729   1
  -5  15   7 254.443 21.3534   1
  -4  15   7 3.48760 7.45952   1
   3 -15   4 169.327 32.3172  -2
  -3  15   7 169.327 32.3172   1
   2 -15   3 113.027 27.9963  -2
  -2  15   7 113.027 27.9963   1
   1 -15   2 -26.012 26.7251  -2
  -1  15   7 -26.012 26.7251   1
   0 -15   1 83.0711 21.3175  -2
   0  15   7 83.0711 21.3175   1
   1  15   0 38.9001 5.12976  -2
   1  15   7 38.9001 5.12976   1
   2  15   1 38.6749 6.33664  -2
   2  15   7 38.6749 6.33664   1
   3  15   2 157.549 11.1835  -2
   3  15   7 157.549 11.1835   1
   4  15   3 52.2222 12.4775  -2
   4  15   7 52.2222 12.4775   1
   5  15   4 487.189 22.2831  -2
   5  15   7 487.189 22.2831   1
   6  15   5 682.047 29.0614  -2
   6  15   7 682.047 29.0614   1
   7  15   6 62.3062 30.4395  -2
   7  15   7 62.3062 30.4395   1
   8  15   7 18.3947 21.7929  -2
   8  15   7 18.3947 21.7929   1
   9  15   8 117.726 39.0186  -2
   9  15   7 117.726 39.0186   1
  10  15   9 254.926 48.7038  -2
  10  15   7 254.926 48.7038   1
   4 -16   4 32.1075 21.0273  -2
  -4  16   7 32.1075 21.0273   1
   3 -16   3 99.1925 11.7512  -2
  -3  16   7 99.1925 11.7512   1
   2 -16   2 679.773 27.7442  -2
  -2  16   7 679.773 27.7442   1
   1 -16   1 239.543 14.1021  -2
  -1  16   7 239.543 14.1021   1
   0  16   0 44.0204 25.1199  -2
   0  16   7 44.0204 25.1199   1
   1  16   1 39.1815 27.1414  -2
   1  16   7 39.1815 27.1414   1
   2  16   7 0.34821 3.58261   1
   3  16   2 91.4172 28.0080  -2
   3  16   7 91.4172 28.0080   1
   4  16   3 81.0261 11.7243  -2
   4  16   7 81.0261 11.7243   1
   5  16   4 107.483 14.0129  -2
   5  16   7 107.483 14.0129   1
   6  16   5 143.799 19.6592  -2
   6  16   7 143.799 19.6592   1
   7  16   6 138.059 33.1365  -2
   7  16   7 138.059 33.1365   1
   8  16   7 311.099 19.7042  -2
   8  16   7 311.099 19.7042   1
   2 -17   2 118.303 24.1480  -2
  -2  17   7 118.303 24.1480   1
   1 -17   1 21.4239 17.9782  -2
  -1  17   7 21.4239 17.9782   1
   0  17   0 26.7313 18.3995  -2
   0  17   7 26.7313 18.3995   1
   1  17   1 603.406 44.2491  -2
   1  17   7 603.406 44.2491   1
   2  17   2 947.163 44.1960  -2
   2  17   7 947.163 44.1960   1
   3  17   3 100.593 25.9145  -2
   3  17   7 100.593 25.9145   1
   4  17   4 67.8924 16.7906  -2
   4  17   7 67.8924 16.7906   1
   5  17   5 330.631 27.7473  -2
   5  17   7 330.631 27.7473   1
   6  17   6 138.177 34.9691  -2
   6  17   7 138.177 34.9691   1
  -1  14  13 395.110 41.4864  -2
   1 -14   8 395.110 41.4864   1
  -2  14  12 320.213 25.2269  -2
   2 -14   8 320.213 25.2269   1
  -3  14  11 85.8599 13.2945  -2
   3 -14   8 85.8599 13.2945   1
  -4  14  10 116.665 16.1330  -2
   4 -14   8 116.665 16.1330   1
  -5  14   9 592.214 27.7241  -2
   5 -14   8 592.214 27.7241   1
  -6  14   8 70.1014 20.7266  -2
   6 -14   8 70.1014 20.7266   1
  -7  14   7 347.075 27.2481  -2
   7 -14   8 347.075 27.2481   1
   2  13  15 224.836 20.8964  -2
  -2 -13   8 224.836 20.8964   1
   1  13  14 54.1580 16.4307  -2
  -1 -13   8 54.1580 16.4307   1
   0  13  13 11.4601 18.0684  -2
   0 -13   8 11.4601 18.0684   1
  -1  13  12 123.094 18.6495  -2
   1 -13   8 123.094 18.6495   1
   2 -13   8 13.6258 5.69914   1
  -3  13  11 123.350 26.7520  -2
   3 -13   8 123.350 26.7520   1
  -4  13  10 49.8561 14.2210  -2
   4 -13   8 49.8561 14.2210   1
  -5  13   9 392.380 19.6829  -2
   5 -13   8 392.380 19.6829   1
  -6  13   8 452.338 20.3527  -2
   6 -13   8 452.338 20.3527   1
  -7  13   7 309.118 21.2163  -2
   7 -13   8 309.118 21.2163   1
  -8  13   6 123.729 17.5297  -2
   8 -13   8 123.729 17.5297   1
  -9  13   5 139.832 16.3468  -2
   9 -13   8 139.832 16.3468   1
 -10  13   4 5.36295 15.6169  -2
  10 -13   8 5.36295 15.6169   1
 -11  13   3 170.052 33.1955  -2
  11 -13   8 170.052 33.1955   1
   3  12  16 36.1938 20.5026  -2
  -3 -12   8 36.1938 20.5026   1
   2  12  15 304.776 17.3615  -2
  -2 -12   8 304.776 17.3615   1
   1  12  14 150.050 13.3130  -2
  -1 -12   8 150.050 13.3130   1
   0  12  13 172.326 13.0139  -2
   0 -12   8 172.326 13.0139   1
  -1  12  12 158.959 11.5142  -2
   1 -12   8 158.959 11.5142   1
  -2  12  11 125.217 11.4508  -2
   2 -12   8 125.217 11.4508   1
  -3  12  10 161.628 11.7255  -2
   3 -12   8 161.628 11.7255   1
  -4  12   9 6.77592 11.2815  -2
   4 -12   8 6.77592 11.2815   1
  -5  12   8 43.8184 13.0689  -2
   5 -12   8 43.8184 13.0689   1
  -6  12   7 43.0950 14.9543  -2
   6 -12   8 43.0950 14.9543   1
  -7  12   6 377.813 23.1399  -2
   7 -12   8 377.813 23.1399   1
   8 -12   8 50.2641 7.37769   1
   9 -12   8 109.010 8.41651   1
 -10  12   4 168.239 22.4753  -2
  10 -12   8 168.239 22.4753   1
 -11  12   3 373.643 24.4865  -2
  11 -12   8 373.643 24.4865   1
 -12  12   2 294.925 43.4660  -2
  12 -12   8 294.925 43.4660   1
   5  11  17 -2.8382 25.3563  -2
  -5 -11   8 -2.8382 25.3563   1
   4  11  16 65.0275 21.1407  -2
  -4 -11   8 65.0275 21.1407   1
   3  11  15 268.199 21.9397  -2
  -3 -11   8 268.199 21.9397   1
   2  11  14 122.622 16.9481  -2
  -2 -11   8 122.622 16.9481   1
  -1 -11   8 9.20435 5.77607   1
   0 -11   8 316.447 13.1104   1
  -1  11  12 94.0148 13.8642  -2
   1 -11   8 94.0148 13.8642   1
  -2  11  11 297.885 15.9552  -2
   2 -11   8 297.885 15.9552   1
  -3  11  10 37.4925 11.1536  -2
   3 -11   8 37.4925 11.1536   1
  -4  11   9 188.630 11.9842  -2
   4 -11   8 188.630 11.9842   1
  -5  11   8 475.409 16.4493  -2
   5 -11   8 475.409 16.4493   1
  -6  11   7 62.9307 10.0781  -2
   6 -11   8 62.9307 10.0781   1
  -7  11   6 127.334 9.83502  -2
   7 -11   8 127.334 9.83502   1
  -8  11   5 39.7984 8.97470  -2
   8 -11   8 39.7984 8.97470   1
  -9  11   4 34.2395 10.9787  -2
   9 -11   8 34.2395 10.9787   1
 -10  11   3 279.060 17.5637  -2
  10 -11   8 279.060 17.5637   1
 -11  11   2 146.786 18.8216  -2
  11 -11   8 146.786 18.8216   1
 -12  11   1 504.391 35.1670  -2
  12 -11   8 504.391 35.1670   1
 -13  11   0 39.7535 28.1266  -2
  13 -11   8 39.7535 28.1266   1
  -6 -10   8 250.924 26.1693   1
   5  10  17 151.175 23.0382  -2
  -5 -10   8 151.175 23.0382   1
   4  10  16 16.4460 16.9095  -2
  -4 -10   8 16.4460 16.9095   1
   3  10  15 84.0783 12.1173  -2
  -3 -10   8 84.0783 12.1173   1
   2  10  14 313.772 15.9369  -2
  -2 -10   8 313.772 15.9369   1
   1  10  13 29.0673 9.15274  -2
  -1 -10   8 29.0673 9.15274   1
   0  10  12 20.6424 10.2746  -2
   0 -10   8 20.6424 10.2746   1
  -1  10  11 151.619 11.7090  -2
   1 -10   8 151.619 11.7090   1
  -2  10  10 290.968 13.3364  -2
   2 -10   8 290.968 13.3364   1
  -3  10   9 349.280 14.6210  -2
   3 -10   8 349.280 14.6210   1
  -4  10   8 1092.99 76.5377  -2
   4 -10   8 1092.99 76.5377   1
  -5  10   7 23.7284 28.4937  -2
   5 -10   8 23.7284 28.4937   1
   6 -10   8 43.4071 5.24174   1
  -7  10   6 816.784 61.3151  -2
   7 -10   8 816.784 61.3151   1
  -8  10   5 609.564 21.6398  -2
   8 -10   8 609.564 21.6398   1
  -9  10   4 1018.23 29.4157  -2
   9 -10   8 1018.23 29.4157   1
 -10  10   3 145.169 13.1165  -2
  10 -10   8 145.169 13.1165   1
 -11  10   2 190.290 13.6264  -2
  11 -10   8 190.290 13.6264   1
 -12  10   1 106.633 13.8167  -2
  12 -10   8 106.633 13.8167   1
 -13  10   0 1070.75 53.1812  -2
  13 -10   8 1070.75 53.1812   1
  14 -10   1 5.08309 17.3081  -2
  14 -10   8 5.08309 17.3081   1
   7   9  18 24.1481 46.8045  -2
  -7  -9   8 24.1481 46.8045   1
   6   9  17 -35.368 30.3276  -2
  -6  -9   8 -35.368 30.3276   1
   5   9  16 -10.921 22.2766  -2
  -5  -9   8 -10.921 22.2766   1
  -4  -9   8 7.65976 6.51177   1
  -3  -9   8 37.6486 6.34385   1
   2   9  14 58.1463 16.1131  -2
  -2  -9   8 58.1463 16.1131   1
   1   9  13 386.302 15.8462  -2
  -1  -9   8 386.302 15.8462   1
   0   9  12 32.1174 10.8607  -2
   0  -9   8 32.1174 10.8607   1
  -1   9  11 279.156 13.3954  -2
   1  -9   8 279.156 13.3954   1
  -2   9  10 39.5146 8.58716  -2
   2  -9   8 39.5146 8.58716   1
  -3   9   9 11.7506 8.39420  -2
   3  -9   8 11.7506 8.39420   1
  -4   9   8 276.077 11.7649  -2
   4  -9   8 276.077 11.7649   1
  -5   9   7 268.812 11.9250  -2
   5  -9   8 268.812 11.9250   1
  -6   9   6 489.788 17.4872  -2
   6  -9   8 489.788 17.4872   1
  -7   9   5 711.647 21.1207  -2
   7  -9   8 711.647 21.1207   1
  -8   9   4 477.425 16.8140  -2
   8  -9   8 477.425 16.8140   1
  -9   9   3 47.7601 10.3423  -2
   9  -9   8 47.7601 10.3423   1
 -10   9   2 9.13703 15.7031  -2
  10  -9   8 9.13703 15.7031   1
 -11   9   1 836.332 36.2900  -2
  11  -9   8 836.332 36.2900   1
  12  -9   8 9.70989 5.70124   1
 -13   9   0 278.456 39.0841  -2
  13  -9   8 278.456 39.0841   1
  14  -9   1 88.4398 25.3915  -2
  14  -9   8 88.4398 25.3915   1
  15  -9   2 -11.729 33.5391  -2
  15  -9   8 -11.729 33.5391   1
   7   8  18 42.7346 25.4737  -2
  -7  -8   8 42.7346 25.4737   1
   6   8  17 43.5466 18.5616  -2
  -6  -8   8 43.5466 18.5616   1
   5   8  16 681.291 30.9229  -2
  -5  -8   8 681.291 30.9229   1
   4   8  15 132.376 14.3866  -2
  -4  -8   8 132.376 14.3866   1
   3   8  14 140.757 13.6907  -2
  -3  -8   8 140.757 13.6907   1
   2   8  13 540.670 17.7801  -2
  -2  -8   8 540.670 17.7801   1
   1   8  12 77.2004 12.1536  -2
  -1  -8   8 77.2004 12.1536   1
   0   8  11 318.090 16.0313  -2
   0  -8   8 318.090 16.0313   1
  -1   8  10 63.9817 10.6477  -2
   1  -8   8 63.9817 10.6477   1
   2  -8   8 -6.6663 4.05450   1
   3  -8   8 363.929 12.2510   1
   4  -8   8 285.542 12.0512   1
  -5   8   7 259.500 33.9764  -2
   5  -8   8 259.500 33.9764   1
  -6   8   6 215.454 12.2718  -2
   6  -8   8 215.454 12.2718   1
  -7   8   5 65.2757 9.06677  -2
   7  -8   8 65.2757 9.06677   1
  -8   8   4 119.406 10.1994  -2
   8  -8   8 119.406 10.1994   1
  -9   8   3 346.514 14.1975  -2
   9  -8   8 346.514 14.1975   1
 -10   8   2 68.6121 8.07837  -2
  10  -8   8 68.6121 8.07837   1
 -11   8   1 117.273 9.86163  -2
  11  -8   8 117.273 9.86163   1
 -12   8   0 76.3395 10.9002  -2
  12  -8   8 76.3395 10.9002   1
  13  -8   1 32.4301 13.9545  -2
  13  -8   8 32.4301 13.9545   1
  14  -8   2 3.17451 15.6453  -2
  14  -8   8 3.17451 15.6453   1
  15  -8   3 71.8417 21.2961  -2
  15  -8   8 71.8417 21.2961   1
  16  -8   4 59.3334 54.2636  -2
  16  -8   8 59.3334 54.2636   1
   8   7  18 69.0545 23.1790  -2
  -8  -7   8 69.0545 23.1790   1
  -7  -7   8 -7.4608 10.6445   1
   6   7  16 242.064 43.9884  -2
  -6  -7   8 242.064 43.9884   1
   5   7  16 866.835 71.1972  -2
  -5  -7   8 866.835 71.1972   1
   4   7  15 18.3660 16.9256  -2
  -4  -7   8 18.3660 16.9256   1
   3   7  14 89.5058 14.7097  -2
  -3  -7   8 89.5058 14.7097   1
   2   7  13 36.1503 12.9481  -2
  -2  -7   8 36.1503 12.9481   1
   1   7  12 603.467 20.0230  -2
  -1  -7   8 603.467 20.0230   1
   0   7  11 77.2539 7.59422  -2
   0  -7   8 77.2539 7.59422   1
  -1   7  10 17.6280 6.66458  -2
   1  -7   8 17.6280 6.66458   1
  -2   7   9 36.0264 6.72530  -2
   2  -7   8 36.0264 6.72530   1
  -3   7   8 1013.35 30.1236  -2
   3  -7   8 1013.35 30.1236   1
  -4   7   7 290.796 13.5289  -2
   4  -7   8 290.796 13.5289   1
  -5   7   6 114.739 10.7646  -2
   5  -7   8 114.739 10.7646   1
  -6   7   5 1024.87 34.0860  -2
   6  -7   8 1024.87 34.0860   1
  -7   7   4 12.2176 15.0397  -2
   7  -7   8 12.2176 15.0397   1
   8  -7   8 239.778 12.0146   1
   9  -7   8 65.1750 5.43416   1
  10  -7   8 59.2617 5.72777   1
 -11   7   1 40.5016 15.3601  -2
  11  -7   8 40.5016 15.3601   1
 -12   7   0 2103.95 78.9922  -2
  12  -7   8 2103.95 78.9922   1
  13  -7   1 231.520 15.4459  -2
  13  -7   8 231.520 15.4459   1
  14  -7   2 40.2154 15.5632  -2
  14  -7   8 40.2154 15.5632   1
  15  -7   3 514.372 28.6613  -2
  15  -7   8 514.372 28.6613   1
  16  -7   4 83.1562 27.0937  -2
  16  -7   8 83.1562 27.0937   1
   8   6  18 83.5773 23.7365  -2
  -8  -6   8 83.5773 23.7365   1
   7   6  17 126.708 18.7420  -2
  -7  -6   8 126.708 18.7420   1
   6   6  16 68.9546 12.3533  -2
  -6  -6   8 68.9546 12.3533   1
   5   6  15 256.761 14.3991  -2
  -5  -6   8 256.761 14.3991   1
   4   6  14 300.905 17.2492  -2
  -4  -6   8 300.905 17.2492   1
   3   6  13 59.9404 13.0787  -2
  -3  -6   8 59.9404 13.0787   1
   2   6  12 51.5624 14.7487  -2
  -2  -6   8 51.5624 14.7487   1
   1   6  11 68.7066 18.4869  -2
  -1  -6   8 68.7066 18.4869   1
   0  -6   8 429.054 13.4362   1
   1  -6   8 7.62379 3.56804   1
  -2   6   9 26.9907 15.6118  -2
   2  -6   8 26.9907 15.6118   1
  -3   6   8 262.813 11.8634  -2
   3  -6   8 262.813 11.8634   1
  -4   6   7 544.712 23.1193  -2
   4  -6   8 544.712 23.1193   1
  -5   6   6 679.943 24.2345  -2
   5  -6   8 679.943 24.2345   1
  -6   6   5 434.966 17.1798  -2
   6  -6   8 434.966 17.1798   1
  -7   6   4 959.115 28.6619  -2
   7  -6   8 959.115 28.6619   1
  -8   6   3 726.566 24.9328  -2
   8  -6   8 726.566 24.9328   1
  -9   6   2 80.0380 11.7277  -2
   9  -6   8 80.0380 11.7277   1
 -10   6   1 942.963 32.1196  -2
  10  -6   8 942.963 32.1196   1
 -11   6   0 443.266 16.9028  -2
  11  -6   8 443.266 16.9028   1
  12  -6   1 294.314 14.8963  -2
  12  -6   8 294.314 14.8963   1
  13  -6   2 152.715 15.5153  -2
  13  -6   8 152.715 15.5153   1
  14  -6   3 298.120 19.8894  -2
  14  -6   8 298.120 19.8894   1
  15  -6   4 300.009 33.5391  -2
  15  -6   8 300.009 33.5391   1
  16  -6   8 352.127 19.7205   1
  17  -6   8 727.495 56.5514   1
  -9  -5   8 74.1728 12.0305   1
   8   5  18 -41.204 46.4126  -2
  -8  -5   8 -41.204 46.4126   1
   7   5  17 86.6086 15.3924  -2
  -7  -5   8 86.6086 15.3924   1
   6   5  16 331.889 17.4386  -2
  -6  -5   8 331.889 17.4386   1
   5   5  15 105.507 12.2293  -2
  -5  -5   8 105.507 12.2293   1
   4   5  14 327.485 17.4266  -2
  -4  -5   8 327.485 17.4266   1
   3   5  13 76.2966 11.9366  -2
  -3  -5   8 76.2966 11.9366   1
   2   5  12 421.767 25.3296  -2
  -2  -5   8 421.767 25.3296   1
   1   5  11 896.836 29.9871  -2
  -1  -5   8 896.836 29.9871   1
   0   5  10 506.453 16.2928  -2
   0  -5   8 506.453 16.2928   1
  -1   5   9 274.187 11.5859  -2
   1  -5   8 274.187 11.5859   1
  -2   5   8 92.2095 7.11055  -2
   2  -5   8 92.2095 7.11055   1
  -3   5   7 269.955 11.3653  -2
   3  -5   8 269.955 11.3653   1
  -4   5   6 133.958 9.69080  -2
   4  -5   8 133.958 9.69080   1
  -5   5   5 887.198 41.4220  -2
   5  -5   8 887.198 41.4220   1
  -6   5   4 47.1009 15.9858  -2
   6  -5   8 47.1009 15.9858   1
   7  -5   8 274.745 9.59666   1
  -8   5   3 2362.76 144.467  -2
   8  -5   8 2362.76 144.467   1
  -9   5   2 925.511 35.9926  -2
   9  -5   8 925.511 35.9926   1
 -10   5   1 127.790 13.0009  -2
  10  -5   8 127.790 13.0009   1
 -11   5   0 69.4015 10.4158  -2
  11  -5   8 69.4015 10.4158   1
  12  -5   1 57.3882 10.3772  -2
  12  -5   8 57.3882 10.3772   1
  13  -5   2 237.336 13.2449  -2
  13  -5   8 237.336 13.2449   1
  14  -5   3 181.863 12.3212  -2
  14  -5   8 181.863 12.3212   1
  15  -5   4 85.5689 11.0181  -2
  15  -5   8 85.5689 11.0181   1
  16  -5   5 258.019 17.9787  -2
  16  -5   8 258.019 17.9787   1
  17  -5   6 333.295 53.3668  -2
  17  -5   8 333.295 53.3668   1
  10   4  19 111.685 18.8241  -2
 -10  -4   8 111.685 18.8241   1
   9   4  18 23.2870 13.7040  -2
  -9  -4   8 23.2870 13.7040   1
   8   4  17 141.961 18.3685  -2
  -8  -4   8 141.961 18.3685   1
   7   4  16 134.241 13.6503  -2
  -7  -4   8 134.241 13.6503   1
   6   4  15 327.716 16.4070  -2
  -6  -4   8 327.716 16.4070   1
   5   4  14 161.889 12.5669  -2
  -5  -4   8 161.889 12.5669   1
   4   4  13 99.7737 27.6914  -2
  -4  -4   8 99.7737 27.6914   1
  -3  -4   8 1165.89 34.9267   1
  -2  -4   8 1406.43 41.1987   1
   1   4  11 192.395 15.7386  -2
  -1  -4   8 192.395 15.7386   1
   0   4  10 873.962 29.1461  -2
   0  -4   8 873.962 29.1461   1
  -1   4   9 -6.6220 6.77813  -2
   1  -4   8 -6.6220 6.77813   1
  -2   4   8 591.951 16.9826  -2
   2  -4   8 591.951 16.9826   1
  -3   4   7 1104.32 32.3705  -2
   3  -4   8 1104.32 32.3705   1
  -4   4   6 453.747 13.3291  -2
   4  -4   8 453.747 13.3291   1
  -5   4   5 475.037 13.7613  -2
   5  -4   8 475.037 13.7613   1
  -6   4   4 149.295 6.92284  -2
   6  -4   8 149.295 6.92284   1
  -7   4   3 751.314 21.0044  -2
   7  -4   8 751.314 21.0044   1
  -8   4   2 85.5367 8.41497  -2
   8  -4   8 85.5367 8.41497   1
  -9   4   1 463.272 18.2965  -2
   9  -4   8 463.272 18.2965   1
 -10   4   0 181.200 14.3002  -2
  10  -4   8 181.200 14.3002   1
  11  -4   1 39.8843 11.8129  -2
  11  -4   8 39.8843 11.8129   1
  12  -4   2 896.139 61.5963  -2
  12  -4   8 896.139 61.5963   1
  13  -4   8 94.9022 7.04758   1
  14  -4   8 121.787 8.04309   1
  15  -4   4 164.307 18.8951  -2
  15  -4   8 164.307 18.8951   1
  16  -4   5 -9.7932 30.4868  -2
  16  -4   8 -9.7932 30.4868   1
  17  -4   6 67.4168 31.7215  -2
  17  -4   8 67.4168 31.7215   1
  10   3  19 119.198 26.8348  -2
 -10  -3   8 119.198 26.8348   1
   9   3  18 55.7602 29.7384  -2
  -9  -3   8 55.7602 29.7384   1
   8   3  17 148.602 14.8033  -2
  -8  -3   8 148.602 14.8033   1
   7   3  16 109.430 12.2456  -2
  -7  -3   8 109.430 12.2456   1
   6   3  15 524.901 19.4599  -2
  -6  -3   8 524.901 19.4599   1
   5   3  14 201.659 13.8083  -2
  -5  -3   8 201.659 13.8083   1
   4   3  13 77.0198 7.91147  -2
  -4  -3   8 77.0198 7.91147   1
   3   3  12 110.352 8.61598  -2
  -3  -3   8 110.352 8.61598   1
   2   3  11 16.9126 8.66289  -2
  -2  -3   8 16.9126 8.66289   1
   1   3  10 318.990 20.4434  -2
  -1  -3   8 318.990 20.4434   1
   0   3   9 276.074 9.67756  -2
   0  -3   8 276.074 9.67756   1
  -1   3   8 1596.09 41.3807  -2
   1  -3   8 1596.09 41.3807   1
  -2   3   7 31.1033 16.0658  -2
   2  -3   8 31.1033 16.0658   1
  -3   3   6 80.2399 11.9303  -2
   3  -3   8 80.2399 11.9303   1
   4  -3   8 33.5902 3.05814   1
   5  -3   8 501.208 14.3444   1
  -6   3   4 122.778 12.1734  -2
   6  -3   8 122.778 12.1734   1
  -7   3   3 1.85418 7.77323  -2
   7  -3   8 1.85418 7.77323   1
  -8   3   2 66.9112 8.09827  -2
   8  -3   8 66.9112 8.09827   1
  -9   3   1 618.828 22.8330  -2
   9  -3   8 618.828 22.8330   1
 -10   3   0 116.317 8.36097  -2
  10  -3   8 116.317 8.36097   1
  11  -3   1 80.5506 9.84757  -2
  11  -3   8 80.5506 9.84757   1
  12  -3   2 724.228 21.4535  -2
  12  -3   8 724.228 21.4535   1
  13  -3   3 -10.838 9.11347  -2
  13  -3   8 -10.838 9.11347   1
  14  -3   4 896.279 38.7058  -2
  14  -3   8 896.279 38.7058   1
  15  -3   5 139.435 14.4990  -2
  15  -3   8 139.435 14.4990   1
  16  -3   6 141.503 24.0339  -2
  16  -3   8 141.503 24.0339   1
  17  -3   7 79.0950 33.4465  -2
  17  -3   8 79.0950 33.4465   1
  10   2  18 119.128 19.3616  -2
 -10  -2   8 119.128 19.3616   1
   9   2  17 163.382 18.4609  -2
  -9  -2   8 163.382 18.4609   1
   8   2  16 98.3039 14.3058  -2
  -8  -2   8 98.3039 14.3058   1
   7   2  15 259.184 15.4700  -2
  -7  -2   8 259.184 15.4700   1
  -6  -2   8 167.917 9.51314   1
  -5  -2   8 100.577 6.86099   1
  -4  -2   8 10.5150 4.29572   1
   3   2  12 64.5165 13.6849  -2
  -3  -2   8 64.5165 13.6849   1
   2   2  11 98.1292 15.3168  -2
  -2  -2   8 98.1292 15.3168   1
   1   2  10 144.768 12.3904  -2
  -1  -2   8 144.768 12.3904   1
   0   2   9 40.6972 6.00761  -2
   0  -2   8 40.6972 6.00761   1
  -1   2   8 156.527 6.31170  -2
   1  -2   8 156.527 6.31170   1
  -2   2   7 46.3148 4.02879  -2
   2  -2   8 46.3148 4.02879   1
  -3   2   6 607.028 20.4817  -2
   3  -2   8 607.028 20.4817   1
  -4   2   5 1510.29 42.9443  -2
   4  -2   8 1510.29 42.9443   1
  -5   2   4 10.3711 4.61320  -2
   5  -2   8 10.3711 4.61320   1
  -6   2   3 339.098 11.9299  -2
   6  -2   8 339.098 11.9299   1
  -7   2   2 55.9064 7.45111  -2
   7  -2   8 55.9064 7.45111   1
  -8   2   1 752.120 29.5035  -2
   8  -2   8 752.120 29.5035   1
  -9   2   0 476.645 35.6310  -2
   9  -2   8 476.645 35.6310   1
  10  -2   8 13.3713 4.21377   1
  11  -2   8 103.785 7.04822   1
  12  -2   2 1259.32 80.9328  -2
  12  -2   8 1259.32 80.9328   1
  13  -2   3 640.515 29.1805  -2
  13  -2   8 640.515 29.1805   1
  14  -2   4 2.27029 16.9373  -2
  14  -2   8 2.27029 16.9373   1
  15  -2   5 152.449 14.7541  -2
  15  -2   8 152.449 14.7541   1
  16  -2   6 121.834 21.6757  -2
  16  -2   8 121.834 21.6757   1
  17  -2   7 176.472 29.7132  -2
  17  -2   8 176.472 29.7132   1
  18  -2   8 908.190 76.5001  -2
  18  -2   8 908.190 76.5001   1
 -11  -1   8 6.79931 11.0860   1
  10   1  18 48.6415 15.4525  -2
 -10  -1   8 48.6415 15.4525   1
   9   1  17 319.028 19.0429  -2
  -9  -1   8 319.028 19.0429   1
   8   1  16 18.3280 9.18962  -2
  -8  -1   8 18.3280 9.18962   1
   7   1  15 134.092 10.4038  -2
  -7  -1   8 134.092 10.4038   1
   6   1  14 27.7119 7.02371  -2
  -6  -1   8 27.7119 7.02371   1
   5   1  13 162.186 11.0566  -2
  -5  -1   8 162.186 11.0566   1
   4   1  12 1573.89 50.6584  -2
  -4  -1   8 1573.89 50.6584   1
   3   1  11 63.3582 8.30299  -2
  -3  -1   8 63.3582 8.30299   1
   2   1  10 49.6619 6.24761  -2
  -2  -1   8 49.6619 6.24761   1
   1   1   9 432.056 17.1644  -2
  -1  -1   8 432.056 17.1644   1
   0   1   8 311.354 21.2006  -2
   0  -1   8 311.354 21.2006   1
   1  -1   8 249.823 7.90719   1
   2  -1   8 1.02482 1.98274   1
  -3   1   6 332.223 22.3803  -2
   3  -1   8 332.223 22.3803   1
  -4   1   5 45.7690 7.27431  -2
   4  -1   8 45.7690 7.27431   1
  -5   1   4 837.529 27.8371  -2
   5  -1   8 837.529 27.8371   1
  -6   1   3 1447.48 37.6892  -2
   6  -1   8 1447.48 37.6892   1
  -7   1   2 197.543 8.11807  -2
   7  -1   8 197.543 8.11807   1
  -8   1   1 2731.65 69.7848  -2
   8  -1   8 2731.65 69.7848   1
  -9   1   0 80.2383 6.84447  -2
   9  -1   8 80.2383 6.84447   1
  10  -1   1 226.532 10.7515  -2
  10  -1   8 226.532 10.7515   1
  11  -1   2 184.385 10.2746  -2
  11  -1   8 184.385 10.2746   1
  12  -1   3 -9.3487 10.8702  -2
  12  -1   8 -9.3487 10.8702   1
  13  -1   4 252.297 16.0294  -2
  13  -1   8 252.297 16.0294   1
  14  -1   5 204.893 18.6222  -2
  14  -1   8 204.893 18.6222   1
  15  -1   6 9.98216 18.2585  -2
  15  -1   8 9.98216 18.2585   1
  16  -1   7 208.827 47.3922  -2
  16  -1   8 208.827 47.3922   1
  17  -1   8 87.0429 16.3836   1
  11   0  18 -13.929 41.2984  -2
 -11   0   8 -13.929 41.2984   1
  10   0  17 19.0168 23.2441  -2
 -10   0   8 19.0168 23.2441   1
   9   0  16 737.445 41.1942  -2
  -9   0   8 737.445 41.1942   1
   8   0  15 158.094 24.9666  -2
  -8   0   8 158.094 24.9666   1
  -7   0   8 505.837 16.3926   1
   6   0  14 421.912 27.6027  -2
  -6   0   8 421.912 27.6027   1
   5   0  13 345.926 17.2147  -2
  -5   0   8 345.926 17.2147   1
   4   0  12 247.631 12.4591  -2
  -4   0   8 247.631 12.4591   1
   3   0  11 403.627 15.7488  -2
  -3   0   8 403.627 15.7488   1
   2   0  10 34.5733 4.58562  -2
  -2   0   8 34.5733 4.58562   1
   1   0   9 151.228 8.70649  -2
  -1   0   8 151.228 8.70649   1
   0   0   8 5888.73 162.822  -2
   0   0   8 5888.73 162.822   1
  -1   0   7 509.571 15.5761  -2
   1   0   8 509.571 15.5761   1
  -2   0   6 365.397 10.5507  -2
   2   0   8 365.397 10.5507   1
  -3   0   5 1978.47 50.4564  -2
   3   0   8 1978.47 50.4564   1
  -4   0   4 1823.63 56.7026  -2
   4   0   8 1823.63 56.7026   1
  -5   0   3 188.928 11.9115  -2
   5   0   8 188.928 11.9115   1
  -6   0   2 -20.010 12.1279  -2
   6   0   8 -20.010 12.1279   1
   7   0   8 335.668 10.6118   1
   8   0   8 21.4881 3.68211   1
   9   0   8 2325.30 59.7869   1
  10   0   8 163.130 9.85722   1
  11   0   2 245.170 20.6006  -2
  11   0   8 245.170 20.6006   1
  12   0   3 1256.82 42.7858  -2
  12   0   8 1256.82 42.7858   1
  13   0   4 330.853 16.9039  -2
  13   0   8 330.853 16.9039   1
  14   0   5 38.4897 11.7071  -2
  14   0   8 38.4897 11.7071   1
  15   0   6 253.839 14.4517  -2
  15   0   8 253.839 14.4517   1
  16   0   7 35.6888 11.5478  -2
  16   0   8 35.6888 11.5478   1
  17   0   8 127.411 43.8142  -2
  17   0   8 127.411 43.8142   1
  11  -1  18 148.676 21.1592  -2
 -11   1   8 148.676 21.1592   1
  10  -1  17 27.2618 14.8218  -2
 -10   1   8 27.2618 14.8218   1
   9  -1  16 63.5088 11.8014  -2
  -9   1   8 63.5088 11.8014   1
   8  -1  15 264.954 16.6098  -2
  -8   1   8 264.954 16.6098   1
   7  -1  14 337.837 18.4397  -2
  -7   1   8 337.837 18.4397   1
   6  -1  13 252.554 12.7893  -2
  -6   1   8 252.554 12.7893   1
   5  -1  12 782.650 32.7313  -2
  -5   1   8 782.650 32.7313   1
   4  -1  11 455.046 21.5109  -2
  -4   1   8 455.046 21.5109   1
   3  -1  10 136.432 19.9306  -2
  -3   1   8 136.432 19.9306   1
  -2   1   8 19.4530 2.75684   1
  -1   1   8 31.3794 3.95036   1
   0   1   8 31.6462 2.87864   1
  -1  -1   7 1067.00 34.4672  -2
   1   1   8 1067.00 34.4672   1
  -2  -1   6 808.907 23.7055  -2
   2   1   8 808.907 23.7055   1
  -3  -1   5 429.798 13.4729  -2
   3   1   8 429.798 13.4729   1
  -4  -1   4 3348.53 92.3414  -2
   4   1   8 3348.53 92.3414   1
  -5  -1   3 395.854 11.6056  -2
   5   1   8 395.854 11.6056   1
  -6  -1   2 151.459 6.08203  -2
   6   1   8 151.459 6.08203   1
  -7  -1   1 320.915 10.3392  -2
   7   1   8 320.915 10.3392   1
   8   1   0 439.049 13.4111  -2
   8   1   8 439.049 13.4111   1
   9   1   1 207.562 10.4571  -2
   9   1   8 207.562 10.4571   1
  10   1   2 23.6929 11.3401  -2
  10   1   8 23.6929 11.3401   1
  11   1   3 154.711 14.1769  -2
  11   1   8 154.711 14.1769   1
  12   1   4 248.740 28.4846  -2
  12   1   8 248.740 28.4846   1
  13   1   5 1429.19 92.4126  -2
  13   1   8 1429.19 92.4126   1
  14   1   8 312.545 14.1867   1
  15   1   6 196.660 34.1814  -2
  15   1   8 196.660 34.1814   1
  16   1   8 19.2294 9.26128   1
  17   1   8 344.018 38.1717  -2
  17   1   8 344.018 38.1717   1
 -11   2   8 62.4092 12.6113   1
 -10   2   8 17.0301 10.5202   1
   9  -2  16 161.971 17.5794  -2
  -9   2   8 161.971 17.5794   1
   8  -2  15 85.5359 13.6224  -2
  -8   2   8 85.5359 13.6224   1
   7  -2  14 637.419 22.3621  -2
  -7   2   8 637.419 22.3621   1
   6  -2  13 111.745 10.4205  -2
  -6   2   8 111.745 10.4205   1
   5  -2  12 233.802 10.8836  -2
  -5   2   8 233.802 10.8836   1
   4  -2  11 2687.26 96.9379  -2
  -4   2   8 2687.26 96.9379   1
   3  -2  10 265.466 9.99723  -2
  -3   2   8 265.466 9.99723   1
   2  -2   9 465.992 14.6654  -2
  -2   2   8 465.992 14.6654   1
   1  -2   8 160.705 6.52441  -2
  -1   2   8 160.705 6.52441   1
   0  -2   7 390.338 17.2490  -2
   0   2   8 390.338 17.2490   1
  -1  -2   6 186.727 9.02328  -2
   1   2   8 186.727 9.02328   1
  -2  -2   5 1111.19 35.7545  -2
   2   2   8 1111.19 35.7545   1
  -3  -2   4 91.4969 7.02412  -2
   3   2   8 91.4969 7.02412   1
   4   2   8 164.328 6.58285   1
   5   2   8 1395.48 36.0145   1
   6   2   8 601.290 16.6390   1
   7   2   8 -3.6165 3.16581   1
   8   2   0 221.914 16.3703  -2
   8   2   8 221.914 16.3703   1
   9   2   1 158.379 12.1699  -2
   9   2   8 158.379 12.1699   1
  10   2   2 129.083 10.5790  -2
  10   2   8 129.083 10.5790   1
  11   2   3 572.760 21.5223  -2
  11   2   8 572.760 21.5223   1
  12   2   4 72.3201 10.9101  -2
  12   2   8 72.3201 10.9101   1
  13   2   5 538.397 19.5798  -2
  13   2   8 538.397 19.5798   1
  14   2   6 766.872 28.6251  -2
  14   2   8 766.872 28.6251   1
  15   2   7 710.084 25.9570  -2
  15   2   8 710.084 25.9570   1
  16   2   8 122.307 22.8050  -2
  16   2   8 122.307 22.8050   1
  17   2   9 62.2902 32.5286  -2
  17   2   8 62.2902 32.5286   1
  11  -3  17 18.0878 14.8769  -2
 -11   3   8 18.0878 14.8769   1
  10  -3  16 195.874 17.3918  -2
 -10   3   8 195.874 17.3918   1
   9  -3  15 66.4991 11.6219  -2
  -9   3   8 66.4991 11.6219   1
   8  -3  14 6.98763 10.6187  -2
  -8   3   8 6.98763 10.6187   1
   7  -3  13 539.126 19.3823  -2
  -7   3   8 539.126 19.3823   1
   6  -3  12 255.769 12.8033  -2
  -6   3   8 255.769 12.8033   1
   5  -3  11 14.1246 9.44175  -2
  -5   3   8 14.1246 9.44175   1
  -4   3   8 70.5139 5.60807   1
   3  -3  10 16.2199 9.53473  -2
  -3   3   8 16.2199 9.53473   1
   2  -3   9 662.183 24.9776  -2
  -2   3   8 662.183 24.9776   1
   1  -3   8 1530.71 43.6252  -2
  -1   3   8 1530.71 43.6252   1
   0  -3   7 265.304 11.1620  -2
   0   3   8 265.304 11.1620   1
  -1  -3   6 365.405 13.4883  -2
   1   3   8 365.405 13.4883   1
  -2  -3   5 897.734 29.2142  -2
   2   3   8 897.734 29.2142   1
  -3  -3   4 949.868 27.0426  -2
   3   3   8 949.868 27.0426   1
  -4  -3   3 623.125 16.6793  -2
   4   3   8 623.125 16.6793   1
  -5  -3   2 662.063 19.7546  -2
   5   3   8 662.063 19.7546   1
  -6  -3   1 81.1780 6.33540  -2
   6   3   8 81.1780 6.33540   1
   7   3   0 984.021 37.3278  -2
   7   3   8 984.021 37.3278   1
   8   3   1 1666.27 73.9449  -2
   8   3   8 1666.27 73.9449   1
   9   3   2 400.817 22.4286  -2
   9   3   8 400.817 22.4286   1
  10   3   3 1643.66 103.300  -2
  10   3   8 1643.66 103.300   1
  11   3   8 986.694 33.7134   1
  12   3   8 342.482 14.0313   1
  13   3   5 308.553 31.6887  -2
  13   3   8 308.553 31.6887   1
  14   3   6 320.158 21.3694  -2
  14   3   8 320.158 21.3694   1
  15   3   7 243.663 16.8069  -2
  15   3   8 243.663 16.8069   1
  16   3   8 81.8673 22.1161  -2
  16   3   8 81.8673 22.1161   1
  17   3   9 296.782 35.4007  -2
  17   3   8 296.782 35.4007   1
  11  -4  17 35.9856 20.2119  -2
 -11   4   8 35.9856 20.2119   1
  10  -4  16 9.71269 16.9413  -2
 -10   4   8 9.71269 16.9413   1
   9  -4  15 -10.202 21.8386  -2
  -9   4   8 -10.202 21.8386   1
   8  -4  14 143.421 11.4629  -2
  -8   4   8 143.421 11.4629   1
   7  -4  13 162.022 11.4151  -2
  -7   4   8 162.022 11.4151   1
   6  -4  12 17.8490 7.09403  -2
  -6   4   8 17.8490 7.09403   1
   5  -4  11 247.748 11.0228  -2
  -5   4   8 247.748 11.0228   1
   4  -4  10 35.5358 5.21319  -2
  -4   4   8 35.5358 5.21319   1
   3  -4   9 719.526 21.3442  -2
  -3   4   8 719.526 21.3442   1
   2  -4   8 522.771 15.9050  -2
  -2   4   8 522.771 15.9050   1
   1  -4   7 825.818 27.1558  -2
  -1   4   8 825.818 27.1558   1
   0  -4   6 218.632 9.22494  -2
   0   4   8 218.632 9.22494   1
   1   4   8 10.5782 2.11430   1
   2   4   8 1546.11 43.5298   1
   3   4   8 7.79080 1.94639   1
  -4  -4   3 31.3392 10.2151  -2
   4   4   8 31.3392 10.2151   1
  -5  -4   2 199.122 13.9126  -2
   5   4   8 199.122 13.9126   1
  -6  -4   1 2244.21 81.0340  -2
   6   4   8 2244.21 81.0340   1
   7   4   0 1772.11 56.1883  -2
   7   4   8 1772.11 56.1883   1
   8   4   1 179.864 8.86096  -2
   8   4   8 179.864 8.86096   1
   9   4   2 383.938 13.9431  -2
   9   4   8 383.938 13.9431   1
  10   4   3 190.627 13.0311  -2
  10   4   8 190.627 13.0311   1
  11   4   4 1259.66 48.1302  -2
  11   4   8 1259.66 48.1302   1
  12   4   5 123.975 12.0724  -2
  12   4   8 123.975 12.0724   1
  13   4   6 311.386 17.6055  -2
  13   4   8 311.386 17.6055   1
  14   4   7 125.755 13.9797  -2
  14   4   8 125.755 13.9797   1
  15   4   8 569.811 24.1624  -2
  15   4   8 569.811 24.1624   1
  16   4   9 16.5069 45.1072  -2
  16   4   8 16.5069 45.1072   1
  17   4  10 63.5601 53.0174  -2
  17   4   8 63.5601 53.0174   1
  11  -5  16 112.851 17.4628  -2
 -11   5   8 112.851 17.4628   1
  10  -5  15 530.190 21.9015  -2
 -10   5   8 530.190 21.9015   1
   9  -5  14 66.8188 24.1818  -2
  -9   5   8 66.8188 24.1818   1
   8  -5  13 514.812 29.3177  -2
  -8   5   8 514.812 29.3177   1
   7  -5  12 50.3541 16.5092  -2
  -7   5   8 50.3541 16.5092   1
   6  -5  12 16.6186 14.3855  -2
  -6   5   8 16.6186 14.3855   1
   5  -5  11 470.223 23.6842  -2
  -5   5   8 470.223 23.6842   1
   4  -5  10 31.2421 6.48060  -2
  -4   5   8 31.2421 6.48060   1
   3  -5   9 620.409 18.8839  -2
  -3   5   8 620.409 18.8839   1
   2  -5   8 117.666 7.14153  -2
  -2   5   8 117.666 7.14153   1
   1  -5   7 493.428 14.8149  -2
  -1   5   8 493.428 14.8149   1
   0  -5   6 415.461 13.9455  -2
   0   5   8 415.461 13.9455   1
  -1  -5   5 1410.68 44.7715  -2
   1   5   8 1410.68 44.7715   1
  -2  -5   4 108.402 4.21622  -2
   2   5   8 108.402 4.21622   1
  -3  -5   3 148.181 5.03176  -2
   3   5   8 148.181 5.03176   1
  -4  -5   2 471.450 13.1743  -2
   4   5   8 471.450 13.1743   1
  -5  -5   1 139.564 8.33077  -2
   5   5   8 139.564 8.33077   1
   6   5   0 688.062 25.8463  -2
   6   5   8 688.062 25.8463   1
   7   5   1 45.4951 16.6836  -2
   7   5   8 45.4951 16.6836   1
   8   5   8 304.773 10.4103   1
   9   5   8 148.051 7.73090   1
  10   5   8 160.959 10.5131   1
  11   5   4 13.8598 20.6296  -2
  11   5   8 13.8598 20.6296   1
  12   5   5 267.692 18.9689  -2
  12   5   8 267.692 18.9689   1
  13   5   6 501.356 24.8244  -2
  13   5   8 501.356 24.8244   1
  14   5   7 483.000 20.1328  -2
  14   5   8 483.000 20.1328   1
  15   5   8 441.748 19.5761  -2
  15   5   8 441.748 19.5761   1
  16   5   9 -15.009 18.0899  -2
  16   5   8 -15.009 18.0899   1
  17   5  10 12.1773 24.8676  -2
  17   5   8 12.1773 24.8676   1
  11  -6  16 44.4381 40.8680  -2
 -11   6   8 44.4381 40.8680   1
  10  -6  15 148.109 14.7970  -2
 -10   6   8 148.109 14.7970   1
   9  -6  14 61.5303 12.0062  -2
  -9   6   8 61.5303 12.0062   1
   8  -6  13 170.168 9.90520  -2
  -8   6   8 170.168 9.90520   1
   7  -6  12 502.274 18.5137  -2
  -7   6   8 502.274 18.5137   1
   6  -6  11 1169.93 34.1151  -2
  -6   6   8 1169.93 34.1151   1
   5  -6  10 653.942 19.8324  -2
  -5   6   8 653.942 19.8324   1
   4  -6   9 299.965 10.2817  -2
  -4   6   8 299.965 10.2817   1
   3  -6   8 233.277 13.0700  -2
  -3   6   8 233.277 13.0700   1
  -2   6   8 127.691 9.26219   1
  -1   6   8 93.1317 6.37309   1
   0   6   8 140.804 7.63694   1
   1   6   8 39.6752 2.79912   1
  -2  -6   4 616.042 28.8262  -2
   2   6   8 616.042 28.8262   1
  -3  -6   3 161.933 16.2279  -2
   3   6   8 161.933 16.2279   1
  -4  -6   2 71.1794 9.78543  -2
   4   6   8 71.1794 9.78543   1
  -5  -6   1 1167.80 33.4196  -2
   5   6   8 1167.80 33.4196   1
   6   6   0 354.740 13.3389  -2
   6   6   8 354.740 13.3389   1
   7   6   1 255.617 10.6294  -2
   7   6   8 255.617 10.6294   1
   8   6   2 213.153 9.03589  -2
   8   6   8 213.153 9.03589   1
   9   6   3 496.838 16.9250  -2
   9   6   8 496.838 16.9250   1
  10   6   4 101.664 8.99462  -2
  10   6   8 101.664 8.99462   1
  11   6   5 7.50849 9.39403  -2
  11   6   8 7.50849 9.39403   1
  12   6   6 63.7870 14.1278  -2
  12   6   8 63.7870 14.1278   1
  13   6   7 288.293 25.7403  -2
  13   6   8 288.293 25.7403   1
  14   6   8 114.280 21.4667  -2
  14   6   8 114.280 21.4667   1
  15   6   8 148.337 38.5021  -2
  15   6   8 148.337 38.5021   1
  15   6   9 192.233 39.6895  -2
  15   6   8 192.233 39.6895   1
  16   6   8 81.7819 11.1580   1
  17   6  10 980.854 88.2891  -2
  17   6   8 980.854 88.2891   1
 -11   7   8 21.7588 29.9870   1
  10  -7  14 166.255 30.0398  -2
 -10   7   8 166.255 30.0398   1
  -9   7   8 16.9046 5.72317   1
   8  -7  13 10.6371 12.4635  -2
  -8   7   8 10.6371 12.4635   1
   7  -7  12 72.5331 8.59225  -2
  -7   7   8 72.5331 8.59225   1
   6  -7  11 245.034 11.2262  -2
  -6   7   8 245.034 11.2262   1
   5  -7  10 332.832 16.1547  -2
  -5   7   8 332.832 16.1547   1
   4  -7   9 884.811 41.0214  -2
  -4   7   8 884.811 41.0214   1
   3  -7   8 1156.03 53.4140  -2
  -3   7   8 1156.03 53.4140   1
   2  -7   7 499.312 23.7516  -2
  -2   7   8 499.312 23.7516   1
   1  -7   6 75.9691 4.86079  -2
  -1   7   8 75.9691 4.86079   1
   0  -7   5 50.8145 4.25368  -2
   0   7   8 50.8145 4.25368   1
  -1  -7   4 2597.10 80.1917  -2
   1   7   8 2597.10 80.1917   1
  -2  -7   3 288.339 12.1032  -2
   2   7   8 288.339 12.1032   1
  -3  -7   2 45.8057 8.86785  -2
   3   7   8 45.8057 8.86785   1
  -4  -7   1 249.008 20.9709  -2
   4   7   8 249.008 20.9709   1
   5   7   0 3513.35 216.829  -2
   5   7   8 3513.35 216.829   1
   6   7   8 52.6643 3.49393   1
   7   7   8 -0.0276 3.10146   1
   8   7   2 1246.69 81.3830  -2
   8   7   8 1246.69 81.3830   1
   9   7   3 226.589 18.2953  -2
   9   7   8 226.589 18.2953   1
  10   7   4 2185.57 81.1438  -2
  10   7   8 2185.57 81.1438   1
  11   7   5 16.6137 10.8122  -2
  11   7   8 16.6137 10.8122   1
  12   7   6 147.630 11.4930  -2
  12   7   8 147.630 11.4930   1
  13   7   7 331.981 15.1885  -2
  13   7   8 331.981 15.1885   1
  14   7   8 1192.28 33.8888  -2
  14   7   8 1192.28 33.8888   1
  15   7   9 83.7774 14.2526  -2
  15   7   8 83.7774 14.2526   1
  16   7  10 122.583 15.8484  -2
  16   7   8 122.583 15.8484   1
  10  -8  14 79.8064 16.0128  -2
 -10   8   8 79.8064 16.0128   1
   9  -8  13 13.5193 22.1482  -2
  -9   8   8 13.5193 22.1482   1
   8  -8  12 130.081 13.1657  -2
  -8   8   8 130.081 13.1657   1
   7  -8  11 88.4784 11.5668  -2
  -7   8   8 88.4784 11.5668   1
   6  -8  10 28.6863 13.4420  -2
  -6   8   8 28.6863 13.4420   1
   5  -8   9 -4.3631 12.0085  -2
  -5   8   8 -4.3631 12.0085   1
   4  -8   8 356.787 24.9379  -2
  -4   8   8 356.787 24.9379   1
  -3   8   8 273.883 11.1340   1
  -2   8   8 213.405 9.00648   1
   1  -8   6 782.142 52.0488  -2
  -1   8   8 782.142 52.0488   1
   0  -8   5 955.459 34.8350  -2
   0   8   8 955.459 34.8350   1
  -1  -8   4 184.227 7.84065  -2
   1   8   8 184.227 7.84065   1
  -2  -8   3 690.281 22.4997  -2
   2   8   8 690.281 22.4997   1
  -3  -8   2 576.025 22.5152  -2
   3   8   8 576.025 22.5152   1
  -4  -8   1 432.053 15.2528  -2
   4   8   8 432.053 15.2528   1
   5   8   0 1706.05 76.2648  -2
   5   8   8 1706.05 76.2648   1
   6   8   1 349.912 19.4811  -2
   6   8   8 349.912 19.4811   1
   7   8   2 87.4195 6.00280  -2
   7   8   8 87.4195 6.00280   1
   8   8   3 1042.31 34.1745  -2
   8   8   8 1042.31 34.1745   1
   9   8   4 3434.21 124.769  -2
   9   8   8 3434.21 124.769   1
  10   8   5 377.005 27.6431  -2
  10   8   8 377.005 27.6431   1
  11   8   6 8.94222 18.9188  -2
  11   8   8 8.94222 18.9188   1
  12   8   7 530.400 33.6314  -2
  12   8   8 530.400 33.6314   1
  13   8   7 344.436 36.0986  -2
  13   8   8 344.436 36.0986   1
  14   8   8 1400.19 56.7488  -2
  14   8   8 1400.19 56.7488   1
  15   8   9 121.900 25.3289  -2
  15   8   8 121.900 25.3289   1
  16   8  10 68.1008 33.9591  -2
  16   8   8 68.1008 33.9591   1
  10  -9  14 107.691 30.1128  -2
 -10   9   8 107.691 30.1128   1
   9  -9  13 342.482 30.1152  -2
  -9   9   8 342.482 30.1152   1
   8  -9  12 175.066 16.1883  -2
  -8   9   8 175.066 16.1883   1
   7  -9  11 444.492 23.2631  -2
  -7   9   8 444.492 23.2631   1
   6  -9  10 352.865 20.6140  -2
  -6   9   8 352.865 20.6140   1
   5  -9   9 110.567 9.26525  -2
  -5   9   8 110.567 9.26525   1
   4  -9   8 247.017 12.5667  -2
  -4   9   8 247.017 12.5667   1
   3  -9   7 257.000 12.4254  -2
  -3   9   8 257.000 12.4254   1
   2  -9   6 521.149 20.5541  -2
  -2   9   8 521.149 20.5541   1
   1  -9   5 4.88217 5.73167  -2
  -1   9   8 4.88217 5.73167   1
   0  -9   4 568.322 18.9030  -2
   0   9   8 568.322 18.9030   1
  -1  -9   3 1363.36 59.8077  -2
   1   9   8 1363.36 59.8077   1
  -2  -9   2 1397.60 88.7090  -2
   2   9   8 1397.60 88.7090   1
   3   9   8 222.675 9.55560   1
   4   9   8 36.6147 4.31958   1
   5   9   8 105.482 7.72741   1
   6   9   1 253.640 27.1254  -2
   6   9   8 253.640 27.1254   1
   7   9   2 254.279 18.8668  -2
   7   9   8 254.279 18.8668   1
   8   9   3 70.5359 14.7300  -2
   8   9   8 70.5359 14.7300   1
   9   9   4 59.8768 8.55906  -2
   9   9   8 59.8768 8.55906   1
  10   9   5 450.672 17.8027  -2
  10   9   8 450.672 17.8027   1
  11   9   6 244.192 11.6064  -2
  11   9   8 244.192 11.6064   1
  12   9   7 29.8571 10.1987  -2
  12   9   8 29.8571 10.1987   1
  13   9   8 -3.2591 12.1461  -2
  13   9   8 -3.2591 12.1461   1
  14   9   9 345.797 20.5162  -2
  14   9   8 345.797 20.5162   1
  15   9  10 81.7851 23.8372  -2
  15   9   8 81.7851 23.8372   1
   9 -10  12 214.003 18.8213  -2
  -9  10   8 214.003 18.8213   1
   8 -10  11 319.006 44.9528  -2
  -8  10   8 319.006 44.9528   1
   7 -10  10 12.7437 18.0704  -2
  -7  10   8 12.7437 18.0704   1
   6 -10   9 30.2505 17.5325  -2
  -6  10   8 30.2505 17.5325   1
  -5  10   8 93.2970 7.75410   1
  -4  10   8 383.539 16.7243   1
   3 -10   7 71.1216 10.6147  -2
  -3  10   8 71.1216 10.6147   1
   2 -10   6 143.216 8.44561  -2
  -2  10   8 143.216 8.44561   1
   1 -10   5 136.366 7.44363  -2
  -1  10   8 136.366 7.44363   1
   0 -10   4 17.6249 5.82461  -2
   0  10   8 17.6249 5.82461   1
  -1 -10   3 139.749 6.42017  -2
   1  10   8 139.749 6.42017   1
  -2 -10   2 625.487 20.3869  -2
   2  10   8 625.487 20.3869   1
  -3 -10   1 253.422 11.3065  -2
   3  10   8 253.422 11.3065   1
   4  10   0 146.105 9.01683  -2
   4  10   8 146.105 9.01683   1
   5  10   1 419.638 18.4887  -2
   5  10   8 419.638 18.4887   1
   6  10   2 779.075 30.9538  -2
   6  10   8 779.075 30.9538   1
   7  10   8 159.078 20.5852   1
   8  10   4 45.0648 28.7270  -2
   8  10   8 45.0648 28.7270   1
   9  10   5 149.577 34.4743  -2
   9  10   8 149.577 34.4743   1
  10  10   8 11.2145 5.44540   1
  11  10   8 19.7385 6.08655   1
  12  10   7 96.9446 14.6364  -2
  12  10   8 96.9446 14.6364   1
  13  10   8 42.8081 18.9620  -2
  13  10   8 42.8081 18.9620   1
  14  10   9 337.190 25.3264  -2
  14  10   8 337.190 25.3264   1
  15  10  10 572.705 33.0728  -2
  15  10   8 572.705 33.0728   1
   9 -11  12 163.928 24.8790  -2
  -9  11   8 163.928 24.8790   1
   8 -11  11 149.369 16.9370  -2
  -8  11   8 149.369 16.9370   1
   7 -11  10 97.5858 9.77618  -2
  -7  11   8 97.5858 9.77618   1
   6 -11   9 225.880 15.0879  -2
  -6  11   8 225.880 15.0879   1
   5 -11   8 457.586 25.6715  -2
  -5  11   8 457.586 25.6715   1
   4 -11   7 12.2178 9.92825  -2
  -4  11   8 12.2178 9.92825   1
   3 -11   6 488.450 20.1214  -2
  -3  11   8 488.450 20.1214   1
   2 -11   5 564.158 26.8812  -2
  -2  11   8 564.158 26.8812   1
   1 -11   4 121.784 16.6108  -2
  -1  11   8 121.784 16.6108   1
   0  11   8 -0.0906 2.30790   1
   1  11   8 -5.9012 2.52282   1
   2  11   8 158.830 7.71464   1
  -3 -11   1 4.60343 14.9331  -2
   3  11   8 4.60343 14.9331   1
   4  11   0 11.7537 11.1513  -2
   4  11   8 11.7537 11.1513   1
   5  11   1 116.931 10.2745  -2
   5  11   8 116.931 10.2745   1
   6  11   2 606.519 42.1386  -2
   6  11   8 606.519 42.1386   1
   7  11   3 1103.68 52.4009  -2
   7  11   8 1103.68 52.4009   1
   8  11   4 807.127 40.4500  -2
   8  11   8 807.127 40.4500   1
   9  11   5 134.882 17.1015  -2
   9  11   8 134.882 17.1015   1
  10  11   6 171.682 19.2342  -2
  10  11   8 171.682 19.2342   1
  11  11   7 482.464 17.8751  -2
  11  11   8 482.464 17.8751   1
  12  11   8 195.137 13.8796  -2
  12  11   8 195.137 13.8796   1
  13  11   9 107.027 16.2809  -2
  13  11   8 107.027 16.2809   1
  14  11  10 103.489 33.2784  -2
  14  11   8 103.489 33.2784   1
  -8  12   8 114.226 11.0058   1
   7 -12  10 124.238 20.6618  -2
  -7  12   8 124.238 20.6618   1
   6 -12   9 64.7843 18.1305  -2
  -6  12   8 64.7843 18.1305   1
   5 -12   8 66.2520 12.8447  -2
  -5  12   8 66.2520 12.8447   1
   4 -12   7 89.9593 10.5332  -2
  -4  12   8 89.9593 10.5332   1
   3 -12   6 205.755 10.6129  -2
  -3  12   8 205.755 10.6129   1
   2 -12   5 5.69704 5.96916  -2
  -2  12   8 5.69704 5.96916   1
   1 -12   4 23.3683 4.05393  -2
  -1  12   8 23.3683 4.05393   1
   0 -12   3 262.583 12.0630  -2
   0  12   8 262.583 12.0630   1
  -1 -12   2 299.554 11.0511  -2
   1  12   8 299.554 11.0511   1
  -2 -12   1 1507.26 47.3318  -2
   2  12   8 1507.26 47.3318   1
   3  12   0 73.0794 6.95879  -2
   3  12   8 73.0794 6.95879   1
   4  12   1 10.1003 10.9751  -2
   4  12   8 10.1003 10.9751   1
   5  12   2 65.0480 22.0324  -2
   5  12   8 65.0480 22.0324   1
   6  12   8 21.0747 6.34603   1
   7  12   4 199.104 34.7739  -2
   7  12   8 199.104 34.7739   1
   8  12   8 35.6020 7.98531   1
   9  12   8 248.993 16.5341   1
  10  12   6 1028.65 43.3828  -2
  10  12   8 1028.65 43.3828   1
  11  12   7 1319.79 65.9520  -2
  11  12   8 1319.79 65.9520   1
  12  12   8 19.4497 13.5737  -2
  12  12   8 19.4497 13.5737   1
  13  12   9 51.7912 22.8505  -2
  13  12   8 51.7912 22.8505   1
   8 -13  10 -1.8162 32.9364  -2
  -8  13   8 -1.8162 32.9364   1
   6 -13   8 522.852 24.6508  -2
  -6  13   8 522.852 24.6508   1
   5 -13   7 557.299 24.7952  -2
  -5  13   8 557.299 24.7952   1
   4 -13   6 193.712 18.5543  -2
  -4  13   8 193.712 18.5543   1
   3 -13   5 174.243 23.6007  -2
  -3  13   8 174.243 23.6007   1
  -2  13   8 426.877 15.6639   1
   1 -13   4 388.900 25.1559  -2
  -1  13   8 388.900 25.1559   1
   0 -13   3 12.1430 17.5961  -2
   0  13   8 12.1430 17.5961   1
  -1 -13   2 437.387 25.9223  -2
   1  13   8 437.387 25.9223   1
  -2 -13   1 192.563 13.2911  -2
   2  13   8 192.563 13.2911   1
   3  13   0 340.267 13.1778  -2
   3  13   8 340.267 13.1778   1
   4  13   1 486.576 24.7942  -2
   4  13   8 486.576 24.7942   1
   5  13   2 109.743 14.1279  -2
   5  13   8 109.743 14.1279   1
   7  13   4 86.8581 15.6735  -2
   7  13   8 86.8581 15.6735   1
   8  13   5 121.239 19.4896  -2
   8  13   8 121.239 19.4896   1
   9  13   6 41.1009 20.2627  -2
   9  13   8 41.1009 20.2627   1
  10  13   7 389.270 30.8755  -2
  10  13   8 389.270 30.8755   1
  11  13   8 56.8766 28.5999  -2
  11  13   8 56.8766 28.5999   1
  12  13   9 113.395 28.3595  -2
  12  13   8 113.395 28.3595   1
  -7  14   8 653.203 36.1237   1
   6 -14   8 121.866 29.4816  -2
  -6  14   8 121.866 29.4816   1
   5 -14   7 659.488 33.3375  -2
  -5  14   8 659.488 33.3375   1
   4 -14   6 116.136 9.34786  -2
  -4  14   8 116.136 9.34786   1
   3 -14   5 18.6514 7.03660  -2
  -3  14   8 18.6514 7.03660   1
   2 -14   4 1981.29 62.2015  -2
  -2  14   8 1981.29 62.2015   1
   1 -14   3 38.0205 4.86144  -2
  -1  14   8 38.0205 4.86144   1
   0 -14   2 61.8387 14.9327  -2
   0  14   8 61.8387 14.9327   1
  -1 -14   1 -28.351 25.3868  -2
   1  14   8 -28.351 25.3868   1
   2  14   0 1322.65 89.6487  -2
   2  14   8 1322.65 89.6487   1
   3  14   8 144.030 8.43983   1
   4  14   8 5.01139 4.00590   1
   5  14   8 249.047 12.3585   1
   6  14   3 321.357 31.1144  -2
   6  14   8 321.357 31.1144   1
   7  14   4 219.026 21.2628  -2
   7  14   8 219.026 21.2628   1
   8  14   5 49.7920 19.6533  -2
   8  14   8 49.7920 19.6533   1
   9  14   6 29.3778 17.8221  -2
   9  14   8 29.3778 17.8221   1
  10  14   7 15.1075 18.7854  -2
  10  14   8 15.1075 18.7854   1
  11  14   8 23.1054 17.3727  -2
  11  14   8 23.1054 17.3727   1
  -5  15   8 82.2252 13.3642   1
  -4  15   8 10.9419 4.41872   1
   3 -15   5 39.2774 14.1324  -2
  -3  15   8 39.2774 14.1324   1
   2 -15   4 190.430 13.9238  -2
  -2  15   8 190.430 13.9238   1
   1 -15   3 11.3179 27.0914  -2
  -1  15   8 11.3179 27.0914   1
   0 -15   2 45.3760 24.7553  -2
   0  15   8 45.3760 24.7553   1
  -1 -15   1 27.4766 4.59320  -2
   1  15   8 27.4766 4.59320   1
   2  15   0 353.105 16.1096  -2
   2  15   8 353.105 16.1096   1
   3  15   1 84.3527 7.47712  -2
   3  15   8 84.3527 7.47712   1
   4  15   2 71.3617 8.69449  -2
   4  15   8 71.3617 8.69449   1
   5  15   3 76.4051 10.1685  -2
   5  15   8 76.4051 10.1685   1
   6  15   4 241.337 16.5871  -2
   6  15   8 241.337 16.5871   1
   7  15   5 649.449 47.7650  -2
   7  15   8 649.449 47.7650   1
   8  15   6 15.2457 28.3784  -2
   8  15   8 15.2457 28.3784   1
   9  15   7 55.6685 33.5734  -2
   9  15   8 55.6685 33.5734   1
  10  15   8 883.893 45.4998   1
   4 -16   5 70.6225 21.9466  -2
  -4  16   8 70.6225 21.9466   1
   3 -16   4 69.9919 22.9695  -2
  -3  16   8 69.9919 22.9695   1
   2 -16   3 460.105 48.9919  -2
  -2  16   8 460.105 48.9919   1
   1 -16   2 102.655 33.3445  -2
  -1  16   8 102.655 33.3445   1
   0 -16   1 54.7520 24.5254  -2
   0  16   8 54.7520 24.5254   1
   1  16   0 61.2164 26.5919  -2
   1  16   8 61.2164 26.5919   1
   2  16   8 34.5834 3.82497   1
   3  16   1 56.4944 27.0832  -2
   3  16   8 56.4944 27.0832   1
   4  16   2 46.4200 10.6181  -2
   4  16   8 46.4200 10.6181   1
   5  16   3 85.5458 15.9913  -2
   5  16   8 85.5458 15.9913   1
   6  16   4 25.7433 16.2956  -2
   6  16   8 25.7433 16.2956   1
   7  16   5 205.809 28.4083  -2
   7  16   8 205.809 28.4083   1
   8  16   6 40.8416 15.2884  -2
   8  16   8 40.8416 15.2884   1
   0 -17   1 382.904 31.2000  -2
   0  17   8 382.904 31.2000   1
   1  17   0 1034.89 67.8830  -2
   1  17   8 1034.89 67.8830   1
   2  17   1 17.0105 21.3598  -2
   2  17   8 17.0105 21.3598   1
   3  17   2 257.862 30.3395  -2
   3  17   8 257.862 30.3395   1
   4  17   3 96.9681 27.0964  -2
   4  17   8 96.9681 27.0964   1
   5  17   4 154.097 19.1852  -2
   5  17   8 154.097 19.1852   1
   6  17   5 429.876 31.3405  -2
   6  17   8 429.876 31.3405   1
   0  13  14 59.8940 17.5552  -2
   0 -13   9 59.8940 17.5552   1
  -1  13  13 85.4231 26.9671  -2
   1 -13   9 85.4231 26.9671   1
   2 -13   9 5.62630 6.66619   1
  -3  13  12 56.8646 32.4518  -2
   3 -13   9 56.8646 32.4518   1
  -4  13  11 59.5340 17.5428  -2
   4 -13   9 59.5340 17.5428   1
  -5  13  10 121.792 16.5154  -2
   5 -13   9 121.792 16.5154   1
  -6  13   9 114.779 23.3859  -2
   6 -13   9 114.779 23.3859   1
  -7  13   8 121.413 16.0415  -2
   7 -13   9 121.413 16.0415   1
  -8  13   7 8.19026 15.0909  -2
   8 -13   9 8.19026 15.0909   1
  -9  13   6 45.9757 28.4119  -2
   9 -13   9 45.9757 28.4119   1
   2  12  16 386.354 24.6692  -2
  -2 -12   9 386.354 24.6692   1
   1  12  15 394.254 20.7093  -2
  -1 -12   9 394.254 20.7093   1
   0  12  14 37.7963 11.8947  -2
   0 -12   9 37.7963 11.8947   1
  -1  12  13 574.435 21.0681  -2
   1 -12   9 574.435 21.0681   1
  -2  12  12 21.9765 11.1375  -2
   2 -12   9 21.9765 11.1375   1
  -3  12  11 357.167 16.0149  -2
   3 -12   9 357.167 16.0149   1
  -4  12  10 68.9596 12.8283  -2
   4 -12   9 68.9596 12.8283   1
  -5  12   9 75.2363 16.0690  -2
   5 -12   9 75.2363 16.0690   1
  -6  12   8 58.8360 14.4619  -2
   6 -12   9 58.8360 14.4619   1
  -7  12   7 176.048 24.4889  -2
   7 -12   9 176.048 24.4889   1
   8 -12   9 124.446 10.2787   1
   9 -12   9 15.0471 6.94993   1
 -10  12   5 21.4394 20.3568  -2
  10 -12   9 21.4394 20.3568   1
 -11  12   4 360.805 31.6783  -2
  11 -12   9 360.805 31.6783   1
   3  11  16 10.6557 22.7366  -2
  -3 -11   9 10.6557 22.7366   1
   2  11  15 106.005 19.8569  -2
  -2 -11   9 106.005 19.8569   1
   1  11  14 16.1162 29.7085  -2
  -1 -11   9 16.1162 29.7085   1
   0  11  14 -21.676 23.0265  -2
   0 -11   9 -21.676 23.0265   1
  -1  11  13 51.0223 15.6740  -2
   1 -11   9 51.0223 15.6740   1
  -2  11  12 312.387 16.8495  -2
   2 -11   9 312.387 16.8495   1
  -3  11  11 116.096 12.6355  -2
   3 -11   9 116.096 12.6355   1
  -4  11  10 388.351 17.0854  -2
   4 -11   9 388.351 17.0854   1
  -5  11   9 123.775 11.6943  -2
   5 -11   9 123.775 11.6943   1
  -6  11   8 226.748 14.3632  -2
   6 -11   9 226.748 14.3632   1
  -7  11   7 260.028 13.4008  -2
   7 -11   9 260.028 13.4008   1
  -8  11   6 133.638 11.7529  -2
   8 -11   9 133.638 11.7529   1
  -9  11   5 110.617 14.0154  -2
   9 -11   9 110.617 14.0154   1
 -10  11   4 64.4776 15.1002  -2
  10 -11   9 64.4776 15.1002   1
 -11  11   3 528.438 27.2005  -2
  11 -11   9 528.438 27.2005   1
 -12  11   2 112.850 20.9099  -2
  12 -11   9 112.850 20.9099   1
 -13  11   1 490.760 31.3178  -2
  13 -11   9 490.760 31.3178   1
  -5 -10   9 64.8440 28.2411   1
   4  10  17 39.1782 18.3417  -2
  -4 -10   9 39.1782 18.3417   1
   3  10  16 170.157 17.8215  -2
  -3 -10   9 170.157 17.8215   1
   2  10  15 53.0327 12.6919  -2
  -2 -10   9 53.0327 12.6919   1
   1  10  14 147.056 11.1662  -2
  -1 -10   9 147.056 11.1662   1
   0  10  13 71.8566 10.5546  -2
   0 -10   9 71.8566 10.5546   1
  -1  10  12 25.3189 10.3674  -2
   1 -10   9 25.3189 10.3674   1
  -2  10  11 61.5409 10.9137  -2
   2 -10   9 61.5409 10.9137   1
  -3  10  10 333.004 16.1272  -2
   3 -10   9 333.004 16.1272   1
  -4  10   9 480.899 21.8319  -2
   4 -10   9 480.899 21.8319   1
  -5  10   8 189.512 32.8370  -2
   5 -10   9 189.512 32.8370   1
   6 -10   9 41.3336 5.64257   1
  -7  10   7 73.8758 22.7986  -2
   7 -10   9 73.8758 22.7986   1
  -8  10   6 347.479 19.2576  -2
   8 -10   9 347.479 19.2576   1
  -9  10   5 144.833 13.8360  -2
   9 -10   9 144.833 13.8360   1
 -10  10   4 140.739 13.6741  -2
  10 -10   9 140.739 13.6741   1
 -11  10   3 120.876 14.9874  -2
  11 -10   9 120.876 14.9874   1
 -12  10   2 444.803 23.2972  -2
  12 -10   9 444.803 23.2972   1
 -13  10   1 38.2458 14.0099  -2
  13 -10   9 38.2458 14.0099   1
 -14  10   0 31.5391 17.8961  -2
  14 -10   9 31.5391 17.8961   1
   6   9  18 52.6476 48.6396  -2
  -6  -9   9 52.6476 48.6396   1
   5   9  17 35.4643 31.3813  -2
  -5  -9   9 35.4643 31.3813   1
  -4  -9   9 212.214 15.7982   1
  -3  -9   9 48.8119 7.16716   1
   2   9  15 399.381 25.0504  -2
  -2  -9   9 399.381 25.0504   1
   1   9  14 224.086 13.9959  -2
  -1  -9   9 224.086 13.9959   1
   0   9  13 233.269 13.2013  -2
   0  -9   9 233.269 13.2013   1
  -1   9  12 168.536 11.4392  -2
   1  -9   9 168.536 11.4392   1
  -2   9  11 613.884 19.3320  -2
   2  -9   9 613.884 19.3320   1
  -3   9  10 182.716 12.3951  -2
   3  -9   9 182.716 12.3951   1
  -4   9   9 217.489 12.2986  -2
   4  -9   9 217.489 12.2986   1
  -5   9   8 146.482 9.17581  -2
   5  -9   9 146.482 9.17581   1
  -6   9   7 76.6336 10.1236  -2
   6  -9   9 76.6336 10.1236   1
  -7   9   6 690.214 23.6513  -2
   7  -9   9 690.214 23.6513   1
  -8   9   5 1287.42 38.5915  -2
   8  -9   9 1287.42 38.5915   1
  -9   9   4 220.739 13.8571  -2
   9  -9   9 220.739 13.8571   1
 -10   9   3 91.7662 14.5977  -2
  10  -9   9 91.7662 14.5977   1
 -11   9   2 364.307 29.7030  -2
  11  -9   9 364.307 29.7030   1
  12  -9   9 13.7796 6.23962   1
 -13   9   1 110.672 25.1173  -2
  13  -9   9 110.672 25.1173   1
 -14   9   0 39.5210 22.7737  -2
  14  -9   9 39.5210 22.7737   1
  15  -9   1 173.263 57.4572  -2
  15  -9   9 173.263 57.4572   1
   6   8  18 303.282 30.5237  -2
  -6  -8   9 303.282 30.5237   1
   5   8  17 61.8867 18.6734  -2
  -5  -8   9 61.8867 18.6734   1
   4   8  16 22.3430 16.9554  -2
  -4  -8   9 22.3430 16.9554   1
   3   8  15 118.334 12.6639  -2
  -3  -8   9 118.334 12.6639   1
   2   8  14 57.4751 13.1942  -2
  -2  -8   9 57.4751 13.1942   1
   1   8  13 120.911 12.3541  -2
  -1  -8   9 120.911 12.3541   1
   0   8  12 732.288 24.8542  -2
   0  -8   9 732.288 24.8542   1
  -1   8  11 538.458 25.2506  -2
   1  -8   9 538.458 25.2506   1
   2  -8   9 226.188 9.71727   1
   3  -8   9 38.0266 5.08216   1
  -4   8   9 142.239 23.1175  -2
   4  -8   9 142.239 23.1175   1
  -5   8   8 16.9079 11.8980  -2
   5  -8   9 16.9079 11.8980   1
  -6   8   7 502.793 18.8509  -2
   6  -8   9 502.793 18.8509   1
  -7   8   6 710.863 23.2595  -2
   7  -8   9 710.863 23.2595   1
  -8   8   5 399.702 15.9485  -2
   8  -8   9 399.702 15.9485   1
  -9   8   4 537.086 18.8938  -2
   9  -8   9 537.086 18.8938   1
 -10   8   3 197.257 10.7839  -2
  10  -8   9 197.257 10.7839   1
 -11   8   2 150.851 11.0228  -2
  11  -8   9 150.851 11.0228   1
 -12   8   1 238.012 13.3865  -2
  12  -8   9 238.012 13.3865   1
 -13   8   0 50.1059 14.4322  -2
  13  -8   9 50.1059 14.4322   1
  14  -8   1 10.7584 17.6113  -2
  14  -8   9 10.7584 17.6113   1
  15  -8   2 14.7107 18.8302  -2
  15  -8   9 14.7107 18.8302   1
   7   7  18 86.8954 45.2843  -2
  -7  -7   9 86.8954 45.2843   1
  -6  -7   9 94.1984 12.3992   1
   5   7  17 -46.240 28.2471  -2
  -5  -7   9 -46.240 28.2471   1
   4   7  16 92.0545 18.5960  -2
  -4  -7   9 92.0545 18.5960   1
   3   7  15 184.006 17.6646  -2
  -3  -7   9 184.006 17.6646   1
   2   7  14 95.2890 11.9098  -2
  -2  -7   9 95.2890 11.9098   1
   1   7  13 274.059 13.8259  -2
  -1  -7   9 274.059 13.8259   1
   0   7  12 311.808 13.5922  -2
   0  -7   9 311.808 13.5922   1
  -1   7  11 186.884 10.6761  -2
   1  -7   9 186.884 10.6761   1
  -2   7  10 552.114 20.5037  -2
   2  -7   9 552.114 20.5037   1
  -3   7   9 313.099 11.5116  -2
   3  -7   9 313.099 11.5116   1
  -4   7   8 832.562 29.2020  -2
   4  -7   9 832.562 29.2020   1
  -5   7   7 272.058 14.4413  -2
   5  -7   9 272.058 14.4413   1
  -6   7   6 210.917 13.6133  -2
   6  -7   9 210.917 13.6133   1
  -7   7   5 54.2155 12.8560  -2
   7  -7   9 54.2155 12.8560   1
  -8   7   4 11.9020 15.7312  -2
   8  -7   9 11.9020 15.7312   1
   9  -7   9 0.23699 4.54979   1
  10  -7   9 0.92241 5.68995   1
 -11   7   2 742.426 32.4559  -2
  11  -7   9 742.426 32.4559   1
 -12   7   1 289.879 17.8259  -2
  12  -7   9 289.879 17.8259   1
 -13   7   0 379.094 18.4552  -2
  13  -7   9 379.094 18.4552   1
  14  -7   1 4.54080 17.6724  -2
  14  -7   9 4.54080 17.6724   1
  15  -7   2 261.498 21.8162  -2
  15  -7   9 261.498 21.8162   1
  16  -7   3 355.679 50.6208  -2
  16  -7   9 355.679 50.6208   1
   8   6  19 83.5630 19.9708  -2
  -8  -6   9 83.5630 19.9708   1
   7   6  18 77.9784 16.4288  -2
  -7  -6   9 77.9784 16.4288   1
   6   6  17 7.64678 21.3647  -2
  -6  -6   9 7.64678 21.3647   1
   5   6  16 75.9600 15.2709  -2
  -5  -6   9 75.9600 15.2709   1
   4   6  15 50.8711 15.1193  -2
  -4  -6   9 50.8711 15.1193   1
   3   6  14 218.733 17.5909  -2
  -3  -6   9 218.733 17.5909   1
   2   6  13 223.745 13.6409  -2
  -2  -6   9 223.745 13.6409   1
   1   6  12 257.547 15.2538  -2
  -1  -6   9 257.547 15.2538   1
   0  -6   9 -5.0233 3.88652   1
   1  -6   9 57.3014 4.87802   1
  -2   6  10 60.7572 14.4915  -2
   2  -6   9 60.7572 14.4915   1
  -3   6   9 129.541 10.1680  -2
   3  -6   9 129.541 10.1680   1
  -4   6   8 294.914 14.5353  -2
   4  -6   9 294.914 14.5353   1
  -5   6   7 9.43276 9.32111  -2
   5  -6   9 9.43276 9.32111   1
  -6   6   6 876.205 26.6475  -2
   6  -6   9 876.205 26.6475   1
  -7   6   5 447.547 15.6014  -2
   7  -6   9 447.547 15.6014   1
  -8   6   4 249.727 10.3301  -2
   8  -6   9 249.727 10.3301   1
  -9   6   3 163.290 9.38768  -2
   9  -6   9 163.290 9.38768   1
 -10   6   2 6.25129 12.0949  -2
  10  -6   9 6.25129 12.0949   1
 -11   6   1 364.840 14.6101  -2
  11  -6   9 364.840 14.6101   1
 -12   6   0 103.217 12.4557  -2
  12  -6   9 103.217 12.4557   1
  13  -6   1 24.7902 14.7551  -2
  13  -6   9 24.7902 14.7551   1
  14  -6   2 8.64674 16.6101  -2
  14  -6   9 8.64674 16.6101   1
  15  -6   3 411.124 51.6119  -2
  15  -6   9 411.124 51.6119   1
  16  -6   4 690.308 65.4122  -2
  16  -6   9 690.308 65.4122   1
   8   5  19 205.220 52.8034  -2
  -8  -5   9 205.220 52.8034   1
   7   5  18 46.2739 23.1913  -2
  -7  -5   9 46.2739 23.1913   1
   6   5  17 270.849 17.3796  -2
  -6  -5   9 270.849 17.3796   1
   5   5  16 250.347 18.5692  -2
  -5  -5   9 250.347 18.5692   1
   4   5  15 239.862 16.6289  -2
  -4  -5   9 239.862 16.6289   1
   3   5  14 319.624 17.0729  -2
  -3  -5   9 319.624 17.0729   1
   2   5  13 302.621 15.6888  -2
  -2  -5   9 302.621 15.6888   1
   1   5  12 534.886 23.5784  -2
  -1  -5   9 534.886 23.5784   1
   0   5  11 722.055 24.5420  -2
   0  -5   9 722.055 24.5420   1
  -1   5  10 221.427 10.3692  -2
   1  -5   9 221.427 10.3692   1
  -2   5   9 1119.45 30.2183  -2
   2  -5   9 1119.45 30.2183   1
  -3   5   8 751.669 23.7231  -2
   3  -5   9 751.669 23.7231   1
  -4   5   7 357.026 17.4788  -2
   4  -5   9 357.026 17.4788   1
  -5   5   6 149.215 14.4064  -2
   5  -5   9 149.215 14.4064   1
  -6   5   5 855.728 55.2695  -2
   6  -5   9 855.728 55.2695   1
   7  -5   9 31.9423 4.43178   1
  -8   5   4 534.986 38.5933  -2
   8  -5   9 534.986 38.5933   1
  -9   5   3 975.587 38.9807  -2
   9  -5   9 975.587 38.9807   1
 -10   5   2 1001.57 34.0791  -2
  10  -5   9 1001.57 34.0791   1
 -11   5   1 444.852 16.2959  -2
  11  -5   9 444.852 16.2959   1
 -12   5   0 86.8644 11.0096  -2
  12  -5   9 86.8644 11.0096   1
  13  -5   1 96.9362 12.3575  -2
  13  -5   9 96.9362 12.3575   1
  14  -5   2 334.266 15.0322  -2
  14  -5   9 334.266 15.0322   1
  15  -5   3 423.831 23.2271  -2
  15  -5   9 423.831 23.2271   1
  16  -5   4 213.801 17.9261  -2
  16  -5   9 213.801 17.9261   1
  17  -5   5 211.052 51.7214  -2
  17  -5   9 211.052 51.7214   1
   9   4  19 337.502 24.1438  -2
  -9  -4   9 337.502 24.1438   1
   8   4  18 23.0635 25.0809  -2
  -8  -4   9 23.0635 25.0809   1
   7   4  17 16.5825 15.0845  -2
  -7  -4   9 16.5825 15.0845   1
   6   4  16 680.160 24.7623  -2
  -6  -4   9 680.160 24.7623   1
   5   4  15 15.6772 12.2802  -2
  -5  -4   9 15.6772 12.2802   1
   4   4  14 480.094 24.8212  -2
  -4  -4   9 480.094 24.8212   1
   3   4  13 277.325 38.7819  -2
  -3  -4   9 277.325 38.7819   1
  -2  -4   9 159.068 9.00964   1
   1   4  12 329.873 21.2724  -2
  -1  -4   9 329.873 21.2724   1
   0   4  11 538.964 17.9979  -2
   0  -4   9 538.964 17.9979   1
  -1   4  10 1460.23 38.6747  -2
   1  -4   9 1460.23 38.6747   1
  -2   4   9 97.1580 7.38113  -2
   2  -4   9 97.1580 7.38113   1
  -3   4   8 690.515 23.5586  -2
   3  -4   9 690.515 23.5586   1
  -4   4   7 596.416 23.8383  -2
   4  -4   9 596.416 23.8383   1
  -5   4   6 281.513 11.2685  -2
   5  -4   9 281.513 11.2685   1
  -6   4   5 849.630 27.8245  -2
   6  -4   9 849.630 27.8245   1
  -7   4   4 203.904 9.43168  -2
   7  -4   9 203.904 9.43168   1
  -8   4   3 1218.83 36.0049  -2
   8  -4   9 1218.83 36.0049   1
  -9   4   2 241.956 12.0411  -2
   9  -4   9 241.956 12.0411   1
 -10   4   1 247.295 19.9333  -2
  10  -4   9 247.295 19.9333   1
 -11   4   0 83.9106 12.3811  -2
  11  -4   9 83.9106 12.3811   1
  12  -4   1 860.113 64.6364  -2
  12  -4   9 860.113 64.6364   1
  13  -4   9 689.807 21.1165   1
  14  -4   2 -4.7979 27.7601  -2
  14  -4   9 -4.7979 27.7601   1
  15  -4   3 -5.1948 16.6455  -2
  15  -4   9 -5.1948 16.6455   1
  16  -4   4 70.2242 50.4462  -2
  16  -4   9 70.2242 50.4462   1
  17  -4   5 2.92548 49.6921  -2
  17  -4   9 2.92548 49.6921   1
   9   3  19 8.22356 41.5452  -2
  -9  -3   9 8.22356 41.5452   1
   8   3  18 462.522 27.4977  -2
  -8  -3   9 462.522 27.4977   1
   7   3  17 54.2247 13.5867  -2
  -7  -3   9 54.2247 13.5867   1
   6   3  16 45.6349 11.3228  -2
  -6  -3   9 45.6349 11.3228   1
   5   3  15 214.197 12.3993  -2
  -5  -3   9 214.197 12.3993   1
   4   3  14 78.9771 8.64998  -2
  -4  -3   9 78.9771 8.64998   1
   3   3  13 177.265 9.61325  -2
  -3  -3   9 177.265 9.61325   1
   2   3  12 1007.67 49.8024  -2
  -2  -3   9 1007.67 49.8024   1
   1   3  11 206.402 10.1789  -2
  -1  -3   9 206.402 10.1789   1
   0   3  10 444.829 16.9335  -2
   0  -3   9 444.829 16.9335   1
  -1   3   9 553.074 19.3982  -2
   1  -3   9 553.074 19.3982   1
  -2   3   8 583.933 28.6520  -2
   2  -3   9 583.933 28.6520   1
  -3   3   7 -1.9892 18.2884  -2
   3  -3   9 -1.9892 18.2884   1
   4  -3   9 385.088 11.6392   1
   5  -3   9 258.590 8.88350   1
  -6   3   5 167.476 13.6683  -2
   6  -3   9 167.476 13.6683   1
  -7   3   4 126.539 9.71995  -2
   7  -3   9 126.539 9.71995   1
  -8   3   3 332.341 15.2286  -2
   8  -3   9 332.341 15.2286   1
  -9   3   2 351.026 14.3228  -2
   9  -3   9 351.026 14.3228   1
 -10   3   1 7.12595 8.53317  -2
  10  -3   9 7.12595 8.53317   1
 -11   3   0 230.287 11.9086  -2
  11  -3   9 230.287 11.9086   1
  12  -3   1 404.146 15.3743  -2
  12  -3   9 404.146 15.3743   1
  13  -3   2 856.976 27.0835  -2
  13  -3   9 856.976 27.0835   1
  14  -3   3 148.414 12.0642  -2
  14  -3   9 148.414 12.0642   1
  15  -3   4 43.1207 14.6148  -2
  15  -3   9 43.1207 14.6148   1
  16  -3   5 74.5509 23.5575  -2
  16  -3   9 74.5509 23.5575   1
  17  -3   6 139.700 35.5505  -2
  17  -3   9 139.700 35.5505   1
   9   2  18 -57.573 38.0070  -2
  -9  -2   9 -57.573 38.0070   1
   8   2  17 10.0892 16.0895  -2
  -8  -2   9 10.0892 16.0895   1
   7   2  16 6.06914 14.0552  -2
  -7  -2   9 6.06914 14.0552   1
   6   2  15 380.212 39.5616  -2
  -6  -2   9 380.212 39.5616   1
  -5  -2   9 9.39930 5.06229   1
  -4  -2   9 27.1679 4.96533   1
   3   2  13 390.826 21.9326  -2
  -3  -2   9 390.826 21.9326   1
   2   2  12 49.5450 12.2367  -2
  -2  -2   9 49.5450 12.2367   1
   1   2  11 621.561 20.0858  -2
  -1  -2   9 621.561 20.0858   1
   0   2  10 201.613 11.4899  -2
   0  -2   9 201.613 11.4899   1
  -1   2   9 78.1649 5.15230  -2
   1  -2   9 78.1649 5.15230   1
  -2   2   8 446.032 14.1558  -2
   2  -2   9 446.032 14.1558   1
  -3   2   7 316.317 11.0064  -2
   3  -2   9 316.317 11.0064   1
  -4   2   6 600.212 16.7044  -2
   4  -2   9 600.212 16.7044   1
  -5   2   5 278.035 9.47506  -2
   5  -2   9 278.035 9.47506   1
  -6   2   4 705.141 19.8285  -2
   6  -2   9 705.141 19.8285   1
  -7   2   3 352.663 13.0277  -2
   7  -2   9 352.663 13.0277   1
  -8   2   2 1104.79 40.9072  -2
   8  -2   9 1104.79 40.9072   1
  -9   2   1 1845.00 82.7734  -2
   9  -2   9 1845.00 82.7734   1
  10  -2   9 227.345 9.52399   1
  11  -2   9 28.7651 5.03626   1
  12  -2   1 50.1828 16.1515  -2
  12  -2   9 50.1828 16.1515   1
  13  -2   2 232.566 16.2602  -2
  13  -2   9 232.566 16.2602   1
  14  -2   3 340.370 19.0043  -2
  14  -2   9 340.370 19.0043   1
  15  -2   4 75.3519 14.7753  -2
  15  -2   9 75.3519 14.7753   1
  16  -2   5 212.425 30.7577  -2
  16  -2   9 212.425 30.7577   1
  17  -2   6 875.389 51.2663  -2
  17  -2   9 875.389 51.2663   1
  18  -2   7 205.353 34.3934  -2
  18  -2   9 205.353 34.3934   1
  10   1  19 58.8649 22.3182  -2
 -10  -1   9 58.8649 22.3182   1
   9   1  18 45.9365 16.8748  -2
  -9  -1   9 45.9365 16.8748   1
   8   1  17 99.4497 11.6723  -2
  -8  -1   9 99.4497 11.6723   1
   7   1  16 152.302 10.3597  -2
  -7  -1   9 152.302 10.3597   1
   6   1  15 140.577 9.66520  -2
  -6  -1   9 140.577 9.66520   1
   5   1  14 187.971 9.52466  -2
  -5  -1   9 187.971 9.52466   1
   4   1  13 255.952 13.5184  -2
  -4  -1   9 255.952 13.5184   1
   3   1  12 374.016 15.5628  -2
  -3  -1   9 374.016 15.5628   1
   2   1  11 195.682 14.8567  -2
  -2  -1   9 195.682 14.8567   1
   1   1  10 61.7834 8.28615  -2
  -1  -1   9 61.7834 8.28615   1
   0   1   9 743.197 46.4163  -2
   0  -1   9 743.197 46.4163   1
   1  -1   9 279.243 10.1268   1
   2  -1   9 24.8759 2.57224   1
  -3   1   7 150.894 11.3074  -2
   3  -1   9 150.894 11.3074   1
  -4   1   6 635.168 19.2264  -2
   4  -1   9 635.168 19.2264   1
  -5   1   5 1697.63 43.9539  -2
   5  -1   9 1697.63 43.9539   1
  -6   1   4 408.629 12.6708  -2
   6  -1   9 408.629 12.6708   1
  -7   1   3 2296.37 58.9115  -2
   7  -1   9 2296.37 58.9115   1
  -8   1   2 234.775 9.85579  -2
   8  -1   9 234.775 9.85579   1
  -9   1   1 124.856 7.76635  -2
   9  -1   9 124.856 7.76635   1
 -10   1   0 21.9450 6.77247  -2
  10  -1   9 21.9450 6.77247   1
  11  -1   1 143.713 10.6395  -2
  11  -1   9 143.713 10.6395   1
  12  -1   2 1620.85 53.3512  -2
  12  -1   9 1620.85 53.3512   1
  13  -1   3 405.400 19.2541  -2
  13  -1   9 405.400 19.2541   1
  14  -1   4 176.999 18.2841  -2
  14  -1   9 176.999 18.2841   1
  15  -1   5 120.938 25.8915  -2
  15  -1   9 120.938 25.8915   1
  16  -1   6 930.196 74.7326  -2
  16  -1   9 930.196 74.7326   1
  17  -1   9 128.710 18.0434   1
  18  -1   9 7.51341 16.9254   1
  10   0  18 155.471 48.6273  -2
 -10   0   9 155.471 48.6273   1
   9   0  17 120.448 21.9568  -2
  -9   0   9 120.448 21.9568   1
   8   0  16 232.162 30.3314  -2
  -8   0   9 232.162 30.3314   1
  -7   0   9 39.9150 6.35057   1
   6   0  15 44.9351 17.7504  -2
  -6   0   9 44.9351 17.7504   1
   5   0  14 231.984 15.0129  -2
  -5   0   9 231.984 15.0129   1
   4   0  13 677.024 22.3297  -2
  -4   0   9 677.024 22.3297   1
   3   0  12 380.862 15.5758  -2
  -3   0   9 380.862 15.5758   1
   2   0  11 122.254 10.1472  -2
  -2   0   9 122.254 10.1472   1
   1   0  10 827.971 24.6963  -2
  -1   0   9 827.971 24.6963   1
   0   0   9 63.7971 4.89914  -2
   0   0   9 63.7971 4.89914   1
  -1   0   8 125.536 6.14006  -2
   1   0   9 125.536 6.14006   1
  -2   0   7 89.9448 5.36276  -2
   2   0   9 89.9448 5.36276   1
  -3   0   6 1031.50 29.8265  -2
   3   0   9 1031.50 29.8265   1
  -4   0   5 196.858 8.09756  -2
   4   0   9 196.858 8.09756   1
  -5   0   4 1787.63 78.6492  -2
   5   0   9 1787.63 78.6492   1
   6   0   9 2.54649 3.19479   1
   7   0   9 110.200 5.72344   1
   8   0   9 1179.46 31.3773   1
   9   0   9 173.550 8.25556   1
  10   0   0 170.558 25.2060  -2
  10   0   9 170.558 25.2060   1
  11   0   1 295.968 21.2425  -2
  11   0   9 295.968 21.2425   1
  12   0   2 479.489 20.2228  -2
  12   0   9 479.489 20.2228   1
  13   0   3 439.040 19.4748  -2
  13   0   9 439.040 19.4748   1
  14   0   4 68.0738 12.0740  -2
  14   0   9 68.0738 12.0740   1
  15   0   5 208.382 12.3246  -2
  15   0   9 208.382 12.3246   1
  16   0   6 24.7345 12.8425  -2
  16   0   9 24.7345 12.8425   1
  17   0   7 7.81467 34.5422  -2
  17   0   9 7.81467 34.5422   1
  10  -1  18 14.0152 19.4466  -2
 -10   1   9 14.0152 19.4466   1
   9  -1  17 38.5311 12.3833  -2
  -9   1   9 38.5311 12.3833   1
   8  -1  16 194.231 14.7214  -2
  -8   1   9 194.231 14.7214   1
   7  -1  15 9.86413 8.73006  -2
  -7   1   9 9.86413 8.73006   1
   6  -1  14 296.565 12.9816  -2
  -6   1   9 296.565 12.9816   1
   5  -1  13 1064.57 29.2328  -2
  -5   1   9 1064.57 29.2328   1
   4  -1  12 66.9427 11.4209  -2
  -4   1   9 66.9427 11.4209   1
   3  -1  11 212.103 18.4908  -2
  -3   1   9 212.103 18.4908   1
  -2   1   9 497.563 16.0679   1
  -1   1   9 1.20062 2.42905   1
   0   1   9 134.790 5.85578   1
  -1  -1   8 403.482 14.8287  -2
   1   1   9 403.482 14.8287   1
  -2  -1   7 230.750 8.97934  -2
   2   1   9 230.750 8.97934   1
  -3  -1   6 562.374 15.4142  -2
   3   1   9 562.374 15.4142   1
  -4  -1   5 568.963 15.7145  -2
   4   1   9 568.963 15.7145   1
  -5  -1   4 1120.06 29.3456  -2
   5   1   9 1120.06 29.3456   1
  -6  -1   3 20.9160 4.24473  -2
   6   1   9 20.9160 4.24473   1
  -7  -1   2 560.629 15.9953  -2
   7   1   9 560.629 15.9953   1
  -8  -1   1 105.520 6.79460  -2
   8   1   9 105.520 6.79460   1
   9   1   0 135.966 10.3416  -2
   9   1   9 135.966 10.3416   1
  10   1   1 306.372 14.9692  -2
  10   1   9 306.372 14.9692   1
  11   1   2 225.925 15.5497  -2
  11   1   9 225.925 15.5497   1
  12   1   3 220.410 26.9947  -2
  12   1   9 220.410 26.9947   1
  13   1   4 541.618 47.9666  -2
  13   1   9 541.618 47.9666   1
  14   1   9 21.5766 6.56437   1
  15   1   5 178.140 28.9807  -2
  15   1   9 178.140 28.9807   1
  16   1   6 433.934 33.1830  -2
  16   1   9 433.934 33.1830   1
  17   1   7 101.388 34.0314  -2
  17   1   9 101.388 34.0314   1
  10  -2  18 372.927 46.5380  -2
 -10   2   9 372.927 46.5380   1
   9  -2  17 237.722 28.6148  -2
  -9   2   9 237.722 28.6148   1
   8  -2  16 267.016 24.1353  -2
  -8   2   9 267.016 24.1353   1
   7  -2  15 594.740 24.5304  -2
  -7   2   9 594.740 24.5304   1
   6  -2  14 98.9194 10.8980  -2
  -6   2   9 98.9194 10.8980   1
   5  -2  13 -0.8545 8.74067  -2
  -5   2   9 -0.8545 8.74067   1
   4  -2  12 513.253 17.0459  -2
  -4   2   9 513.253 17.0459   1
   3  -2  11 440.697 15.7099  -2
  -3   2   9 440.697 15.7099   1
   2  -2  10 13.7356 2.74936  -2
  -2   2   9 13.7356 2.74936   1
   1  -2   9 65.9944 3.55962  -2
  -1   2   9 65.9944 3.55962   1
   0  -2   8 56.7641 3.92996  -2
   0   2   9 56.7641 3.92996   1
  -1  -2   7 247.690 13.4959  -2
   1   2   9 247.690 13.4959   1
  -2  -2   6 117.988 6.10148  -2
   2   2   9 117.988 6.10148   1
  -3  -2   5 483.646 30.9311  -2
   3   2   9 483.646 30.9311   1
   4   2   9 1320.01 37.6539   1
   5   2   9 973.135 25.6956   1
   6   2   9 76.8266 4.58643   1
   7   2   9 105.866 6.17328   1
  -8  -2   1 205.122 15.8932  -2
   8   2   9 205.122 15.8932   1
   9   2   0 397.552 19.3500  -2
   9   2   9 397.552 19.3500   1
  10   2   1 298.061 14.6242  -2
  10   2   9 298.061 14.6242   1
  11   2   2 302.405 14.4802  -2
  11   2   9 302.405 14.4802   1
  12   2   3 306.091 16.9382  -2
  12   2   9 306.091 16.9382   1
  13   2   4 599.400 20.9350  -2
  13   2   9 599.400 20.9350   1
  14   2   5 326.483 16.8572  -2
  14   2   9 326.483 16.8572   1
  15   2   6 404.732 20.3841  -2
  15   2   9 404.732 20.3841   1
  16   2   7 457.286 23.4941  -2
  16   2   9 457.286 23.4941   1
  17   2   8 157.977 34.3967  -2
  17   2   9 157.977 34.3967   1
  18   2   9 80.7309 49.2712  -2
  18   2   9 80.7309 49.2712   1
  10  -3  17 19.1683 20.4912  -2
 -10   3   9 19.1683 20.4912   1
   9  -3  16 399.780 18.4689  -2
  -9   3   9 399.780 18.4689   1
   8  -3  15 84.9532 14.3145  -2
  -8   3   9 84.9532 14.3145   1
   7  -3  14 -10.034 11.6808  -2
  -7   3   9 -10.034 11.6808   1
   6  -3  13 -3.3880 12.5667  -2
  -6   3   9 -3.3880 12.5667   1
   5  -3  12 34.3215 25.7967  -2
  -5   3   9 34.3215 25.7967   1
  -4   3   9 37.9140 5.09811   1
   3  -3  11 941.422 43.5458  -2
  -3   3   9 941.422 43.5458   1
   2  -3  10 178.379 8.59387  -2
  -2   3   9 178.379 8.59387   1
   1  -3   9 533.917 19.4719  -2
  -1   3   9 533.917 19.4719   1
   0  -3   8 277.292 11.8843  -2
   0   3   9 277.292 11.8843   1
  -1  -3   7 95.2778 6.98772  -2
   1   3   9 95.2778 6.98772   1
  -2  -3   6 838.973 27.8176  -2
   2   3   9 838.973 27.8176   1
  -3  -3   5 135.963 4.95452  -2
   3   3   9 135.963 4.95452   1
  -4  -3   4 81.2269 4.14866  -2
   4   3   9 81.2269 4.14866   1
  -5  -3   3 362.943 10.7921  -2
   5   3   9 362.943 10.7921   1
  -6  -3   2 1462.01 41.9182  -2
   6   3   9 1462.01 41.9182   1
  -7  -3   1 1089.65 32.2187  -2
   7   3   9 1089.65 32.2187   1
   8   3   0 2215.04 97.9025  -2
   8   3   9 2215.04 97.9025   1
   9   3   1 2962.81 130.374  -2
   9   3   9 2962.81 130.374   1
  10   3   9 61.1615 5.97051   1
  11   3   9 840.839 29.6264   1
  12   3   9 319.451 15.6493   1
  13   3   4 34.2163 22.1107  -2
  13   3   9 34.2163 22.1107   1
  14   3   5 312.577 26.1984  -2
  14   3   9 312.577 26.1984   1
  15   3   6 1105.57 40.4542  -2
  15   3   9 1105.57 40.4542   1
  16   3   7 106.861 22.5670  -2
  16   3   9 106.861 22.5670   1
  17   3   8 407.037 37.8919  -2
  17   3   9 407.037 37.8919   1
  10  -4  17 72.1770 18.2519  -2
 -10   4   9 72.1770 18.2519   1
   9  -4  16 111.505 21.3176  -2
  -9   4   9 111.505 21.3176   1
   8  -4  15 51.0887 11.4197  -2
  -8   4   9 51.0887 11.4197   1
   7  -4  14 19.1625 8.92397  -2
  -7   4   9 19.1625 8.92397   1
   6  -4  13 149.262 9.22848  -2
  -6   4   9 149.262 9.22848   1
   5  -4  12 258.658 12.4529  -2
  -5   4   9 258.658 12.4529   1
   4  -4  11 412.965 15.2259  -2
  -4   4   9 412.965 15.2259   1
   3  -4  10 373.074 12.5953  -2
  -3   4   9 373.074 12.5953   1
   2  -4   9 109.586 8.65241  -2
  -2   4   9 109.586 8.65241   1
   1  -4   8 14.0451 4.44792  -2
  -1   4   9 14.0451 4.44792   1
   0  -4   7 352.655 13.9812  -2
   0   4   9 352.655 13.9812   1
  -1  -4   6 449.944 31.9031  -2
   1   4   9 449.944 31.9031   1
   2   4   9 51.9575 4.37990   1
   3   4   9 7.16929 1.66951   1
   4   4   9 38.4284 2.96588   1
  -5  -4   3 143.754 10.1806  -2
   5   4   9 143.754 10.1806   1
  -6  -4   2 182.187 8.22048  -2
   6   4   9 182.187 8.22048   1
  -7  -4   1 29.8701 5.90822  -2
   7   4   9 29.8701 5.90822   1
   8   4   0 42.1154 7.16911  -2
   8   4   9 42.1154 7.16911   1
   9   4   1 27.6189 7.05348  -2
   9   4   9 27.6189 7.05348   1
  10   4   2 1803.62 57.8433  -2
  10   4   9 1803.62 57.8433   1
  11   4   3 250.672 14.7458  -2
  11   4   9 250.672 14.7458   1
  12   4   4 161.281 12.3803  -2
  12   4   9 161.281 12.3803   1
  13   4   5 505.285 21.6082  -2
  13   4   9 505.285 21.6082   1
  14   4   6 -8.3467 16.0379  -2
  14   4   9 -8.3467 16.0379   1
  15   4   7 76.7643 15.4777  -2
  15   4   9 76.7643 15.4777   1
  16   4   8 12.8721 45.4595  -2
  16   4   9 12.8721 45.4595   1
  17   4   9 52.5900 16.2927   1
  10  -5  16 63.8755 18.8768  -2
 -10   5   9 63.8755 18.8768   1
   9  -5  15 15.5605 18.3790  -2
  -9   5   9 15.5605 18.3790   1
   8  -5  14 308.519 28.1160  -2
  -8   5   9 308.519 28.1160   1
   7  -5  13 102.299 19.7064  -2
  -7   5   9 102.299 19.7064   1
   6  -5  13 251.705 22.2874  -2
  -6   5   9 251.705 22.2874   1
   5  -5  12 111.734 10.0217  -2
  -5   5   9 111.734 10.0217   1
   4  -5  11 4.12936 6.62097  -2
  -4   5   9 4.12936 6.62097   1
   3  -5  10 179.950 8.17675  -2
  -3   5   9 179.950 8.17675   1
   2  -5   9 958.323 31.5580  -2
  -2   5   9 958.323 31.5580   1
   1  -5   8 260.476 9.14068  -2
  -1   5   9 260.476 9.14068   1
   0  -5   7 560.404 18.5535  -2
   0   5   9 560.404 18.5535   1
  -1  -5   6 422.057 12.7929  -2
   1   5   9 422.057 12.7929   1
  -2  -5   5 581.249 27.4162  -2
   2   5   9 581.249 27.4162   1
  -3  -5   4 572.193 16.9303  -2
   3   5   9 572.193 16.9303   1
  -4  -5   3 944.349 24.6968  -2
   4   5   9 944.349 24.6968   1
  -5  -5   2 1081.07 30.7117  -2
   5   5   9 1081.07 30.7117   1
  -6  -5   1 621.363 23.6365  -2
   6   5   9 621.363 23.6365   1
   7   5   0 132.047 11.2395  -2
   7   5   9 132.047 11.2395   1
   8   5   9 71.5952 5.13916   1
   9   5   9 95.9235 5.98103   1
  10   5   9 277.097 13.4480   1
  11   5   3 745.019 52.3233  -2
  11   5   9 745.019 52.3233   1
  12   5   4 281.978 15.4698  -2
  12   5   9 281.978 15.4698   1
  13   5   5 41.3483 14.1176  -2
  13   5   9 41.3483 14.1176   1
  14   5   6 686.654 27.2631  -2
  14   5   9 686.654 27.2631   1
  15   5   7 89.4118 13.4508  -2
  15   5   9 89.4118 13.4508   1
  16   5   8 26.4320 18.5608  -2
  16   5   9 26.4320 18.5608   1
  17   5   9 15.1277 26.6703  -2
  17   5   9 15.1277 26.6703   1
  10  -6  16 360.976 49.6086  -2
 -10   6   9 360.976 49.6086   1
   9  -6  15 118.859 16.8672  -2
  -9   6   9 118.859 16.8672   1
   8  -6  14 91.0173 9.85311  -2
  -8   6   9 91.0173 9.85311   1
   7  -6  13 261.115 12.5869  -2
  -7   6   9 261.115 12.5869   1
   6  -6  12 11.6440 5.29108  -2
  -6   6   9 11.6440 5.29108   1
   5  -6  11 0.69570 5.77337  -2
  -5   6   9 0.69570 5.77337   1
   4  -6  10 37.1209 5.40385  -2
  -4   6   9 37.1209 5.40385   1
   3  -6   9 129.527 5.88814  -2
  -3   6   9 129.527 5.88814   1
  -2   6   9 23.0557 5.11072   1
  -1   6   9 251.831 11.7691   1
   0   6   9 178.598 9.19237   1
   1   6   9 292.239 12.6237   1
  -2  -6   5 479.429 35.9725  -2
   2   6   9 479.429 35.9725   1
  -3  -6   4 32.6360 5.05781  -2
   3   6   9 32.6360 5.05781   1
  -4  -6   3 56.7217 7.02706  -2
   4   6   9 56.7217 7.02706   1
  -5  -6   2 250.763 8.37730  -2
   5   6   9 250.763 8.37730   1
  -6  -6   1 421.266 12.3497  -2
   6   6   9 421.266 12.3497   1
   7   6   0 55.1834 5.05839  -2
   7   6   9 55.1834 5.05839   1
   8   6   1 2757.04 70.4830  -2
   8   6   9 2757.04 70.4830   1
   9   6   2 176.008 8.85440  -2
   9   6   9 176.008 8.85440   1
  10   6   3 38.1274 9.11002  -2
  10   6   9 38.1274 9.11002   1
  11   6   4 12.7071 9.68976  -2
  11   6   9 12.7071 9.68976   1
  12   6   5 221.419 13.4505  -2
  12   6   9 221.419 13.4505   1
  13   6   6 67.3693 14.2203  -2
  13   6   9 67.3693 14.2203   1
  14   6   7 29.7568 20.3075  -2
  14   6   9 29.7568 20.3075   1
  15   6   8 95.1523 40.3212  -2
  15   6   9 95.1523 40.3212   1
  16   6   9 -2.6951 9.26064   1
  17   6   9 473.705 68.2648  -2
  17   6   9 473.705 68.2648   1
 -10   7   9 -5.0992 25.8164   1
  -9   7   9 53.9252 6.99825   1
   8  -7  14 43.3128 12.6234  -2
  -8   7   9 43.3128 12.6234   1
   7  -7  13 15.6355 8.34255  -2
  -7   7   9 15.6355 8.34255   1
   6  -7  12 104.882 8.25329  -2
  -6   7   9 104.882 8.25329   1
   5  -7  11 124.829 11.4951  -2
  -5   7   9 124.829 11.4951   1
   4  -7  10 419.466 21.7694  -2
  -4   7   9 419.466 21.7694   1
   3  -7   9 346.451 20.6416  -2
  -3   7   9 346.451 20.6416   1
   2  -7   8 27.9448 9.21632  -2
  -2   7   9 27.9448 9.21632   1
   1  -7   7 109.810 7.65280  -2
  -1   7   9 109.810 7.65280   1
   0  -7   6 283.704 12.5289  -2
   0   7   9 283.704 12.5289   1
  -1  -7   5 116.746 5.40401  -2
   1   7   9 116.746 5.40401   1
  -2  -7   4 27.2967 4.26393  -2
   2   7   9 27.2967 4.26393   1
  -3  -7   3 92.9896 9.29644  -2
   3   7   9 92.9896 9.29644   1
  -4  -7   2 733.880 50.6558  -2
   4   7   9 733.880 50.6558   1
   5   7   9 36.4014 4.26217   1
   6   7   9 3.42245 2.27159   1
   7   7   9 266.665 9.10375   1
   8   7   1 87.2071 17.9812  -2
   8   7   9 87.2071 17.9812   1
   9   7   2 804.066 33.0661  -2
   9   7   9 804.066 33.0661   1
  10   7   3 826.101 29.4707  -2
  10   7   9 826.101 29.4707   1
  11   7   4 7.33626 9.67153  -2
  11   7   9 7.33626 9.67153   1
  12   7   5 377.217 17.5534  -2
  12   7   9 377.217 17.5534   1
  13   7   6 428.143 17.4514  -2
  13   7   9 428.143 17.4514   1
  14   7   7 499.898 19.4439  -2
  14   7   9 499.898 19.4439   1
  15   7   8 192.012 24.8433  -2
  15   7   9 192.012 24.8433   1
  16   7   9 226.541 18.2290  -2
  16   7   9 226.541 18.2290   1
   9  -8  14 125.817 25.7700  -2
  -9   8   9 125.817 25.7700   1
   8  -8  13 142.525 22.6277  -2
  -8   8   9 142.525 22.6277   1
   7  -8  12 464.508 22.2386  -2
  -7   8   9 464.508 22.2386   1
   6  -8  11 60.2506 11.9638  -2
  -6   8   9 60.2506 11.9638   1
   5  -8  10 144.816 15.2312  -2
  -5   8   9 144.816 15.2312   1
  -4   8   9 116.356 8.67545   1
  -3   8   9 85.0052 5.98734   1
  -2   8   9 -2.0677 3.07677   1
   1  -8   7 -26.819 13.6122  -2
  -1   8   9 -26.819 13.6122   1
   0  -8   6 433.981 18.3342  -2
   0   8   9 433.981 18.3342   1
  -1  -8   5 1880.98 58.4926  -2
   1   8   9 1880.98 58.4926   1
  -2  -8   4 1134.64 35.8126  -2
   2   8   9 1134.64 35.8126   1
  -3  -8   3 200.466 10.5025  -2
   3   8   9 200.466 10.5025   1
  -4  -8   2 1002.01 46.1526  -2
   4   8   9 1002.01 46.1526   1
  -5  -8   1 688.147 26.8969  -2
   5   8   9 688.147 26.8969   1
   6   8   0 192.428 13.9799  -2
   6   8   9 192.428 13.9799   1
   7   8   1 43.7387 9.96166  -2
   7   8   9 43.7387 9.96166   1
   8   8   2 437.421 18.7001  -2
   8   8   9 437.421 18.7001   1
   9   8   3 732.842 26.1998  -2
   9   8   9 732.842 26.1998   1
  10   8   4 578.050 32.9447  -2
  10   8   9 578.050 32.9447   1
  11   8   5 -5.0146 18.6726  -2
  11   8   9 -5.0146 18.6726   1
  12   8   6 12.2991 21.9815  -2
  12   8   9 12.2991 21.9815   1
  13   8   6 692.826 54.9945  -2
  13   8   9 692.826 54.9945   1
  14   8   7 104.050 31.5362  -2
  14   8   9 104.050 31.5362   1
  15   8   8 147.106 24.9038  -2
  15   8   9 147.106 24.9038   1
  16   8   9 51.5081 26.6448  -2
  16   8   9 51.5081 26.6448   1
   9  -9  14 145.211 25.9811  -2
  -9   9   9 145.211 25.9811   1
   8  -9  13 753.275 32.1591  -2
  -8   9   9 753.275 32.1591   1
   7  -9  12 38.2311 11.4198  -2
  -7   9   9 38.2311 11.4198   1
   6  -9  11 152.274 13.7380  -2
  -6   9   9 152.274 13.7380   1
   5  -9  10 107.963 17.2433  -2
  -5   9   9 107.963 17.2433   1
   4  -9   9 246.631 15.7365  -2
  -4   9   9 246.631 15.7365   1
   3  -9   8 28.2403 7.34043  -2
  -3   9   9 28.2403 7.34043   1
   2  -9   7 622.726 20.9788  -2
  -2   9   9 622.726 20.9788   1
   1  -9   6 243.397 10.6409  -2
  -1   9   9 243.397 10.6409   1
   0  -9   5 270.021 10.9644  -2
   0   9   9 270.021 10.9644   1
  -1  -9   4 1469.12 53.0406  -2
   1   9   9 1469.12 53.0406   1
  -2  -9   3 526.056 39.0654  -2
   2   9   9 526.056 39.0654   1
   3   9   9 461.340 16.6987   1
   4   9   9 30.8080 4.43274   1
   5   9   9 78.7435 7.25830   1
   6   9   0 54.8923 23.4685  -2
   6   9   9 54.8923 23.4685   1
   7   9   1 308.007 21.8030  -2
   7   9   9 308.007 21.8030   1
   8   9   2 381.619 19.5499  -2
   8   9   9 381.619 19.5499   1
   9   9   3 65.1043 6.86750  -2
   9   9   9 65.1043 6.86750   1
  10   9   4 132.373 9.81111  -2
  10   9   9 132.373 9.81111   1
  11   9   5 124.197 8.78961  -2
  11   9   9 124.197 8.78961   1
  12   9   6 61.7819 10.9552  -2
  12   9   9 61.7819 10.9552   1
  13   9   7 233.741 16.0775  -2
  13   9   9 233.741 16.0775   1
  14   9   8 429.973 19.9107  -2
  14   9   9 429.973 19.9107   1
  15   9   9 187.375 19.6348  -2
  15   9   9 187.375 19.6348   1
   9 -10  13 169.116 31.0043  -2
  -9  10   9 169.116 31.0043   1
   8 -10  12 279.426 20.0691  -2
  -8  10   9 279.426 20.0691   1
   7 -10  11 689.805 46.4737  -2
  -7  10   9 689.805 46.4737   1
   6 -10  10 156.046 20.1030  -2
  -6  10   9 156.046 20.1030   1
  -5  10   9 5.96808 5.03843   1
   4 -10   9 547.677 39.9516  -2
  -4  10   9 547.677 39.9516   1
   3 -10   8 264.746 12.0349  -2
  -3  10   9 264.746 12.0349   1
   2 -10   7 435.170 15.9762  -2
  -2  10   9 435.170 15.9762   1
   1 -10   6 443.278 15.7528  -2
  -1  10   9 443.278 15.7528   1
   0 -10   5 4.85220 5.18408  -2
   0  10   9 4.85220 5.18408   1
  -1 -10   4 388.554 13.3223  -2
   1  10   9 388.554 13.3223   1
  -2 -10   3 179.878 7.71603  -2
   2  10   9 179.878 7.71603   1
  -3 -10   2 88.5663 6.02725  -2
   3  10   9 88.5663 6.02725   1
  -4 -10   1 295.905 13.6005  -2
   4  10   9 295.905 13.6005   1
   5  10   0 119.018 16.7679  -2
   5  10   9 119.018 16.7679   1
   6  10   1 818.666 32.6581  -2
   6  10   9 818.666 32.6581   1
   7  10   2 242.313 31.7329  -2
   7  10   9 242.313 31.7329   1
   8  10   3 12.7213 27.3806  -2
   8  10   9 12.7213 27.3806   1
   9  10   4 46.2174 29.2797  -2
   9  10   9 46.2174 29.2797   1
  10  10   9 24.9500 5.05697   1
  11  10   5 233.706 24.2835  -2
  11  10   9 233.706 24.2835   1
  12  10   6 100.510 14.1152  -2
  12  10   9 100.510 14.1152   1
  13  10   7 598.265 31.9829  -2
  13  10   9 598.265 31.9829   1
  14  10   8 423.034 23.8294  -2
  14  10   9 423.034 23.8294   1
  15  10   9 60.3257 26.6103  -2
  15  10   9 60.3257 26.6103   1
   8 -11  12 53.0539 19.7659  -2
  -8  11   9 53.0539 19.7659   1
   7 -11  11 90.3860 11.9672  -2
  -7  11   9 90.3860 11.9672   1
   6 -11  10 654.162 35.8527  -2
  -6  11   9 654.162 35.8527   1
   5 -11   9 142.476 16.0371  -2
  -5  11   9 142.476 16.0371   1
   4 -11   8 217.603 13.4951  -2
  -4  11   9 217.603 13.4951   1
   3 -11   7 121.783 14.1394  -2
  -3  11   9 121.783 14.1394   1
   2 -11   6 121.783 9.52286  -2
  -2  11   9 121.783 9.52286   1
   1 -11   5 23.6058 13.4199  -2
  -1  11   9 23.6058 13.4199   1
   0  11   9 18.6697 3.15849   1
   1  11   9 262.409 10.2888   1
  -2 -11   3 155.010 16.9732  -2
   2  11   9 155.010 16.9732   1
  -3 -11   2 14.1084 9.79037  -2
   3  11   9 14.1084 9.79037   1
  -4 -11   1 60.9723 12.3066  -2
   4  11   9 60.9723 12.3066   1
   5  11   0 170.472 11.8579  -2
   5  11   9 170.472 11.8579   1
   6  11   1 677.365 33.6082  -2
   6  11   9 677.365 33.6082   1
   7  11   2 17.1758 11.7372  -2
   7  11   9 17.1758 11.7372   1
   8  11   3 30.9964 11.2960  -2
   8  11   9 30.9964 11.2960   1
   9  11   4 19.5325 20.6337  -2
   9  11   9 19.5325 20.6337   1
  10  11   5 269.625 22.6451  -2
  10  11   9 269.625 22.6451   1
  11  11   6 490.789 33.9092  -2
  11  11   9 490.789 33.9092   1
  12  11   7 311.118 15.3942  -2
  12  11   9 311.118 15.3942   1
  13  11   8 108.468 15.5110  -2
  13  11   9 108.468 15.5110   1
  14  11   9 122.942 32.5877  -2
  14  11   9 122.942 32.5877   1
   7 -12  11 64.8881 29.2373  -2
  -7  12   9 64.8881 29.2373   1
   5 -12   9 107.618 13.5035  -2
  -5  12   9 107.618 13.5035   1
   4 -12   8 24.9334 13.5093  -2
  -4  12   9 24.9334 13.5093   1
   3 -12   7 47.0348 8.59448  -2
  -3  12   9 47.0348 8.59448   1
   2 -12   6 132.363 8.53120  -2
  -2  12   9 132.363 8.53120   1
   1 -12   5 630.160 24.6595  -2
  -1  12   9 630.160 24.6595   1
   0 -12   4 225.714 9.17258  -2
   0  12   9 225.714 9.17258   1
  -1 -12   3 450.416 15.3556  -2
   1  12   9 450.416 15.3556   1
  -2 -12   2 927.152 30.1825  -2
   2  12   9 927.152 30.1825   1
  -3 -12   1 564.192 19.3686  -2
   3  12   9 564.192 19.3686   1
   4  12   0 454.003 24.3373  -2
   4  12   9 454.003 24.3373   1
   5  12   1 217.267 26.8272  -2
   5  12   9 217.267 26.8272   1
   6  12   9 150.201 19.8634   1
   7  12   3 498.415 42.7878  -2
   7  12   9 498.415 42.7878   1
   8  12   9 205.657 14.2472   1
   9  12   4 215.420 31.8375  -2
   9  12   9 215.420 31.8375   1
  10  12   5 109.835 20.0151  -2
  10  12   9 109.835 20.0151   1
  11  12   6 318.305 22.8300  -2
  11  12   9 318.305 22.8300   1
  12  12   7 278.643 27.7558  -2
  12  12   9 278.643 27.7558   1
  13  12   8 133.337 20.8797  -2
  13  12   9 133.337 20.8797   1
   7 -13  10 117.097 20.9236  -2
  -7  13   9 117.097 20.9236   1
   6 -13   9 181.202 21.7160  -2
  -6  13   9 181.202 21.7160   1
   5 -13   8 438.595 21.9304  -2
  -5  13   9 438.595 21.9304   1
   4 -13   7 51.1739 16.3282  -2
  -4  13   9 51.1739 16.3282   1
  -3  13   9 17.1753 4.05639   1
  -2  13   9 603.123 21.0357   1
  -1  13   9 13.4003 3.08344   1
   0 -13   4 219.886 12.5405  -2
   0  13   9 219.886 12.5405   1
  -1 -13   3 52.9823 5.68387  -2
   1  13   9 52.9823 5.68387   1
  -2 -13   2 1559.18 56.8228  -2
   2  13   9 1559.18 56.8228   1
  -3 -13   1 766.402 25.5571  -2
   3  13   9 766.402 25.5571   1
   4  13   0 131.232 8.69439  -2
   4  13   9 131.232 8.69439   1
   5  13   1 459.918 21.0491  -2
   5  13   9 459.918 21.0491   1
   6  13   2 25.4147 11.3977  -2
   6  13   9 25.4147 11.3977   1
   8  13   4 109.138 27.0258  -2
   8  13   9 109.138 27.0258   1
   9  13   5 78.7237 20.9777  -2
   9  13   9 78.7237 20.9777   1
  10  13   6 54.6805 19.7397  -2
  10  13   9 54.6805 19.7397   1
  11  13   7 75.7191 26.2567  -2
  11  13   9 75.7191 26.2567   1
  12  13   8 55.1075 27.9828  -2
  12  13   9 55.1075 27.9828   1
   6 -14   9 430.000 41.5346  -2
  -6  14   9 430.000 41.5346   1
   5 -14   8 536.682 24.3642  -2
  -5  14   9 536.682 24.3642   1
   4 -14   7 122.758 9.94855  -2
  -4  14   9 122.758 9.94855   1
   3 -14   6 44.2053 9.99443  -2
  -3  14   9 44.2053 9.99443   1
   2 -14   5 47.9326 6.94195  -2
  -2  14   9 47.9326 6.94195   1
   1 -14   4 274.339 11.4556  -2
  -1  14   9 274.339 11.4556   1
   0 -14   3 46.7387 5.38969  -2
   0  14   9 46.7387 5.38969   1
  -1 -14   2 113.439 9.73185  -2
   1  14   9 113.439 9.73185   1
  -2 -14   1 80.2030 16.1700  -2
   2  14   9 80.2030 16.1700   1
   3  14   9 8.41441 3.85106   1
   4  14   9 44.6740 6.86944   1
   5  14   9 44.6330 6.65964   1
   6  14   9 110.759 13.8021   1
   7  14   3 30.2851 17.3696  -2
   7  14   9 30.2851 17.3696   1
   8  14   4 -6.8122 28.4866  -2
   8  14   9 -6.8122 28.4866   1
   9  14   5 86.0484 18.4964  -2
   9  14   9 86.0484 18.4964   1
  10  14   6 53.8247 17.2623  -2
  10  14   9 53.8247 17.2623   1
  11  14   7 69.0685 17.8739  -2
  11  14   9 69.0685 17.8739   1
   4 -15   7 129.142 27.2949  -2
  -4  15   9 129.142 27.2949   1
   3 -15   6 467.551 26.1531  -2
  -3  15   9 467.551 26.1531   1
   2 -15   5 631.546 31.7570  -2
  -2  15   9 631.546 31.7570   1
   1 -15   4 -13.421 9.48429  -2
  -1  15   9 -13.421 9.48429   1
   0 -15   3 218.979 9.55287  -2
   0  15   9 218.979 9.55287   1
  -1 -15   2 173.179 10.2023  -2
   1  15   9 173.179 10.2023   1
  -2 -15   1 1.56313 7.18207  -2
   2  15   9 1.56313 7.18207   1
   3  15   0 59.7874 7.44778  -2
   3  15   9 59.7874 7.44778   1
   4  15   1 33.8370 9.32904  -2
   4  15   9 33.8370 9.32904   1
   5  15   2 138.755 10.7473  -2
   5  15   9 138.755 10.7473   1
   6  15   3 408.725 24.7110  -2
   6  15   9 408.725 24.7110   1
   7  15   4 544.891 32.3396  -2
   7  15   9 544.891 32.3396   1
   8  15   5 -24.598 28.0156  -2
   8  15   9 -24.598 28.0156   1
   9  15   6 266.858 27.9301  -2
   9  15   9 266.858 27.9301   1
  10  15   7 244.880 42.6784  -2
  10  15   9 244.880 42.6784   1
   3 -16   5 335.135 25.7684  -2
  -3  16   9 335.135 25.7684   1
   2 -16   4 9.47736 31.8930  -2
  -2  16   9 9.47736 31.8930   1
   1 -16   3 230.690 37.0730  -2
  -1  16   9 230.690 37.0730   1
   0 -16   2 41.1542 23.9525  -2
   0  16   9 41.1542 23.9525   1
   1  16   9 249.160 34.3872   1
   2  16   9 434.038 18.5014   1
   3  16   0 19.2706 13.2106  -2
   3  16   9 19.2706 13.2106   1
   4  16   1 147.087 11.2404  -2
   4  16   9 147.087 11.2404   1
   5  16   2 248.568 15.8191  -2
   5  16   9 248.568 15.8191   1
   6  16   3 294.453 17.8455  -2
   6  16   9 294.453 17.8455   1
   7  16   4 47.6439 26.3014  -2
   7  16   9 47.6439 26.3014   1
   8  16   5 60.1417 25.3871  -2
   8  16   9 60.1417 25.3871   1
  -1  17   9 188.174 23.5118   1
   0 -17   2 93.2451 19.2048  -2
   0  17   9 93.2451 19.2048   1
   3  17   1 463.337 38.4850  -2
   3  17   9 463.337 38.4850   1
   4  17   2 598.310 46.8012  -2
   4  17   9 598.310 46.8012   1
   5  17   3 290.015 35.7089  -2
   5  17   9 290.015 35.7089   1
   6  17   4 495.884 45.2027  -2
   6  17   9 495.884 45.2027   1
   3 -13  10 20.9194 7.35500   1
  -4  13  12 436.378 34.8137  -2
   4 -13  10 436.378 34.8137   1
  -5  13  11 407.776 28.1843  -2
   5 -13  10 407.776 28.1843   1
  -6  13  10 72.7950 21.0069  -2
   6 -13  10 72.7950 21.0069   1
  -7  13   9 33.2473 21.0063  -2
   7 -13  10 33.2473 21.0063   1
  -8  13   8 -2.6427 24.3821  -2
   8 -13  10 -2.6427 24.3821   1
   0  12  15 25.2950 13.8244  -2
   0 -12  10 25.2950 13.8244   1
  -1  12  14 101.793 12.6119  -2
   1 -12  10 101.793 12.6119   1
  -2  12  13 50.3111 12.9546  -2
   2 -12  10 50.3111 12.9546   1
  -3  12  12 60.7640 14.7843  -2
   3 -12  10 60.7640 14.7843   1
  -4  12  11 35.4034 13.8569  -2
   4 -12  10 35.4034 13.8569   1
  -5  12  10 60.3724 15.2586  -2
   5 -12  10 60.3724 15.2586   1
  -6  12   9 171.994 16.7039  -2
   6 -12  10 171.994 16.7039   1
  -7  12   8 18.2686 29.0219  -2
   7 -12  10 18.2686 29.0219   1
   8 -12  10 9.59288 7.96950   1
  -9  12   7 20.9405 51.1051  -2
   9 -12  10 20.9405 51.1051   1
 -10  12   6 127.381 29.1654  -2
  10 -12  10 127.381 29.1654   1
  11 -12  10 64.4014 13.3202   1
   2  11  16 257.592 37.9560  -2
  -2 -11  10 257.592 37.9560   1
   1  11  15 72.4282 31.3417  -2
  -1 -11  10 72.4282 31.3417   1
   0 -11  10 2.48484 8.12139   1
  -1  11  14 92.5954 17.6296  -2
   1 -11  10 92.5954 17.6296   1
  -2  11  13 71.3887 14.9958  -2
   2 -11  10 71.3887 14.9958   1
  -3  11  12 561.505 21.8660  -2
   3 -11  10 561.505 21.8660   1
  -4  11  11 31.3129 12.2012  -2
   4 -11  10 31.3129 12.2012   1
  -5  11  10 32.3691 11.1625  -2
   5 -11  10 32.3691 11.1625   1
  -6  11   9 532.391 18.3467  -2
   6 -11  10 532.391 18.3467   1
  -7  11   8 120.866 10.2933  -2
   7 -11  10 120.866 10.2933   1
  -8  11   7 35.6378 11.7380  -2
   8 -11  10 35.6378 11.7380   1
  -9  11   6 172.816 15.0063  -2
   9 -11  10 172.816 15.0063   1
 -10  11   5 25.5283 20.0531  -2
  10 -11  10 25.5283 20.0531   1
 -11  11   4 31.1030 21.3190  -2
  11 -11  10 31.1030 21.3190   1
 -12  11   3 204.328 29.7062  -2
  12 -11  10 204.328 29.7062   1
   3  10  17 -10.314 19.7806  -2
  -3 -10  10 -10.314 19.7806   1
   2  10  16 30.2329 13.5039  -2
  -2 -10  10 30.2329 13.5039   1
   1  10  15 39.2312 11.9320  -2
  -1 -10  10 39.2312 11.9320   1
   0  10  14 318.870 15.6836  -2
   0 -10  10 318.870 15.6836   1
  -1  10  13 117.178 12.2216  -2
   1 -10  10 117.178 12.2216   1
  -2  10  12 92.4145 12.4751  -2
   2 -10  10 92.4145 12.4751   1
  -3  10  11 398.923 17.0079  -2
   3 -10  10 398.923 17.0079   1
  -4  10  10 37.7087 13.6930  -2
   4 -10  10 37.7087 13.6930   1
  -5  10   9 0.74725 32.7391  -2
   5 -10  10 0.74725 32.7391   1
   6 -10  10 -3.8347 5.41871   1
  -7  10   8 29.1615 27.2144  -2
   7 -10  10 29.1615 27.2144   1
  -8  10   7 381.061 20.7218  -2
   8 -10  10 381.061 20.7218   1
  -9  10   6 28.4641 16.1237  -2
   9 -10  10 28.4641 16.1237   1
 -10  10   5 -26.000 16.8550  -2
  10 -10  10 -26.000 16.8550   1
 -11  10   4 32.3798 16.0987  -2
  11 -10  10 32.3798 16.0987   1
 -12  10   3 133.824 16.6119  -2
  12 -10  10 133.824 16.6119   1
 -13  10   2 195.046 16.7101  -2
  13 -10  10 195.046 16.7101   1
   4   9  17 -27.812 31.4205  -2
  -4  -9  10 -27.812 31.4205   1
  -3  -9  10 6.96661 7.16119   1
   2   9  16 253.635 22.8215  -2
  -2  -9  10 253.635 22.8215   1
   1   9  15 11.0600 17.1176  -2
  -1  -9  10 11.0600 17.1176   1
   0   9  14 658.593 22.0132  -2
   0  -9  10 658.593 22.0132   1
  -1   9  13 150.739 12.0067  -2
   1  -9  10 150.739 12.0067   1
  -2   9  12 225.732 12.2861  -2
   2  -9  10 225.732 12.2861   1
  -3   9  11 442.181 17.6185  -2
   3  -9  10 442.181 17.6185   1
  -4   9  10 812.973 26.0664  -2
   4  -9  10 812.973 26.0664   1
  -5   9   9 164.702 10.2759  -2
   5  -9  10 164.702 10.2759   1
  -6   9   8 313.794 15.0385  -2
   6  -9  10 313.794 15.0385   1
  -7   9   7 1063.70 42.9008  -2
   7  -9  10 1063.70 42.9008   1
  -8   9   6 127.572 11.6434  -2
   8  -9  10 127.572 11.6434   1
  -9   9   5 710.800 23.0963  -2
   9  -9  10 710.800 23.0963   1
 -10   9   4 183.554 15.3521  -2
  10  -9  10 183.554 15.3521   1
 -11   9   3 241.839 22.0707  -2
  11  -9  10 241.839 22.0707   1
  12  -9  10 39.3590 8.55869   1
 -13   9   2 -1.1443 38.5583  -2
  13  -9  10 -1.1443 38.5583   1
 -14   9   1 -96.710 47.0277  -2
  14  -9  10 -96.710 47.0277   1
   5   8  18 193.490 37.4304  -2
  -5  -8  10 193.490 37.4304   1
   4   8  17 139.496 16.9381  -2
  -4  -8  10 139.496 16.9381   1
   3   8  16 46.6883 14.4640  -2
  -3  -8  10 46.6883 14.4640   1
   2   8  15 -10.012 12.7572  -2
  -2  -8  10 -10.012 12.7572   1
   1   8  14 284.508 13.9919  -2
  -1  -8  10 284.508 13.9919   1
   0   8  13 136.703 15.6934  -2
   0  -8  10 136.703 15.6934   1
  -1   8  12 23.9219 13.0042  -2
   1  -8  10 23.9219 13.0042   1
  -2   8  11 408.191 34.9693  -2
   2  -8  10 408.191 34.9693   1
   3  -8  10 -3.4217 4.86009   1
  -4   8  10 266.031 28.4491  -2
   4  -8  10 266.031 28.4491   1
  -5   8   9 174.249 14.5422  -2
   5  -8  10 174.249 14.5422   1
  -6   8   8 59.6877 13.0460  -2
   6  -8  10 59.6877 13.0460   1
  -7   8   7 369.448 16.5406  -2
   7  -8  10 369.448 16.5406   1
  -8   8   6 527.882 17.8700  -2
   8  -8  10 527.882 17.8700   1
  -9   8   5 180.830 11.1020  -2
   9  -8  10 180.830 11.1020   1
 -10   8   4 275.488 12.1329  -2
  10  -8  10 275.488 12.1329   1
 -11   8   3 108.462 9.67849  -2
  11  -8  10 108.462 9.67849   1
 -12   8   2 262.729 14.5749  -2
  12  -8  10 262.729 14.5749   1
 -13   8   1 94.7545 17.5199  -2
  13  -8  10 94.7545 17.5199   1
 -14   8   0 11.0475 18.2639  -2
  14  -8  10 11.0475 18.2639   1
  15  -8   1 -62.951 42.3583  -2
  15  -8  10 -62.951 42.3583   1
  -6  -7  10 -3.2855 10.3511   1
   5   7  18 15.1551 31.2494  -2
  -5  -7  10 15.1551 31.2494   1
   4   7  17 49.2867 28.6007  -2
  -4  -7  10 49.2867 28.6007   1
   3   7  16 4.03847 14.5793  -2
  -3  -7  10 4.03847 14.5793   1
   2   7  15 318.074 16.3347  -2
  -2  -7  10 318.074 16.3347   1
   1   7  14 103.997 12.1515  -2
  -1  -7  10 103.997 12.1515   1
   0   7  13 525.451 17.3092  -2
   0  -7  10 525.451 17.3092   1
  -1   7  12 153.902 10.3975  -2
   1  -7  10 153.902 10.3975   1
  -2   7  11 24.6536 7.99526  -2
   2  -7  10 24.6536 7.99526   1
  -3   7  10 106.439 9.52505  -2
   3  -7  10 106.439 9.52505   1
  -4   7   9 391.770 17.5307  -2
   4  -7  10 391.770 17.5307   1
  -5   7   8 389.797 21.0979  -2
   5  -7  10 389.797 21.0979   1
  -6   7   7 42.8741 18.4278  -2
   6  -7  10 42.8741 18.4278   1
  -7   7   6 97.2039 13.4834  -2
   7  -7  10 97.2039 13.4834   1
  -8   7   5 -3.5253 14.2614  -2
   8  -7  10 -3.5253 14.2614   1
   9  -7  10 332.084 12.4715   1
  10  -7  10 22.1218 5.37923   1
 -11   7   3 199.663 16.3019  -2
  11  -7  10 199.663 16.3019   1
 -12   7   2 201.966 15.7851  -2
  12  -7  10 201.966 15.7851   1
 -13   7   1 235.138 16.5145  -2
  13  -7  10 235.138 16.5145   1
 -14   7   0 307.523 22.4361  -2
  14  -7  10 307.523 22.4361   1
  15  -7   1 40.2697 22.8184  -2
  15  -7  10 40.2697 22.8184   1
   7   6  19 235.721 25.9273  -2
  -7  -6  10 235.721 25.9273   1
   6   6  18 83.4371 25.1952  -2
  -6  -6  10 83.4371 25.1952   1
   5   6  17 14.1098 24.8641  -2
  -5  -6  10 14.1098 24.8641   1
   4   6  16 39.9266 19.7670  -2
  -4  -6  10 39.9266 19.7670   1
   3   6  15 115.571 13.9006  -2
  -3  -6  10 115.571 13.9006   1
   2   6  14 341.536 20.1247  -2
  -2  -6  10 341.536 20.1247   1
   1   6  13 192.206 16.8433  -2
  -1  -6  10 192.206 16.8433   1
   0  -6  10 80.2670 5.85023   1
   1  -6  10 -1.9265 4.14448   1
  -2   6  11 318.026 15.1892  -2
   2  -6  10 318.026 15.1892   1
  -3   6  10 436.954 16.7235  -2
   3  -6  10 436.954 16.7235   1
  -4   6   9 30.3528 9.41409  -2
   4  -6  10 30.3528 9.41409   1
  -5   6   8 707.127 25.6362  -2
   5  -6  10 707.127 25.6362   1
  -6   6   7 928.570 28.1432  -2
   6  -6  10 928.570 28.1432   1
  -7   6   6 68.1878 9.61628  -2
   7  -6  10 68.1878 9.61628   1
  -8   6   5 308.175 12.4058  -2
   8  -6  10 308.175 12.4058   1
  -9   6   4 9.91012 7.27953  -2
   9  -6  10 9.91012 7.27953   1
 -10   6   3 261.983 11.9367  -2
  10  -6  10 261.983 11.9367   1
 -11   6   2 557.971 18.8634  -2
  11  -6  10 557.971 18.8634   1
 -12   6   1 407.359 16.6784  -2
  12  -6  10 407.359 16.6784   1
 -13   6   0 -6.0561 14.5778  -2
  13  -6  10 -6.0561 14.5778   1
  14  -6   1 231.059 23.2493  -2
  14  -6  10 231.059 23.2493   1
  15  -6   2 258.676 45.2576  -2
  15  -6  10 258.676 45.2576   1
  16  -6  10 16.1304 10.9241   1
   6   5  18 -37.279 37.9451  -2
  -6  -5  10 -37.279 37.9451   1
   5   5  17 173.814 26.7698  -2
  -5  -5  10 173.814 26.7698   1
   4   5  16 72.2049 15.6188  -2
  -4  -5  10 72.2049 15.6188   1
   3   5  15 317.520 17.5997  -2
  -3  -5  10 317.520 17.5997   1
   2   5  14 187.402 11.2694  -2
  -2  -5  10 187.402 11.2694   1
   1   5  13 514.388 20.0224  -2
  -1  -5  10 514.388 20.0224   1
   0   5  12 91.4336 7.21266  -2
   0  -5  10 91.4336 7.21266   1
  -1   5  11 248.089 10.2424  -2
   1  -5  10 248.089 10.2424   1
  -2   5  10 424.661 16.5658  -2
   2  -5  10 424.661 16.5658   1
  -3   5   9 155.601 10.1347  -2
   3  -5  10 155.601 10.1347   1
  -4   5   8 24.9319 11.2718  -2
   4  -5  10 24.9319 11.2718   1
  -5   5   7 62.1777 16.4446  -2
   5  -5  10 62.1777 16.4446   1
  -6   5   6 743.678 49.5253  -2
   6  -5  10 743.678 49.5253   1
   7  -5  10 628.347 18.3516   1
  -8   5   5 279.997 16.4530  -2
   8  -5  10 279.997 16.4530   1
  -9   5   4 1425.79 54.4109  -2
   9  -5  10 1425.79 54.4109   1
 -10   5   3 602.124 21.1687  -2
  10  -5  10 602.124 21.1687   1
 -11   5   2 64.8249 9.95935  -2
  11  -5  10 64.8249 9.95935   1
 -12   5   1 1.45041 10.1062  -2
  12  -5  10 1.45041 10.1062   1
 -13   5   0 172.129 12.5741  -2
  13  -5  10 172.129 12.5741   1
  14  -5   1 77.1898 10.5200  -2
  14  -5  10 77.1898 10.5200   1
  15  -5   2 249.866 22.3373  -2
  15  -5  10 249.866 22.3373   1
  16  -5   3 36.8726 19.2806  -2
  16  -5  10 36.8726 19.2806   1
  17  -5   4 161.142 51.5927  -2
  17  -5  10 161.142 51.5927   1
   8   4  19 25.1787 35.4785  -2
  -8  -4  10 25.1787 35.4785   1
   7   4  18 198.135 19.5602  -2
  -7  -4  10 198.135 19.5602   1
   6   4  17 129.247 16.0413  -2
  -6  -4  10 129.247 16.0413   1
   5   4  16 16.6834 18.2443  -2
  -5  -4  10 16.6834 18.2443   1
   4   4  15 122.819 19.0916  -2
  -4  -4  10 122.819 19.0916   1
   3   4  14 134.647 31.3904  -2
  -3  -4  10 134.647 31.3904   1
  -2  -4  10 11.9230 4.93939   1
   1   4  13 326.302 18.6576  -2
  -1  -4  10 326.302 18.6576   1
   0   4  12 338.424 14.8152  -2
   0  -4  10 338.424 14.8152   1
  -1   4  11 243.493 11.7889  -2
   1  -4  10 243.493 11.7889   1
  -2   4  10 735.430 25.2562  -2
   2  -4  10 735.430 25.2562   1
  -3   4   9 297.943 10.8074  -2
   3  -4  10 297.943 10.8074   1
  -4   4   8 36.1133 6.81413  -2
   4  -4  10 36.1133 6.81413   1
  -5   4   7 426.265 14.3140  -2
   5  -4  10 426.265 14.3140   1
  -6   4   6 582.889 18.4691  -2
   6  -4  10 582.889 18.4691   1
  -7   4   5 10.9960 7.26282  -2
   7  -4  10 10.9960 7.26282   1
  -8   4   4 1413.20 41.1572  -2
   8  -4  10 1413.20 41.1572   1
  -9   4   3 563.278 19.5677  -2
   9  -4  10 563.278 19.5677   1
 -10   4   2 146.122 13.7857  -2
  10  -4  10 146.122 13.7857   1
 -11   4   1 17.0104 15.7439  -2
  11  -4  10 17.0104 15.7439   1
 -12   4   0 124.956 33.9026  -2
  12  -4  10 124.956 33.9026   1
  13  -4  10 10.1016 6.27328   1
  14  -4   1 88.6054 29.4659  -2
  14  -4  10 88.6054 29.4659   1
  15  -4   2 -17.782 21.2167  -2
  15  -4  10 -17.782 21.2167   1
  17  -4   4 207.526 53.2373  -2
  17  -4  10 207.526 53.2373   1
   8   3  19 29.6441 20.3235  -2
  -8  -3  10 29.6441 20.3235   1
   7   3  18 137.180 18.5654  -2
  -7  -3  10 137.180 18.5654   1
   6   3  17 251.569 16.7110  -2
  -6  -3  10 251.569 16.7110   1
   5   3  16 246.755 13.6311  -2
  -5  -3  10 246.755 13.6311   1
   4   3  15 63.7146 11.8002  -2
  -4  -3  10 63.7146 11.8002   1
   3   3  14 102.042 12.3359  -2
  -3  -3  10 102.042 12.3359   1
   2   3  13 31.0960 8.52057  -2
  -2  -3  10 31.0960 8.52057   1
   1   3  12 168.112 11.4385  -2
  -1  -3  10 168.112 11.4385   1
   0   3  11 793.004 31.8274  -2
   0  -3  10 793.004 31.8274   1
  -1   3  10 38.0270 6.15804  -2
   1  -3  10 38.0270 6.15804   1
  -2   3   9 198.694 12.8294  -2
   2  -3  10 198.694 12.8294   1
  -3   3   8 78.1250 19.5355  -2
   3  -3  10 78.1250 19.5355   1
   4  -3  10 20.4575 3.59371   1
  -5   3   7 157.322 16.7550  -2
   5  -3  10 157.322 16.7550   1
  -6   3   6 32.4386 8.69230  -2
   6  -3  10 32.4386 8.69230   1
  -7   3   5 139.045 9.55889  -2
   7  -3  10 139.045 9.55889   1
  -8   3   4 5.46107 9.11270  -2
   8  -3  10 5.46107 9.11270   1
  -9   3   3 47.6119 9.42430  -2
   9  -3  10 47.6119 9.42430   1
 -10   3   2 32.1222 7.83524  -2
  10  -3  10 32.1222 7.83524   1
 -11   3   1 39.9886 7.86830  -2
  11  -3  10 39.9886 7.86830   1
 -12   3   0 197.913 12.3233  -2
  12  -3  10 197.913 12.3233   1
  13  -3   1 823.008 26.2595  -2
  13  -3  10 823.008 26.2595   1
  14  -3   2 27.9779 10.9940  -2
  14  -3  10 27.9779 10.9940   1
  15  -3   3 162.680 16.9780  -2
  15  -3  10 162.680 16.9780   1
  16  -3   4 80.4050 39.1423  -2
  16  -3  10 80.4050 39.1423   1
  17  -3   5 151.052 31.9700  -2
  17  -3  10 151.052 31.9700   1
   8   2  18 121.322 22.7495  -2
  -8  -2  10 121.322 22.7495   1
   7   2  17 125.485 16.1705  -2
  -7  -2  10 125.485 16.1705   1
   6   2  16 100.965 26.2313  -2
  -6  -2  10 100.965 26.2313   1
  -5  -2  10 18.3720 5.63752   1
  -4  -2  10 198.523 10.3544   1
   3   2  14 202.189 16.2277  -2
  -3  -2  10 202.189 16.2277   1
   2   2  13 33.9634 15.5088  -2
  -2  -2  10 33.9634 15.5088   1
   1   2  12 365.919 18.0442  -2
  -1  -2  10 365.919 18.0442   1
   0   2  11 328.636 13.9478  -2
   0  -2  10 328.636 13.9478   1
  -1   2  10 9.15578 6.32786  -2
   1  -2  10 9.15578 6.32786   1
  -2   2   9 17.6064 4.21978  -2
   2  -2  10 17.6064 4.21978   1
  -3   2   8 259.732 10.2493  -2
   3  -2  10 259.732 10.2493   1
  -4   2   7 484.050 19.9086  -2
   4  -2  10 484.050 19.9086   1
  -5   2   6 3862.44 118.722  -2
   5  -2  10 3862.44 118.722   1
  -6   2   5 -0.0227 7.12010  -2
   6  -2  10 -0.0227 7.12010   1
  -7   2   4 500.240 18.6758  -2
   7  -2  10 500.240 18.6758   1
  -8   2   3 857.316 41.4459  -2
   8  -2  10 857.316 41.4459   1
  -9   2   2 221.481 19.6416  -2
   9  -2  10 221.481 19.6416   1
  10  -2  10 185.493 9.14121   1
  11  -2  10 43.7738 6.16610   1
 -12   2   0 2057.14 91.2383  -2
  12  -2  10 2057.14 91.2383   1
  13  -2   1 120.165 14.9345  -2
  13  -2  10 120.165 14.9345   1
  14  -2   2 748.370 29.4247  -2
  14  -2  10 748.370 29.4247   1
  15  -2   3 41.7136 14.8285  -2
  15  -2  10 41.7136 14.8285   1
  16  -2   4 121.108 36.5863  -2
  16  -2  10 121.108 36.5863   1
  17  -2   5 1016.53 81.3899  -2
  17  -2  10 1016.53 81.3899   1
   9   1  19 75.7767 16.3996  -2
  -9  -1  10 75.7767 16.3996   1
   8   1  18 104.554 14.6383  -2
  -8  -1  10 104.554 14.6383   1
   7   1  17 400.644 18.4752  -2
  -7  -1  10 400.644 18.4752   1
   6   1  16 141.994 14.1555  -2
  -6  -1  10 141.994 14.1555   1
   5   1  15 117.804 9.09879  -2
  -5  -1  10 117.804 9.09879   1
   4   1  14 114.646 9.28204  -2
  -4  -1  10 114.646 9.28204   1
   3   1  13 35.2105 14.2056  -2
  -3  -1  10 35.2105 14.2056   1
   2   1  12 166.458 15.0211  -2
  -2  -1  10 166.458 15.0211   1
   1   1  11 183.267 10.4358  -2
  -1  -1  10 183.267 10.4358   1
   0   1  10 340.341 18.9692  -2
   0  -1  10 340.341 18.9692   1
   1  -1  10 220.650 9.00035   1
   2  -1  10 29.0413 2.61437   1
  -3   1   8 159.418 12.0684  -2
   3  -1  10 159.418 12.0684   1
  -4   1   7 1184.31 37.9562  -2
   4  -1  10 1184.31 37.9562   1
  -5   1   6 919.217 27.0922  -2
   5  -1  10 919.217 27.0922   1
  -6   1   5 200.295 9.29113  -2
   6  -1  10 200.295 9.29113   1
  -7   1   4 330.310 13.2433  -2
   7  -1  10 330.310 13.2433   1
  -8   1   3 911.462 27.1089  -2
   8  -1  10 911.462 27.1089   1
  -9   1   2 3112.31 79.5492  -2
   9  -1  10 3112.31 79.5492   1
 -10   1   1 89.5789 8.89295  -2
  10  -1  10 89.5789 8.89295   1
 -11   1   0 51.1169 8.12333  -2
  11  -1  10 51.1169 8.12333   1
  12  -1   1 1851.08 53.4828  -2
  12  -1  10 1851.08 53.4828   1
  13  -1   2 179.807 14.8672  -2
  13  -1  10 179.807 14.8672   1
  14  -1   3 203.912 18.8990  -2
  14  -1  10 203.912 18.8990   1
  15  -1   4 82.4373 19.2443  -2
  15  -1  10 82.4373 19.2443   1
  16  -1   5 570.524 60.5155  -2
  16  -1  10 570.524 60.5155   1
  17  -1  10 23.0878 11.8162   1
  18  -1  10 269.693 42.5429   1
   9   0  18 39.5358 31.3728  -2
  -9   0  10 39.5358 31.3728   1
   8   0  17 342.940 34.0600  -2
  -8   0  10 342.940 34.0600   1
   7   0  17 4.77406 43.4647  -2
  -7   0  10 4.77406 43.4647   1
   6   0  16 118.609 15.0296  -2
  -6   0  10 118.609 15.0296   1
   5   0  15 15.3935 9.97247  -2
  -5   0  10 15.3935 9.97247   1
   4   0  14 184.399 12.3577  -2
  -4   0  10 184.399 12.3577   1
   3   0  13 458.876 16.5787  -2
  -3   0  10 458.876 16.5787   1
   2   0  12 187.977 15.8078  -2
  -2   0  10 187.977 15.8078   1
   1   0  11 241.679 10.7998  -2
  -1   0  10 241.679 10.7998   1
   0   0  10 848.903 28.1924  -2
   0   0  10 848.903 28.1924   1
  -1   0   9 825.317 24.5523  -2
   1   0  10 825.317 24.5523   1
  -2   0   8 31.7055 4.78552  -2
   2   0  10 31.7055 4.78552   1
  -3   0   7 381.474 11.4572  -2
   3   0  10 381.474 11.4572   1
  -4   0   6 287.631 9.67344  -2
   4   0  10 287.631 9.67344   1
  -5   0   5 384.280 14.4349  -2
   5   0  10 384.280 14.4349   1
  -6   0   4 199.063 15.3392  -2
   6   0  10 199.063 15.3392   1
   7   0  10 144.644 6.91466   1
   8   0  10 14.0572 4.00660   1
   9   0  10 415.415 13.3024   1
 -10   0   1 732.461 37.9842  -2
  10   0  10 732.461 37.9842   1
  11   0   0 6.47636 13.3291  -2
  11   0  10 6.47636 13.3291   1
  12   0   1 11.8274 10.7502  -2
  12   0  10 11.8274 10.7502   1
  13   0   2 296.604 16.4680  -2
  13   0  10 296.604 16.4680   1
  14   0   3 46.7547 12.0807  -2
  14   0  10 46.7547 12.0807   1
  15   0   4 7.60771 9.98308  -2
  15   0  10 7.60771 9.98308   1
  16   0   5 80.9947 17.6509  -2
  16   0  10 80.9947 17.6509   1
  17   0   6 17.2944 25.9539  -2
  17   0  10 17.2944 25.9539   1
   9  -1  18 318.401 16.0841  -2
  -9   1  10 318.401 16.0841   1
   8  -1  17 148.177 14.5474  -2
  -8   1  10 148.177 14.5474   1
   7  -1  16 306.266 19.3244  -2
  -7   1  10 306.266 19.3244   1
   6  -1  15 232.470 12.0735  -2
  -6   1  10 232.470 12.0735   1
   5  -1  14 186.806 10.3858  -2
  -5   1  10 186.806 10.3858   1
   4  -1  13 434.261 16.0768  -2
  -4   1  10 434.261 16.0768   1
   3  -1  12 151.819 24.2601  -2
  -3   1  10 151.819 24.2601   1
  -2   1  10 70.9860 6.48951   1
  -1   1  10 0.06089 2.71247   1
   0  -1  10 365.961 30.3034  -2
   0   1  10 365.961 30.3034   1
  -1  -1   9 52.2522 5.60955  -2
   1   1  10 52.2522 5.60955   1
  -2  -1   8 60.5975 5.97597  -2
   2   1  10 60.5975 5.97597   1
  -3  -1   7 1107.10 32.1551  -2
   3   1  10 1107.10 32.1551   1
  -4  -1   6 127.419 5.83743  -2
   4   1  10 127.419 5.83743   1
  -5  -1   5 1741.47 44.8070  -2
   5   1  10 1741.47 44.8070   1
  -6  -1   4 104.018 5.65771  -2
   6   1  10 104.018 5.65771   1
  -7  -1   3 43.4546 5.14681  -2
   7   1  10 43.4546 5.14681   1
  -8  -1   2 457.165 15.4101  -2
   8   1  10 457.165 15.4101   1
  -9  -1   1 68.2371 8.04546  -2
   9   1  10 68.2371 8.04546   1
  10   1   0 16.7474 9.27001  -2
  10   1  10 16.7474 9.27001   1
  11   1   1 28.6686 12.7558  -2
  11   1  10 28.6686 12.7558   1
  12   1   2 152.225 18.1153  -2
  12   1  10 152.225 18.1153   1
  13   1   3 137.380 25.7763  -2
  13   1  10 137.380 25.7763   1
  14   1  10 129.684 9.19958   1
  15   1   4 267.112 35.5518  -2
  15   1  10 267.112 35.5518   1
  16   1   5 313.026 34.8574  -2
  16   1  10 313.026 34.8574   1
  17   1   6 67.9890 34.6197  -2
  17   1  10 67.9890 34.6197   1
   9  -2  18 28.8844 24.7187  -2
  -9   2  10 28.8844 24.7187   1
   8  -2  17 152.768 23.7867  -2
  -8   2  10 152.768 23.7867   1
   7  -2  16 98.5448 15.4646  -2
  -7   2  10 98.5448 15.4646   1
   6  -2  15 73.6559 9.92823  -2
  -6   2  10 73.6559 9.92823   1
   5  -2  14 502.609 16.0494  -2
  -5   2  10 502.609 16.0494   1
   4  -2  13 672.899 22.9728  -2
  -4   2  10 672.899 22.9728   1
   3  -2  12 72.1641 5.12370  -2
  -3   2  10 72.1641 5.12370   1
   2  -2  11 18.7020 4.18147  -2
  -2   2  10 18.7020 4.18147   1
   1  -2  10 25.0644 3.68645  -2
  -1   2  10 25.0644 3.68645   1
   0  -2   9 185.055 10.4288  -2
   0   2  10 185.055 10.4288   1
  -1  -2   8 139.761 9.37638  -2
   1   2  10 139.761 9.37638   1
  -2  -2   7 832.559 24.6217  -2
   2   2  10 832.559 24.6217   1
  -3  -2   6 67.8364 7.61974  -2
   3   2  10 67.8364 7.61974   1
  -4  -2   5 274.082 18.2651  -2
   4   2  10 274.082 18.2651   1
   5   2  10 19.3282 2.92698   1
   6   2  10 3.84350 3.39247   1
   7   2  10 159.002 8.01263   1
  -8  -2   2 932.465 36.4323  -2
   8   2  10 932.465 36.4323   1
  -9  -2   1 187.096 11.1378  -2
   9   2  10 187.096 11.1378   1
  10   2   0 75.9550 9.53780  -2
  10   2  10 75.9550 9.53780   1
  11   2   1 696.868 23.1048  -2
  11   2  10 696.868 23.1048   1
  12   2   2 504.658 23.1314  -2
  12   2  10 504.658 23.1314   1
  13   2   3 160.511 11.9386  -2
  13   2  10 160.511 11.9386   1
  14   2   4 588.508 23.7971  -2
  14   2  10 588.508 23.7971   1
  15   2   5 426.686 21.2874  -2
  15   2  10 426.686 21.2874   1
  16   2   6 9.45985 24.8310  -2
  16   2  10 9.45985 24.8310   1
  17   2   7 363.029 37.5351  -2
  17   2  10 363.029 37.5351   1
  18   2   8 88.4188 50.7497  -2
  18   2  10 88.4188 50.7497   1
   9  -3  17 99.8264 15.7265  -2
  -9   3  10 99.8264 15.7265   1
   8  -3  16 17.3588 13.1255  -2
  -8   3  10 17.3588 13.1255   1
   7  -3  15 169.227 14.9462  -2
  -7   3  10 169.227 14.9462   1
   6  -3  14 256.097 15.1414  -2
  -6   3  10 256.097 15.1414   1
   5  -3  13 58.8950 14.7719  -2
  -5   3  10 58.8950 14.7719   1
  -4   3  10 433.873 17.5298   1
   3  -3  12 170.338 13.0940  -2
  -3   3  10 170.338 13.0940   1
   2  -3  11 33.8808 4.30006  -2
  -2   3  10 33.8808 4.30006   1
   1  -3  10 57.4591 9.65404  -2
  -1   3  10 57.4591 9.65404   1
   0  -3   9 338.112 14.3179  -2
   0   3  10 338.112 14.3179   1
  -1  -3   8 268.570 11.8367  -2
   1   3  10 268.570 11.8367   1
  -2  -3   7 153.227 8.44779  -2
   2   3  10 153.227 8.44779   1
  -3  -3   6 83.1701 6.67508  -2
   3   3  10 83.1701 6.67508   1
  -4  -3   5 119.509 5.40059  -2
   4   3  10 119.509 5.40059   1
  -5  -3   4 1538.84 43.4629  -2
   5   3  10 1538.84 43.4629   1
  -6  -3   3 309.267 11.2846  -2
   6   3  10 309.267 11.2846   1
  -7  -3   2 438.790 15.1060  -2
   7   3  10 438.790 15.1060   1
  -8  -3   1 843.210 33.4270  -2
   8   3  10 843.210 33.4270   1
   9   3   0 183.541 16.8493  -2
   9   3  10 183.541 16.8493   1
  10   3   1 403.236 40.2018  -2
  10   3  10 403.236 40.2018   1
  11   3  10 115.144 7.80053   1
  12   3  10 144.688 9.32443   1
  13   3   3 117.759 24.7286  -2
  13   3  10 117.759 24.7286   1
  14   3   4 797.668 43.9729  -2
  14   3  10 797.668 43.9729   1
  15   3   5 576.826 25.8261  -2
  15   3  10 576.826 25.8261   1
  16   3   6 396.788 33.1687  -2
  16   3  10 396.788 33.1687   1
  17   3   7 564.450 42.6579  -2
  17   3  10 564.450 42.6579   1
   9  -4  17 63.1086 21.9295  -2
  -9   4  10 63.1086 21.9295   1
   8  -4  16 25.1220 13.2332  -2
  -8   4  10 25.1220 13.2332   1
   7  -4  15 149.894 12.1195  -2
  -7   4  10 149.894 12.1195   1
   6  -4  14 286.200 15.5115  -2
  -6   4  10 286.200 15.5115   1
   5  -4  13 156.633 8.70330  -2
  -5   4  10 156.633 8.70330   1
   4  -4  12 139.300 7.68725  -2
  -4   4  10 139.300 7.68725   1
   3  -4  11 7.06018 3.67006  -2
  -3   4  10 7.06018 3.67006   1
   2  -4  10 890.343 30.5785  -2
  -2   4  10 890.343 30.5785   1
   1  -4   9 1212.89 39.6910  -2
  -1   4  10 1212.89 39.6910   1
   0  -4   8 778.831 30.3070  -2
   0   4  10 778.831 30.3070   1
  -1  -4   7 1039.50 68.1999  -2
   1   4  10 1039.50 68.1999   1
   2   4  10 52.9835 4.72915   1
   3   4  10 102.531 5.70520   1
   4   4  10 148.201 5.80496   1
  -5  -4   4 217.404 10.2418  -2
   5   4  10 217.404 10.2418   1
  -6  -4   3 355.598 12.4114  -2
   6   4  10 355.598 12.4114   1
  -7  -4   2 76.4139 6.55602  -2
   7   4  10 76.4139 6.55602   1
  -8  -4   1 606.817 21.6699  -2
   8   4  10 606.817 21.6699   1
   9   4   0 334.556 14.4710  -2
   9   4  10 334.556 14.4710   1
  10   4   1 1536.10 49.7225  -2
  10   4  10 1536.10 49.7225   1
  11   4   2 9.86217 8.78585  -2
  11   4  10 9.86217 8.78585   1
  12   4   3 223.444 13.6371  -2
  12   4  10 223.444 13.6371   1
  13   4   4 478.872 25.3211  -2
  13   4  10 478.872 25.3211   1
  14   4   5 191.371 20.0261  -2
  14   4  10 191.371 20.0261   1
  15   4   6 120.789 16.9548  -2
  15   4  10 120.789 16.9548   1
  16   4   7 83.6563 46.0621  -2
  16   4  10 83.6563 46.0621   1
  17   4  10 28.2324 14.1179   1
   9  -5  16 45.2785 28.4410  -2
  -9   5  10 45.2785 28.4410   1
   8  -5  15 25.4174 16.8356  -2
  -8   5  10 25.4174 16.8356   1
   7  -5  14 1034.28 65.8522  -2
  -7   5  10 1034.28 65.8522   1
   6  -5  14 213.914 19.1134  -2
  -6   5  10 213.914 19.1134   1
   5  -5  13 322.333 14.3910  -2
  -5   5  10 322.333 14.3910   1
   4  -5  12 186.633 9.68041  -2
  -4   5  10 186.633 9.68041   1
   3  -5  11 397.159 19.3458  -2
  -3   5  10 397.159 19.3458   1
   2  -5  10 380.543 12.8891  -2
  -2   5  10 380.543 12.8891   1
   1  -5   9 193.682 8.28488  -2
  -1   5  10 193.682 8.28488   1
   0  -5   8 487.252 14.8957  -2
   0   5  10 487.252 14.8957   1
  -1  -5   7 347.985 14.6511  -2
   1   5  10 347.985 14.6511   1
  -2  -5   6 4031.63 125.951  -2
   2   5  10 4031.63 125.951   1
  -3  -5   5 643.202 21.7151  -2
   3   5  10 643.202 21.7151   1
  -4  -5   4 644.733 17.3530  -2
   4   5  10 644.733 17.3530   1
  -5  -5   3 1324.05 37.8179  -2
   5   5  10 1324.05 37.8179   1
  -6  -5   2 74.1859 6.69091  -2
   6   5  10 74.1859 6.69091   1
  -7  -5   1 94.4079 11.4931  -2
   7   5  10 94.4079 11.4931   1
   8   5  10 135.009 7.43146   1
   9   5  10 347.019 12.2628   1
  10   5  10 235.480 11.4709   1
  11   5   2 149.233 17.8120  -2
  11   5  10 149.233 17.8120   1
  12   5   3 223.080 15.7039  -2
  12   5  10 223.080 15.7039   1
  13   5   4 241.590 18.1128  -2
  13   5  10 241.590 18.1128   1
  14   5   5 195.687 15.5482  -2
  14   5  10 195.687 15.5482   1
  15   5   6 53.8060 13.6495  -2
  15   5  10 53.8060 13.6495   1
  16   5   7 19.3753 18.8637  -2
  16   5  10 19.3753 18.8637   1
  17   5   8 21.3746 24.8542  -2
  17   5  10 21.3746 24.8542   1
   9  -6  16 10.7296 33.9518  -2
  -9   6  10 10.7296 33.9518   1
   8  -6  15 61.0823 9.21117  -2
  -8   6  10 61.0823 9.21117   1
   7  -6  14 193.418 11.6082  -2
  -7   6  10 193.418 11.6082   1
   6  -6  13 191.030 9.66031  -2
  -6   6  10 191.030 9.66031   1
   5  -6  12 522.522 18.7244  -2
  -5   6  10 522.522 18.7244   1
   4  -6  11 230.619 9.60207  -2
  -4   6  10 230.619 9.60207   1
   3  -6  10 372.566 14.8269  -2
  -3   6  10 372.566 14.8269   1
   2  -6   9 33.2919 7.26672  -2
  -2   6  10 33.2919 7.26672   1
  -1   6  10 119.013 5.94267   1
   0   6  10 8.80969 3.60708   1
   1   6  10 26.6854 4.00320   1
  -2  -6   6 413.290 32.8253  -2
   2   6  10 413.290 32.8253   1
  -3  -6   5 19.4430 10.9083  -2
   3   6  10 19.4430 10.9083   1
  -4  -6   4 969.000 25.3888  -2
   4   6  10 969.000 25.3888   1
  -5  -6   3 371.300 11.1511  -2
   5   6  10 371.300 11.1511   1
  -6  -6   2 137.985 6.31889  -2
   6   6  10 137.985 6.31889   1
  -7  -6   1 328.516 10.5307  -2
   7   6  10 328.516 10.5307   1
   8   6   0 842.130 23.1195  -2
   8   6  10 842.130 23.1195   1
   9   6   1 99.1135 8.23988  -2
   9   6  10 99.1135 8.23988   1
  10   6   2 567.890 19.7093  -2
  10   6  10 567.890 19.7093   1
  11   6   3 79.0679 11.6873  -2
  11   6  10 79.0679 11.6873   1
  12   6   4 179.766 13.5688  -2
  12   6  10 179.766 13.5688   1
  13   6   5 203.099 26.4673  -2
  13   6  10 203.099 26.4673   1
  14   6   6 2313.13 86.6642  -2
  14   6  10 2313.13 86.6642   1
  15   6   7 16.4846 24.3054  -2
  15   6  10 16.4846 24.3054   1
  16   6  10 24.9804 9.85677   1
  17   6   8 1013.23 90.7395  -2
  17   6  10 1013.23 90.7395   1
  -9   7  10 87.8203 15.4256   1
  -8   7  10 65.1832 8.28459   1
   7  -7  14 47.0308 8.65340  -2
  -7   7  10 47.0308 8.65340   1
   6  -7  13 71.7128 8.04585  -2
  -6   7  10 71.7128 8.04585   1
   5  -7  12 119.627 10.1982  -2
  -5   7  10 119.627 10.1982   1
   4  -7  11 424.727 37.3346  -2
  -4   7  10 424.727 37.3346   1
   3  -7  10 92.8332 14.3214  -2
  -3   7  10 92.8332 14.3214   1
   2  -7   9 572.230 28.2512  -2
  -2   7  10 572.230 28.2512   1
   1  -7   8 11.7165 6.19272  -2
  -1   7  10 11.7165 6.19272   1
   0  -7   7 44.9431 6.75984  -2
   0   7  10 44.9431 6.75984   1
  -1  -7   6 125.660 8.77073  -2
   1   7  10 125.660 8.77073   1
  -2  -7   5 277.369 13.4296  -2
   2   7  10 277.369 13.4296   1
  -3  -7   4 82.3584 5.66902  -2
   3   7  10 82.3584 5.66902   1
  -4  -7   3 236.483 13.8532  -2
   4   7  10 236.483 13.8532   1
   5   7  10 162.496 8.54745   1
   6   7  10 730.878 21.6779   1
   7   7  10 315.159 10.2804   1
   8   7   0 179.386 19.9395  -2
   8   7  10 179.386 19.9395   1
   9   7   1 493.320 16.9451  -2
   9   7  10 493.320 16.9451   1
  10   7   2 67.0020 9.64787  -2
  10   7  10 67.0020 9.64787   1
  11   7   3 41.7366 10.1027  -2
  11   7  10 41.7366 10.1027   1
  12   7   4 151.590 12.2377  -2
  12   7  10 151.590 12.2377   1
  13   7   5 444.015 17.4811  -2
  13   7  10 444.015 17.4811   1
  14   7   6 163.234 10.6769  -2
  14   7  10 163.234 10.6769   1
  15   7   7 335.148 19.9885  -2
  15   7  10 335.148 19.9885   1
  16   7   8 138.726 22.8990  -2
  16   7  10 138.726 22.8990   1
   9  -8  15 200.458 43.1088  -2
  -9   8  10 200.458 43.1088   1
   8  -8  14 476.726 34.7435  -2
  -8   8  10 476.726 34.7435   1
   7  -8  13 69.1992 12.2513  -2
  -7   8  10 69.1992 12.2513   1
   6  -8  12 109.205 11.9291  -2
  -6   8  10 109.205 11.9291   1
   5  -8  11 413.625 22.7492  -2
  -5   8  10 413.625 22.7492   1
  -4   8  10 284.042 21.1803   1
  -3   8  10 40.7550 5.71982   1
  -2   8  10 4.79762 4.43712   1
   1  -8   8 67.9883 12.3388  -2
  -1   8  10 67.9883 12.3388   1
   0  -8   7 453.124 19.1923  -2
   0   8  10 453.124 19.1923   1
  -1  -8   6 1965.83 71.4411  -2
   1   8  10 1965.83 71.4411   1
  -2  -8   5 143.912 6.96961  -2
   2   8  10 143.912 6.96961   1
  -3  -8   4 143.279 7.10778  -2
   3   8  10 143.279 7.10778   1
  -4  -8   3 268.519 15.9528  -2
   4   8  10 268.519 15.9528   1
  -5  -8   2 1442.71 45.7355  -2
   5   8  10 1442.71 45.7355   1
  -6  -8   1 440.644 19.4154  -2
   6   8  10 440.644 19.4154   1
   7   8   0 230.553 14.0843  -2
   7   8  10 230.553 14.0843   1
   8   8   1 543.594 17.6073  -2
   8   8  10 543.594 17.6073   1
   9   8   2 87.3685 9.94695  -2
   9   8  10 87.3685 9.94695   1
  10   8   3 1124.19 42.7354  -2
  10   8  10 1124.19 42.7354   1
  11   8   4 83.5407 17.0642  -2
  11   8  10 83.5407 17.0642   1
  12   8   5 26.5814 23.1708  -2
  12   8  10 26.5814 23.1708   1
  13   8   5 520.863 42.9280  -2
  13   8  10 520.863 42.9280   1
  14   8   6 129.367 33.7438  -2
  14   8  10 129.367 33.7438   1
  15   8   7 42.1878 18.2380  -2
  15   8  10 42.1878 18.2380   1
  16   8   8 75.1693 19.3625  -2
  16   8  10 75.1693 19.3625   1
   8  -9  14 33.0660 26.6150  -2
  -8   9  10 33.0660 26.6150   1
   7  -9  13 91.3001 12.6214  -2
  -7   9  10 91.3001 12.6214   1
   6  -9  12 15.6837 18.7779  -2
  -6   9  10 15.6837 18.7779   1
   5  -9  11 191.317 24.8960  -2
  -5   9  10 191.317 24.8960   1
   4  -9  10 811.844 32.2634  -2
  -4   9  10 811.844 32.2634   1
   3  -9   9 248.240 13.8796  -2
  -3   9  10 248.240 13.8796   1
   2  -9   8 49.8078 11.7921  -2
  -2   9  10 49.8078 11.7921   1
   1  -9   7 551.158 19.0973  -2
  -1   9  10 551.158 19.0973   1
   0  -9   6 872.391 40.5110  -2
   0   9  10 872.391 40.5110   1
  -1  -9   5 751.349 35.1509  -2
   1   9  10 751.349 35.1509   1
   2   9  10 17.6086 3.06782   1
   3   9  10 79.1869 5.40453   1
   4   9  10 193.764 11.2520   1
   5   9  10 1263.24 47.5563   1
  -6  -9   1 53.9368 22.0004  -2
   6   9  10 53.9368 22.0004   1
   7   9   0 53.8070 16.4548  -2
   7   9  10 53.8070 16.4548   1
   8   9   1 500.860 23.5271  -2
   8   9  10 500.860 23.5271   1
   9   9   2 302.243 17.7146  -2
   9   9  10 302.243 17.7146   1
  10   9   3 41.4122 8.01331  -2
  10   9  10 41.4122 8.01331   1
  11   9   4 258.837 10.9372  -2
  11   9  10 258.837 10.9372   1
  12   9   5 28.3145 10.7470  -2
  12   9  10 28.3145 10.7470   1
  13   9   6 181.152 15.1758  -2
  13   9  10 181.152 15.1758   1
  14   9   7 168.629 15.8363  -2
  14   9  10 168.629 15.8363   1
  15   9   8 96.1405 17.9718  -2
  15   9  10 96.1405 17.9718   1
   8 -10  13 290.112 33.1779  -2
  -8  10  10 290.112 33.1779   1
  -7  10  10 151.801 12.3826   1
  -6  10  10 450.054 21.6156   1
  -5  10  10 -9.3203 5.63300   1
  -4  10  10 65.2645 18.9570   1
   3 -10   9 282.406 16.2333  -2
  -3  10  10 282.406 16.2333   1
   2 -10   8 227.619 10.6075  -2
  -2  10  10 227.619 10.6075   1
   1 -10   7 85.5305 7.37869  -2
  -1  10  10 85.5305 7.37869   1
   0 -10   6 150.639 7.78093  -2
   0  10  10 150.639 7.78093   1
  -1 -10   5 505.276 17.2657  -2
   1  10  10 505.276 17.2657   1
  -2 -10   4 83.8727 5.76714  -2
   2  10  10 83.8727 5.76714   1
  -3 -10   3 84.2020 6.16259  -2
   3  10  10 84.2020 6.16259   1
  -4 -10   2 145.250 9.69896  -2
   4  10  10 145.250 9.69896   1
  -5 -10   1 515.559 26.8740  -2
   5  10  10 515.559 26.8740   1
   6  10   0 957.209 37.6055  -2
   6  10  10 957.209 37.6055   1
   7  10   1 179.899 18.7792  -2
   7  10  10 179.899 18.7792   1
   8  10  10 12.5513 7.28199   1
   9  10   3 105.016 31.0319  -2
   9  10  10 105.016 31.0319   1
  10  10   4 61.7842 35.2450  -2
  10  10  10 61.7842 35.2450   1
  11  10   4 -4.7942 13.0818  -2
  11  10  10 -4.7942 13.0818   1
  12  10   5 3.12674 15.9675  -2
  12  10  10 3.12674 15.9675   1
  13  10   6 53.3039 13.1441  -2
  13  10  10 53.3039 13.1441   1
  14  10   7 156.391 18.7841  -2
  14  10  10 156.391 18.7841   1
  15  10   8 451.203 57.6276  -2
  15  10  10 451.203 57.6276   1
   7 -11  12 270.098 31.9505  -2
  -7  11  10 270.098 31.9505   1
   6 -11  11 136.023 20.8692  -2
  -6  11  10 136.023 20.8692   1
   5 -11  10 102.110 30.5986  -2
  -5  11  10 102.110 30.5986   1
   4 -11   9 312.689 17.6231  -2
  -4  11  10 312.689 17.6231   1
   3 -11   8 34.7538 10.0433  -2
  -3  11  10 34.7538 10.0433   1
   2 -11   7 696.115 33.1866  -2
  -2  11  10 696.115 33.1866   1
   1 -11   6 289.622 31.9814  -2
  -1  11  10 289.622 31.9814   1
   0  11  10 18.5510 3.48883   1
   1  11  10 78.8620 5.50333   1
  -2 -11   4 135.068 15.6184  -2
   2  11  10 135.068 15.6184   1
  -3 -11   3 50.5165 10.3503  -2
   3  11  10 50.5165 10.3503   1
  -4 -11   2 34.8162 15.7484  -2
   4  11  10 34.8162 15.7484   1
  -5 -11   1 52.7038 11.9711  -2
   5  11  10 52.7038 11.9711   1
   6  11   0 844.465 40.9949  -2
   6  11  10 844.465 40.9949   1
   7  11   1 -9.2190 10.6971  -2
   7  11  10 -9.2190 10.6971   1
   8  11   2 54.1005 11.7624  -2
   8  11  10 54.1005 11.7624   1
   9  11   3 350.045 21.9117  -2
   9  11  10 350.045 21.9117   1
  10  11   4 252.325 23.1298  -2
  10  11  10 252.325 23.1298   1
  11  11   5 622.599 35.8577  -2
  11  11  10 622.599 35.8577   1
  12  11   6 36.9700 9.02003  -2
  12  11  10 36.9700 9.02003   1
  13  11   7 49.2591 13.8174  -2
  13  11  10 49.2591 13.8174   1
  14  11   8 115.128 37.9640  -2
  14  11  10 115.128 37.9640   1
  -7  12  10 16.6564 7.94530   1
   6 -12  11 41.3184 22.2457  -2
  -6  12  10 41.3184 22.2457   1
   5 -12  10 59.3048 20.2923  -2
  -5  12  10 59.3048 20.2923   1
   4 -12   9 67.7583 10.6014  -2
  -4  12  10 67.7583 10.6014   1
   3 -12   8 128.505 10.1567  -2
  -3  12  10 128.505 10.1567   1
   2 -12   7 1175.56 53.6207  -2
  -2  12  10 1175.56 53.6207   1
   1 -12   6 85.2447 7.39752  -2
  -1  12  10 85.2447 7.39752   1
   0 -12   5 220.207 9.59107  -2
   0  12  10 220.207 9.59107   1
  -1 -12   4 153.741 7.95779  -2
   1  12  10 153.741 7.95779   1
  -2 -12   3 120.549 7.70173  -2
   2  12  10 120.549 7.70173   1
  -3 -12   2 658.486 22.5009  -2
   3  12  10 658.486 22.5009   1
  -4 -12   1 399.259 18.5050  -2
   4  12  10 399.259 18.5050   1
   5  12   0 118.457 23.2579  -2
   5  12  10 118.457 23.2579   1
   6  12  10 14.7313 6.38036   1
   7  12  10 1399.03 53.5234   1
   8  12  10 2.66769 11.3427   1
   9  12  10 68.0196 14.0362   1
  10  12   4 1524.42 75.1263  -2
  10  12  10 1524.42 75.1263   1
  11  12   5 63.3638 22.1097  -2
  11  12  10 63.3638 22.1097   1
  12  12   6 269.234 21.7539  -2
  12  12  10 269.234 21.7539   1
  13  12   7 108.426 20.9615  -2
  13  12  10 108.426 20.9615   1
   5 -13   9 124.322 14.4876  -2
  -5  13  10 124.322 14.4876   1
   4 -13   8 39.0713 15.2374  -2
  -4  13  10 39.0713 15.2374   1
  -3  13  10 0.09407 4.33442   1
  -2  13  10 4.56256 3.97369   1
  -1  13  10 248.649 11.1237   1
   0 -13   5 86.7072 14.7445  -2
   0  13  10 86.7072 14.7445   1
  -1 -13   4 584.402 20.1830  -2
   1  13  10 584.402 20.1830   1
  -2 -13   3 609.903 21.2337  -2
   2  13  10 609.903 21.2337   1
  -3 -13   2 108.324 10.3996  -2
   3  13  10 108.324 10.3996   1
  -4 -13   1 108.258 8.51722  -2
   4  13  10 108.258 8.51722   1
   5  13   0 176.443 12.2590  -2
   5  13  10 176.443 12.2590   1
   6  13   1 179.620 12.2333  -2
   6  13  10 179.620 12.2333   1
   8  13   3 81.0905 31.7587  -2
   8  13  10 81.0905 31.7587   1
   9  13   4 -0.5693 18.6253  -2
   9  13  10 -0.5693 18.6253   1
  10  13   5 45.1869 19.4655  -2
  10  13  10 45.1869 19.4655   1
  11  13   6 948.069 42.6679  -2
  11  13  10 948.069 42.6679   1
  12  13   7 59.7464 25.5027  -2
  12  13  10 59.7464 25.5027   1
   5 -14   9 172.602 20.6723  -2
  -5  14  10 172.602 20.6723   1
   4 -14   8 96.1261 16.1273  -2
  -4  14  10 96.1261 16.1273   1
   3 -14   7 441.913 17.1724  -2
  -3  14  10 441.913 17.1724   1
   2 -14   6 -2.9833 8.60579  -2
  -2  14  10 -2.9833 8.60579   1
   1 -14   5 139.003 9.09155  -2
  -1  14  10 139.003 9.09155   1
   0 -14   4 -2.8932 6.63718  -2
   0  14  10 -2.8932 6.63718   1
  -1 -14   3 30.5889 6.11093  -2
   1  14  10 30.5889 6.11093   1
  -2 -14   2 200.260 13.1747  -2
   2  14  10 200.260 13.1747   1
  -3 -14   1 791.562 39.7236  -2
   3  14  10 791.562 39.7236   1
   4  14  10 5.81442 4.24353   1
   5  14   0 119.012 25.1807  -2
   5  14  10 119.012 25.1807   1
   6  14  10 26.0210 11.1469   1
   7  14   2 79.8224 21.6174  -2
   7  14  10 79.8224 21.6174   1
   9  14   4 121.346 23.3361  -2
   9  14  10 121.346 23.3361   1
  10  14   5 14.7729 21.2783  -2
  10  14  10 14.7729 21.2783   1
  11  14   6 109.986 19.3609  -2
  11  14  10 109.986 19.3609   1
   3 -15   7 110.973 32.3248  -2
  -3  15  10 110.973 32.3248   1
   2 -15   6 125.535 18.8838  -2
  -2  15  10 125.535 18.8838   1
   1 -15   5 49.9787 10.9311  -2
  -1  15  10 49.9787 10.9311   1
   0 -15   4 47.4971 7.21311  -2
   0  15  10 47.4971 7.21311   1
  -1 -15   3 73.8000 7.44820  -2
   1  15  10 73.8000 7.44820   1
  -2 -15   2 61.6416 8.46479  -2
   2  15  10 61.6416 8.46479   1
  -3 -15   1 12.5421 6.28480  -2
   3  15  10 12.5421 6.28480   1
   4  15   0 18.8514 11.1818  -2
   4  15  10 18.8514 11.1818   1
   5  15   1 182.339 13.1980  -2
   5  15  10 182.339 13.1980   1
   6  15   2 432.800 36.8049  -2
   6  15  10 432.800 36.8049   1
   7  15   3 231.942 21.4163  -2
   7  15  10 231.942 21.4163   1
   9  15   5 52.6018 24.1386  -2
   9  15  10 52.6018 24.1386   1
  10  15   6 192.798 49.0219  -2
  10  15  10 192.798 49.0219   1
   2 -16   5 28.9154 33.5870  -2
  -2  16  10 28.9154 33.5870   1
   1 -16   4 5.00300 33.7154  -2
  -1  16  10 5.00300 33.7154   1
   0 -16   3 289.566 44.0943  -2
   0  16  10 289.566 44.0943   1
   1  16  10 416.170 45.1335   1
   2  16  10 -25.314 19.6645   1
  -3 -16   1 346.205 24.8962  -2
   3  16  10 346.205 24.8962   1
   4  16   0 400.861 48.2214  -2
   4  16  10 400.861 48.2214   1
   5  16   1 256.889 19.2621  -2
   5  16  10 256.889 19.2621   1
   6  16   2 287.951 22.4134  -2
   6  16  10 287.951 22.4134   1
   7  16   3 85.5824 29.2559  -2
   7  16  10 85.5824 29.2559   1
  -1 -17   2 -8.4769 18.5559  -2
   1  17  10 -8.4769 18.5559   1
  -2 -17   1 701.955 49.2624  -2
   2  17  10 701.955 49.2624   1
  -2  12  14 554.621 25.1834  -2
   2 -12  11 554.621 25.1834   1
  -3  12  13 20.1650 13.9821  -2
   3 -12  11 20.1650 13.9821   1
  -4  12  12 31.3751 15.1627  -2
   4 -12  11 31.3751 15.1627   1
  -5  12  11 56.9597 16.5150  -2
   5 -12  11 56.9597 16.5150   1
  -6  12  10 32.0085 21.1388  -2
   6 -12  11 32.0085 21.1388   1
  -7  12   9 27.4645 19.1736  -2
   7 -12  11 27.4645 19.1736   1
   8 -12  11 343.361 18.4471   1
   9 -12  11 39.5555 8.64457   1
   0 -11  11 4.45863 8.80219   1
  -1  11  15 61.8246 21.3634  -2
   1 -11  11 61.8246 21.3634   1
  -2  11  14 219.715 17.0665  -2
   2 -11  11 219.715 17.0665   1
  -3  11  13 131.533 17.0945  -2
   3 -11  11 131.533 17.0945   1
  -4  11  12 175.360 16.8746  -2
   4 -11  11 175.360 16.8746   1
  -5  11  11 39.7028 12.7822  -2
   5 -11  11 39.7028 12.7822   1
  -6  11  10 168.042 13.1416  -2
   6 -11  11 168.042 13.1416   1
  -7  11   9 125.086 11.5871  -2
   7 -11  11 125.086 11.5871   1
  -8  11   8 129.409 12.1605  -2
   8 -11  11 129.409 12.1605   1
  -9  11   7 66.0028 15.3601  -2
   9 -11  11 66.0028 15.3601   1
 -10  11   6 14.9653 15.7992  -2
  10 -11  11 14.9653 15.7992   1
 -11  11   5 81.4483 26.1107  -2
  11 -11  11 81.4483 26.1107   1
   2  10  17 176.590 21.6214  -2
  -2 -10  11 176.590 21.6214   1
   1  10  16 181.219 18.3092  -2
  -1 -10  11 181.219 18.3092   1
   0  10  15 100.551 13.2957  -2
   0 -10  11 100.551 13.2957   1
  -1  10  14 30.8416 13.3621  -2
   1 -10  11 30.8416 13.3621   1
  -2  10  13 96.5997 14.3486  -2
   2 -10  11 96.5997 14.3486   1
  -3  10  12 29.2504 14.9453  -2
   3 -10  11 29.2504 14.9453   1
  -4  10  11 30.5052 13.7731  -2
   4 -10  11 30.5052 13.7731   1
   5 -10  11 208.936 10.8144   1
   6 -10  11 1.29024 5.90098   1
  -7  10   9 740.368 34.1812  -2
   7 -10  11 740.368 34.1812   1
  -8  10   8 296.406 19.6142  -2
   8 -10  11 296.406 19.6142   1
  -9  10   7 514.415 24.4267  -2
   9 -10  11 514.415 24.4267   1
 -10  10   6 32.7952 15.9340  -2
  10 -10  11 32.7952 15.9340   1
 -11  10   5 359.964 20.4217  -2
  11 -10  11 359.964 20.4217   1
 -12  10   4 310.477 20.9493  -2
  12 -10  11 310.477 20.9493   1
 -13  10   3 438.201 52.6814  -2
  13 -10  11 438.201 52.6814   1
  -3  -9  11 13.4039 13.4213   1
   2   9  17 94.9986 27.8199  -2
  -2  -9  11 94.9986 27.8199   1
   1   9  16 267.881 23.6756  -2
  -1  -9  11 267.881 23.6756   1
   0   9  15 37.6500 13.9106  -2
   0  -9  11 37.6500 13.9106   1
  -1   9  14 140.019 13.5488  -2
   1  -9  11 140.019 13.5488   1
  -2   9  13 9.80964 10.9519  -2
   2  -9  11 9.80964 10.9519   1
  -3   9  12 535.805 18.0756  -2
   3  -9  11 535.805 18.0756   1
  -4   9  11 18.0322 8.86012  -2
   4  -9  11 18.0322 8.86012   1
  -5   9  10 120.592 10.2657  -2
   5  -9  11 120.592 10.2657   1
  -6   9   9 177.884 14.7308  -2
   6  -9  11 177.884 14.7308   1
  -7   9   8 354.285 17.0769  -2
   7  -9  11 354.285 17.0769   1
  -8   9   7 522.338 21.2945  -2
   8  -9  11 522.338 21.2945   1
  -9   9   6 31.9135 12.6140  -2
   9  -9  11 31.9135 12.6140   1
 -10   9   5 25.3362 16.4319  -2
  10  -9  11 25.3362 16.4319   1
 -11   9   4 9.09844 27.6310  -2
  11  -9  11 9.09844 27.6310   1
 -12   9   3 172.173 44.2190  -2
  12  -9  11 172.173 44.2190   1
 -13   9   3 8.81461 38.6172  -2
  13  -9  11 8.81461 38.6172   1
  14  -9  11 27.0185 12.5626   1
   4   8  18 116.368 20.6310  -2
  -4  -8  11 116.368 20.6310   1
   3   8  17 107.597 18.3842  -2
  -3  -8  11 107.597 18.3842   1
   2   8  16 172.267 18.5607  -2
  -2  -8  11 172.267 18.5607   1
   1   8  15 117.199 15.9947  -2
  -1  -8  11 117.199 15.9947   1
   0   8  14 303.789 17.8118  -2
   0  -8  11 303.789 17.8118   1
  -1   8  13 40.8119 14.2596  -2
   1  -8  11 40.8119 14.2596   1
   2  -8  11 198.494 10.7475   1
   3  -8  11 45.9213 5.80787   1
  -4   8  11 17.3626 32.7299  -2
   4  -8  11 17.3626 32.7299   1
  -5   8  10 461.052 17.6804  -2
   5  -8  11 461.052 17.6804   1
  -6   8   9 91.8741 13.4409  -2
   6  -8  11 91.8741 13.4409   1
  -7   8   8 43.8719 12.4264  -2
   7  -8  11 43.8719 12.4264   1
  -8   8   7 182.941 11.8401  -2
   8  -8  11 182.941 11.8401   1
  -9   8   6 110.844 10.7682  -2
   9  -8  11 110.844 10.7682   1
 -10   8   5 137.402 10.7291  -2
  10  -8  11 137.402 10.7291   1
 -11   8   4 589.462 19.5475  -2
  11  -8  11 589.462 19.5475   1
 -12   8   3 736.270 25.1642  -2
  12  -8  11 736.270 25.1642   1
 -13   8   2 173.847 18.8798  -2
  13  -8  11 173.847 18.8798   1
 -14   8   1 183.526 26.3509  -2
  14  -8  11 183.526 26.3509   1
  -5  -7  11 -9.5440 11.8940   1
   4   7  18 12.2464 21.7091  -2
  -4  -7  11 12.2464 21.7091   1
   3   7  17 18.9436 18.9511  -2
  -3  -7  11 18.9436 18.9511   1
   2   7  16 -3.5845 14.5724  -2
  -2  -7  11 -3.5845 14.5724   1
   1   7  15 131.196 12.8858  -2
  -1  -7  11 131.196 12.8858   1
   0   7  14 586.052 20.9594  -2
   0  -7  11 586.052 20.9594   1
  -1   7  13 193.408 10.9124  -2
   1  -7  11 193.408 10.9124   1
  -2   7  12 37.1269 7.87164  -2
   2  -7  11 37.1269 7.87164   1
  -3   7  11 627.672 24.0587  -2
   3  -7  11 627.672 24.0587   1
  -4   7  10 482.293 16.5408  -2
   4  -7  11 482.293 16.5408   1
  -5   7   9 117.853 11.8458  -2
   5  -7  11 117.853 11.8458   1
  -6   7   8 189.494 13.1496  -2
   6  -7  11 189.494 13.1496   1
  -7   7   7 49.9783 13.4144  -2
   7  -7  11 49.9783 13.4144   1
  -8   7   6 171.452 17.3823  -2
   8  -7  11 171.452 17.3823   1
   9  -7  11 15.0215 5.29426   1
  10  -7  11 -2.9744 5.32582   1
 -11   7   4 234.703 16.9538  -2
  11  -7  11 234.703 16.9538   1
 -12   7   3 67.7760 14.2582  -2
  12  -7  11 67.7760 14.2582   1
 -13   7   2 137.731 19.9696  -2
  13  -7  11 137.731 19.9696   1
 -14   7   1 19.0027 21.7766  -2
  14  -7  11 19.0027 21.7766   1
 -15   7   0 321.790 34.8272  -2
  15  -7  11 321.790 34.8272   1
   5   6  18 19.3676 40.3295  -2
  -5  -6  11 19.3676 40.3295   1
   4   6  17 -6.9692 17.5388  -2
  -4  -6  11 -6.9692 17.5388   1
   3   6  16 200.713 20.1745  -2
  -3  -6  11 200.713 20.1745   1
   2   6  15 375.915 19.2840  -2
  -2  -6  11 375.915 19.2840   1
   1   6  14 63.4871 22.9496  -2
  -1  -6  11 63.4871 22.9496   1
   0  -6  11 2.59706 6.00961   1
   1  -6  11 171.512 8.63641   1
  -2   6  12 383.470 16.2463  -2
   2  -6  11 383.470 16.2463   1
  -3   6  11 133.877 10.2940  -2
   3  -6  11 133.877 10.2940   1
  -4   6  10 299.062 13.1880  -2
   4  -6  11 299.062 13.1880   1
  -5   6   9 -5.1153 12.5161  -2
   5  -6  11 -5.1153 12.5161   1
  -6   6   8 1339.71 45.5383  -2
   6  -6  11 1339.71 45.5383   1
  -7   6   7 266.264 13.0323  -2
   7  -6  11 266.264 13.0323   1
  -8   6   6 126.351 8.41687  -2
   8  -6  11 126.351 8.41687   1
  -9   6   5 601.640 26.5208  -2
   9  -6  11 601.640 26.5208   1
 -10   6   4 231.414 12.6269  -2
  10  -6  11 231.414 12.6269   1
 -11   6   3 1295.76 39.0832  -2
  11  -6  11 1295.76 39.0832   1
 -12   6   2 332.674 15.8142  -2
  12  -6  11 332.674 15.8142   1
 -13   6   1 794.593 31.2705  -2
  13  -6  11 794.593 31.2705   1
 -14   6   0 508.098 29.6733  -2
  14  -6  11 508.098 29.6733   1
  15  -6   1 747.948 65.2857  -2
  15  -6  11 747.948 65.2857   1
  16  -6  11 93.5388 15.4100   1
   6   5  19 -47.932 39.4568  -2
  -6  -5  11 -47.932 39.4568   1
   5   5  18 -53.758 35.7361  -2
  -5  -5  11 -53.758 35.7361   1
   4   5  17 77.9663 24.2841  -2
  -4  -5  11 77.9663 24.2841   1
   3   5  16 191.486 13.7905  -2
  -3  -5  11 191.486 13.7905   1
   2   5  15 34.9157 13.5183  -2
  -2  -5  11 34.9157 13.5183   1
   1   5  14 135.371 10.2802  -2
  -1  -5  11 135.371 10.2802   1
   0   5  13 42.3252 8.81696  -2
   0  -5  11 42.3252 8.81696   1
  -1   5  12 0.55125 7.11228  -2
   1  -5  11 0.55125 7.11228   1
  -2   5  11 38.4783 7.49054  -2
   2  -5  11 38.4783 7.49054   1
  -3   5  10 376.992 13.6615  -2
   3  -5  11 376.992 13.6615   1
  -4   5   9 8.85372 8.84993  -2
   4  -5  11 8.85372 8.84993   1
  -5   5   8 476.736 22.0725  -2
   5  -5  11 476.736 22.0725   1
   6  -5  11 12.0998 4.27693   1
   7  -5  11 54.3967 5.09223   1
  -8   5   6 -1.4451 16.6337  -2
   8  -5  11 -1.4451 16.6337   1
  -9   5   5 6.48716 11.3027  -2
   9  -5  11 6.48716 11.3027   1
 -10   5   4 196.884 12.4195  -2
  10  -5  11 196.884 12.4195   1
 -11   5   3 273.295 13.6602  -2
  11  -5  11 273.295 13.6602   1
 -12   5   2 -0.2123 11.3406  -2
  12  -5  11 -0.2123 11.3406   1
 -13   5   1 151.360 11.7308  -2
  13  -5  11 151.360 11.7308   1
 -14   5   0 134.955 12.0606  -2
  14  -5  11 134.955 12.0606   1
  15  -5   1 271.824 23.5261  -2
  15  -5  11 271.824 23.5261   1
  16  -5   2 114.891 19.9439  -2
  16  -5  11 114.891 19.9439   1
   7   4  19 63.9175 40.4727  -2
  -7  -4  11 63.9175 40.4727   1
   6   4  18 61.6704 27.9681  -2
  -6  -4  11 61.6704 27.9681   1
   5   4  17 -0.5459 26.8857  -2
  -5  -4  11 -0.5459 26.8857   1
   4   4  16 59.6605 21.5996  -2
  -4  -4  11 59.6605 21.5996   1
   3   4  15 144.214 23.4180  -2
  -3  -4  11 144.214 23.4180   1
  -2  -4  11 11.2783 5.45520   1
   1   4  14 507.712 25.2535  -2
  -1  -4  11 507.712 25.2535   1
   0   4  13 67.9630 11.3114  -2
   0  -4  11 67.9630 11.3114   1
  -1   4  12 506.356 18.8065  -2
   1  -4  11 506.356 18.8065   1
  -2   4  11 395.400 13.7556  -2
   2  -4  11 395.400 13.7556   1
  -3   4  10 17.4802 6.83379  -2
   3  -4  11 17.4802 6.83379   1
  -4   4   9 431.038 14.9665  -2
   4  -4  11 431.038 14.9665   1
  -5   4   8 237.581 11.5184  -2
   5  -4  11 237.581 11.5184   1
  -6   4   7 350.940 12.9064  -2
   6  -4  11 350.940 12.9064   1
  -7   4   6 270.544 14.9320  -2
   7  -4  11 270.544 14.9320   1
  -8   4   5 140.460 9.35620  -2
   8  -4  11 140.460 9.35620   1
  -9   4   4 189.488 12.4946  -2
   9  -4  11 189.488 12.4946   1
 -10   4   3 162.107 12.2832  -2
  10  -4  11 162.107 12.2832   1
 -11   4   2 136.313 12.9618  -2
  11  -4  11 136.313 12.9618   1
 -12   4   1 146.640 32.4866  -2
  12  -4  11 146.640 32.4866   1
  13  -4  11 38.9919 6.37740   1
 -14   4   0 -9.7574 29.3736  -2
  14  -4  11 -9.7574 29.3736   1
  15  -4   1 28.3417 25.8365  -2
  15  -4  11 28.3417 25.8365   1
  16  -4   2 71.1179 42.7474  -2
  16  -4  11 71.1179 42.7474   1
   7   3  19 47.2581 37.4189  -2
  -7  -3  11 47.2581 37.4189   1
   6   3  18 134.083 25.0918  -2
  -6  -3  11 134.083 25.0918   1
   5   3  17 13.0536 17.8568  -2
  -5  -3  11 13.0536 17.8568   1
   4   3  16 150.298 11.0730  -2
  -4  -3  11 150.298 11.0730   1
   3   3  15 424.955 19.7736  -2
  -3  -3  11 424.955 19.7736   1
   2   3  14 223.850 12.0989  -2
  -2  -3  11 223.850 12.0989   1
   1   3  13 29.2652 9.39571  -2
  -1  -3  11 29.2652 9.39571   1
   0   3  12 309.630 13.6278  -2
   0  -3  11 309.630 13.6278   1
  -1   3  11 408.188 17.7042  -2
   1  -3  11 408.188 17.7042   1
  -2   3  10 49.6975 12.4680  -2
   2  -3  11 49.6975 12.4680   1
  -3   3   9 827.073 52.7658  -2
   3  -3  11 827.073 52.7658   1
   4  -3  11 88.5097 5.34394   1
  -5   3   8 7.86670 14.7991  -2
   5  -3  11 7.86670 14.7991   1
  -6   3   7 466.964 20.6236  -2
   6  -3  11 466.964 20.6236   1
  -7   3   6 205.934 13.5426  -2
   7  -3  11 205.934 13.5426   1
  -8   3   5 162.625 13.4993  -2
   8  -3  11 162.625 13.4993   1
  -9   3   4 12.7469 8.43767  -2
   9  -3  11 12.7469 8.43767   1
 -10   3   3 217.374 12.4310  -2
  10  -3  11 217.374 12.4310   1
 -11   3   2 59.6392 8.68672  -2
  11  -3  11 59.6392 8.68672   1
 -12   3   1 523.358 17.1714  -2
  12  -3  11 523.358 17.1714   1
 -13   3   0 13.3309 9.44174  -2
  13  -3  11 13.3309 9.44174   1
  14  -3   1 245.858 14.2738  -2
  14  -3  11 245.858 14.2738   1
  15  -3   2 30.7145 21.2348  -2
  15  -3  11 30.7145 21.2348   1
  16  -3   3 124.590 36.9625  -2
  16  -3  11 124.590 36.9625   1
   7   2  18 183.477 23.1720  -2
  -7  -2  11 183.477 23.1720   1
   6   2  17 57.0517 29.2813  -2
  -6  -2  11 57.0517 29.2813   1
  -5  -2  11 97.4020 7.85014   1
  -4  -2  11 93.8464 7.34285   1
   3   2  15 144.942 15.9686  -2
  -3  -2  11 144.942 15.9686   1
   2   2  14 165.110 11.9512  -2
  -2  -2  11 165.110 11.9512   1
   1   2  13 -6.7750 10.0606  -2
  -1  -2  11 -6.7750 10.0606   1
   0   2  12 89.8652 9.59598  -2
   0  -2  11 89.8652 9.59598   1
  -1   2  11 1.53277 8.29409  -2
   1  -2  11 1.53277 8.29409   1
  -2   2  10 15.9554 4.15095  -2
   2  -2  11 15.9554 4.15095   1
  -3   2   9 433.719 18.7083  -2
   3  -2  11 433.719 18.7083   1
  -4   2   8 2453.60 77.3707  -2
   4  -2  11 2453.60 77.3707   1
  -5   2   7 30.8763 5.72764  -2
   5  -2  11 30.8763 5.72764   1
  -6   2   6 51.4616 6.98098  -2
   6  -2  11 51.4616 6.98098   1
  -7   2   5 294.628 12.6930  -2
   7  -2  11 294.628 12.6930   1
  -8   2   4 510.708 27.7223  -2
   8  -2  11 510.708 27.7223   1
  -9   2   3 212.118 25.0682  -2
   9  -2  11 212.118 25.0682   1
  10  -2  11 15.1762 4.88377   1
  11  -2  11 99.5518 6.90892   1
 -12   2   1 5.48823 17.4553  -2
  12  -2  11 5.48823 17.4553   1
 -13   2   0 1249.38 38.6731  -2
  13  -2  11 1249.38 38.6731   1
  14  -2   1 439.373 22.1347  -2
  14  -2  11 439.373 22.1347   1
  15  -2   2 287.685 19.2080  -2
  15  -2  11 287.685 19.2080   1
  16  -2   3 1043.01 81.1402  -2
  16  -2  11 1043.01 81.1402   1
  17  -2   4 346.572 44.5517  -2
  17  -2  11 346.572 44.5517   1
   8   1  19 94.0157 33.7426  -2
  -8  -1  11 94.0157 33.7426   1
   7   1  18 60.8152 10.6924  -2
  -7  -1  11 60.8152 10.6924   1
   6   1  17 154.456 12.8499  -2
  -6  -1  11 154.456 12.8499   1
   5   1  16 21.2068 8.15840  -2
  -5  -1  11 21.2068 8.15840   1
   4   1  15 65.1421 16.4930  -2
  -4  -1  11 65.1421 16.4930   1
   3   1  14 177.447 15.1913  -2
  -3  -1  11 177.447 15.1913   1
   2   1  13 86.1608 10.9111  -2
  -2  -1  11 86.1608 10.9111   1
   1   1  12 945.321 32.7522  -2
  -1  -1  11 945.321 32.7522   1
   0   1  11 145.559 12.9142  -2
   0  -1  11 145.559 12.9142   1
   1  -1  11 36.4674 4.24230   1
   2  -1  11 598.055 19.0041   1
  -3   1   9 191.396 16.7847  -2
   3  -1  11 191.396 16.7847   1
  -4   1   8 517.189 19.4887  -2
   4  -1  11 517.189 19.4887   1
  -5   1   7 382.014 13.5943  -2
   5  -1  11 382.014 13.5943   1
  -6   1   6 104.207 7.24193  -2
   6  -1  11 104.207 7.24193   1
  -7   1   5 104.701 7.14062  -2
   7  -1  11 104.701 7.14062   1
  -8   1   4 1538.66 40.4901  -2
   8  -1  11 1538.66 40.4901   1
  -9   1   3 596.813 24.9717  -2
   9  -1  11 596.813 24.9717   1
 -10   1   2 471.880 16.7572  -2
  10  -1  11 471.880 16.7572   1
 -11   1   1 184.253 11.8617  -2
  11  -1  11 184.253 11.8617   1
 -12   1   0 611.449 19.6430  -2
  12  -1  11 611.449 19.6430   1
  13  -1   1 339.652 14.4802  -2
  13  -1  11 339.652 14.4802   1
  14  -1   2 119.511 17.7530  -2
  14  -1  11 119.511 17.7530   1
  15  -1   3 52.4113 19.4361  -2
  15  -1  11 52.4113 19.4361   1
  16  -1   4 228.343 46.7638  -2
  16  -1  11 228.343 46.7638   1
  17  -1  11 972.964 42.0763   1
   8   0  18 505.386 51.7408  -2
  -8   0  11 505.386 51.7408   1
   7   0  18 28.9515 25.2061  -2
  -7   0  11 28.9515 25.2061   1
   6   0  17 27.3898 17.0148  -2
  -6   0  11 27.3898 17.0148   1
   5   0  16 110.637 10.3222  -2
  -5   0  11 110.637 10.3222   1
   4   0  15 865.822 32.7039  -2
  -4   0  11 865.822 32.7039   1
   3   0  14 95.0070 13.5596  -2
  -3   0  11 95.0070 13.5596   1
   2   0  13 84.2682 8.52203  -2
  -2   0  11 84.2682 8.52203   1
   1   0  12 512.621 19.3938  -2
  -1   0  11 512.621 19.3938   1
   0   0  11 22.4703 6.02582  -2
   0   0  11 22.4703 6.02582   1
  -1   0  10 297.778 13.6936  -2
   1   0  11 297.778 13.6936   1
  -2   0   9 146.346 8.37335  -2
   2   0  11 146.346 8.37335   1
  -3   0   8 380.143 14.6146  -2
   3   0  11 380.143 14.6146   1
  -4   0   7 1243.65 40.1418  -2
   4   0  11 1243.65 40.1418   1
  -5   0   6 22.0789 7.09594  -2
   5   0  11 22.0789 7.09594   1
  -6   0   5 369.885 21.2373  -2
   6   0  11 369.885 21.2373   1
   7   0  11 65.2116 5.06123   1
   8   0  11 643.926 18.6830   1
   9   0  11 302.337 12.3143   1
 -10   0   2 8.73755 16.8173  -2
  10   0  11 8.73755 16.8173   1
 -11   0   1 54.5532 12.6035  -2
  11   0  11 54.5532 12.6035   1
  12   0   0 609.009 22.3729  -2
  12   0  11 609.009 22.3729   1
  13   0   1 279.793 14.9027  -2
  13   0  11 279.793 14.9027   1
  14   0   2 38.2156 12.2368  -2
  14   0  11 38.2156 12.2368   1
  15   0   3 12.0102 9.55162  -2
  15   0  11 12.0102 9.55162   1
  16   0   4 18.4912 14.6076  -2
  16   0  11 18.4912 14.6076   1
  17   0   5 75.5304 34.9823  -2
  17   0  11 75.5304 34.9823   1
   8  -1  18 56.6451 11.6419  -2
  -8   1  11 56.6451 11.6419   1
   7  -1  17 147.400 11.4393  -2
  -7   1  11 147.400 11.4393   1
   6  -1  16 32.2158 8.99337  -2
  -6   1  11 32.2158 8.99337   1
   5  -1  15 118.467 9.93900  -2
  -5   1  11 118.467 9.93900   1
   4  -1  14 470.517 17.4629  -2
  -4   1  11 470.517 17.4629   1
   3  -1  13 234.675 16.5947  -2
  -3   1  11 234.675 16.5947   1
  -2   1  11 5.67915 3.48278   1
  -1   1  11 261.313 11.0125   1
   0  -1  11 140.098 10.4075  -2
   0   1  11 140.098 10.4075   1
  -1  -1  10 166.461 8.78582  -2
   1   1  11 166.461 8.78582   1
  -2  -1   9 245.437 11.5111  -2
   2   1  11 245.437 11.5111   1
  -3  -1   8 57.8861 6.05838  -2
   3   1  11 57.8861 6.05838   1
  -4  -1   7 300.593 10.2026  -2
   4   1  11 300.593 10.2026   1
  -5  -1   6 165.372 7.71931  -2
   5   1  11 165.372 7.71931   1
  -6  -1   5 473.690 15.1332  -2
   6   1  11 473.690 15.1332   1
  -7  -1   4 119.182 7.14200  -2
   7   1  11 119.182 7.14200   1
  -8  -1   3 107.645 7.36701  -2
   8   1  11 107.645 7.36701   1
  -9  -1   2 45.5527 7.37323  -2
   9   1  11 45.5527 7.37323   1
 -10  -1   1 195.492 12.8885  -2
  10   1  11 195.492 12.8885   1
  11   1   0 201.314 16.3772  -2
  11   1  11 201.314 16.3772   1
  12   1   1 322.645 23.1666  -2
  12   1  11 322.645 23.1666   1
  13   1   2 662.732 50.1523  -2
  13   1  11 662.732 50.1523   1
  14   1  11 469.034 20.6753   1
  15   1   3 65.0766 28.7735  -2
  15   1  11 65.0766 28.7735   1
  16   1   4 326.088 31.9417  -2
  16   1  11 326.088 31.9417   1
  17   1   5 127.979 49.0376  -2
  17   1  11 127.979 49.0376   1
  18   1  11 15.6243 28.5652   1
   8  -2  18 172.952 31.2121  -2
  -8   2  11 172.952 31.2121   1
   7  -2  17 139.899 13.8460  -2
  -7   2  11 139.899 13.8460   1
   6  -2  16 113.749 10.6504  -2
  -6   2  11 113.749 10.6504   1
   5  -2  15 88.9590 8.22416  -2
  -5   2  11 88.9590 8.22416   1
   4  -2  14 147.461 7.32078  -2
  -4   2  11 147.461 7.32078   1
   3  -2  13 115.144 7.93625  -2
  -3   2  11 115.144 7.93625   1
   2  -2  12 194.054 8.55837  -2
  -2   2  11 194.054 8.55837   1
   1  -2  11 29.4030 9.15289  -2
  -1   2  11 29.4030 9.15289   1
   0  -2  10 361.473 17.8317  -2
   0   2  11 361.473 17.8317   1
  -1  -2   9 626.816 26.5069  -2
   1   2  11 626.816 26.5069   1
  -2  -2   8 102.579 6.44520  -2
   2   2  11 102.579 6.44520   1
  -3  -2   7 29.8599 16.4960  -2
   3   2  11 29.8599 16.4960   1
  -4  -2   6 132.122 11.5779  -2
   4   2  11 132.122 11.5779   1
   5   2  11 5.07877 2.58717   1
   6   2  11 387.963 12.1029   1
  -7  -2   4 37.4636 11.3544  -2
   7   2  11 37.4636 11.3544   1
  -8  -2   3 587.330 25.3764  -2
   8   2  11 587.330 25.3764   1
  -9  -2   2 25.0120 9.93892  -2
   9   2  11 25.0120 9.93892   1
 -10  -2   1 679.899 29.0915  -2
  10   2  11 679.899 29.0915   1
  11   2   0 313.381 12.7534  -2
  11   2  11 313.381 12.7534   1
  12   2   1 4.43472 9.06280  -2
  12   2  11 4.43472 9.06280   1
  13   2   2 1.41759 8.65960  -2
  13   2  11 1.41759 8.65960   1
  14   2   3 5.03040 11.6563  -2
  14   2  11 5.03040 11.6563   1
  15   2   4 554.928 24.7326  -2
  15   2  11 554.928 24.7326   1
  16   2   5 608.998 31.2422  -2
  16   2  11 608.998 31.2422   1
  17   2   6 133.281 45.4541  -2
  17   2  11 133.281 45.4541   1
   8  -3  17 156.708 15.5581  -2
  -8   3  11 156.708 15.5581   1
   7  -3  16 -6.3009 11.3235  -2
  -7   3  11 -6.3009 11.3235   1
   6  -3  15 35.8277 13.3331  -2
  -6   3  11 35.8277 13.3331   1
   5  -3  14 129.262 15.0490  -2
  -5   3  11 129.262 15.0490   1
  -4   3  11 78.7637 5.81432   1
   3  -3  13 14.6835 7.16711  -2
  -3   3  11 14.6835 7.16711   1
   2  -3  12 58.7678 13.3609  -2
  -2   3  11 58.7678 13.3609   1
   1  -3  11 555.019 21.9057  -2
  -1   3  11 555.019 21.9057   1
   0  -3  10 651.600 26.8616  -2
   0   3  11 651.600 26.8616   1
  -1  -3   9 190.124 10.7882  -2
   1   3  11 190.124 10.7882   1
  -2  -3   8 16.0812 7.35059  -2
   2   3  11 16.0812 7.35059   1
  -3  -3   7 365.926 14.4056  -2
   3   3  11 365.926 14.4056   1
  -4  -3   6 663.616 18.0859  -2
   4   3  11 663.616 18.0859   1
  -5  -3   5 145.055 6.32676  -2
   5   3  11 145.055 6.32676   1
  -6  -3   4 539.404 15.8006  -2
   6   3  11 539.404 15.8006   1
  -7  -3   3 959.859 28.7828  -2
   7   3  11 959.859 28.7828   1
  -8  -3   2 12.6838 10.1267  -2
   8   3  11 12.6838 10.1267   1
  -9  -3   1 74.0207 13.5527  -2
   9   3  11 74.0207 13.5527   1
  10   3   0 693.028 47.0876  -2
  10   3  11 693.028 47.0876   1
  11   3  11 88.6834 7.13939   1
  12   3   1 223.657 26.3499  -2
  12   3  11 223.657 26.3499   1
  13   3   2 114.529 25.6699  -2
  13   3  11 114.529 25.6699   1
  14   3   3 236.240 25.8705  -2
  14   3  11 236.240 25.8705   1
  15   3   4 59.8703 15.9037  -2
  15   3  11 59.8703 15.9037   1
  16   3   5 106.314 19.3448  -2
  16   3  11 106.314 19.3448   1
  17   3   6 254.119 47.2038  -2
  17   3  11 254.119 47.2038   1
   8  -4  17 66.1444 20.0903  -2
  -8   4  11 66.1444 20.0903   1
   7  -4  16 124.383 12.2824  -2
  -7   4  11 124.383 12.2824   1
   6  -4  15 38.0969 8.29915  -2
  -6   4  11 38.0969 8.29915   1
   5  -4  14 254.031 13.4788  -2
  -5   4  11 254.031 13.4788   1
   4  -4  13 33.9644 4.31808  -2
  -4   4  11 33.9644 4.31808   1
   3  -4  12 399.052 13.1038  -2
  -3   4  11 399.052 13.1038   1
   2  -4  11 523.432 20.8227  -2
  -2   4  11 523.432 20.8227   1
   1  -4  10 233.286 14.4163  -2
  -1   4  11 233.286 14.4163   1
   0  -4   9 593.747 25.5633  -2
   0   4  11 593.747 25.5633   1
  -1  -4   8 229.941 17.1197  -2
   1   4  11 229.941 17.1197   1
   2   4  11 1206.08 39.4460   1
   3   4  11 247.963 11.2448   1
   4   4  11 52.9288 3.30916   1
  -5  -4   5 349.440 13.6473  -2
   5   4  11 349.440 13.6473   1
  -6  -4   4 635.669 20.0550  -2
   6   4  11 635.669 20.0550   1
  -7  -4   3 1410.35 37.1993  -2
   7   4  11 1410.35 37.1993   1
  -8  -4   2 681.049 21.3807  -2
   8   4  11 681.049 21.3807   1
  -9  -4   1 1650.98 47.7390  -2
   9   4  11 1650.98 47.7390   1
  10   4   0 313.214 16.2140  -2
  10   4  11 313.214 16.2140   1
  11   4   1 216.042 11.7007  -2
  11   4  11 216.042 11.7007   1
  12   4   2 565.979 20.5282  -2
  12   4  11 565.979 20.5282   1
  13   4   3 195.354 14.6614  -2
  13   4  11 195.354 14.6614   1
  14   4   4 760.714 29.3056  -2
  14   4  11 760.714 29.3056   1
  15   4   5 70.5277 15.9160  -2
  15   4  11 70.5277 15.9160   1
  16   4   6 -62.228 45.4420  -2
  16   4  11 -62.228 45.4420   1
  17   4   7 57.6161 52.1487  -2
  17   4  11 57.6161 52.1487   1
   8  -5  16 272.567 24.2229  -2
  -8   5  11 272.567 24.2229   1
   7  -5  15 116.722 19.1337  -2
  -7   5  11 116.722 19.1337   1
  -6   5  11 32.1728 6.85782   1
   5  -5  14 123.614 9.12696  -2
  -5   5  11 123.614 9.12696   1
   4  -5  13 226.477 14.7720  -2
  -4   5  11 226.477 14.7720   1
   3  -5  12 23.2072 5.98680  -2
  -3   5  11 23.2072 5.98680   1
   2  -5  11 36.9149 4.67376  -2
  -2   5  11 36.9149 4.67376   1
   1  -5  10 240.136 12.9988  -2
  -1   5  11 240.136 12.9988   1
   0  -5   9 684.970 23.3419  -2
   0   5  11 684.970 23.3419   1
  -1  -5   8 914.837 41.9863  -2
   1   5  11 914.837 41.9863   1
  -2  -5   7 108.425 7.18617  -2
   2   5  11 108.425 7.18617   1
  -3  -5   6 272.656 11.4143  -2
   3   5  11 272.656 11.4143   1
  -4  -5   5 173.003 7.11924  -2
   4   5  11 173.003 7.11924   1
  -5  -5   4 371.387 11.2360  -2
   5   5  11 371.387 11.2360   1
  -6  -5   3 147.683 7.80322  -2
   6   5  11 147.683 7.80322   1
  -7  -5   2 345.595 20.0851  -2
   7   5  11 345.595 20.0851   1
   8   5  11 7.76175 4.09273   1
   9   5  11 42.9469 5.14772   1
  10   5  11 194.778 9.32752   1
  11   5   1 96.5279 17.8317  -2
  11   5  11 96.5279 17.8317   1
  12   5   2 18.6591 11.8197  -2
  12   5  11 18.6591 11.8197   1
  13   5   3 357.690 20.9476  -2
  13   5  11 357.690 20.9476   1
  14   5   4 46.6569 13.6274  -2
  14   5  11 46.6569 13.6274   1
  15   5   5 38.0582 13.6162  -2
  15   5  11 38.0582 13.6162   1
  16   5   6 38.7005 18.4686  -2
  16   5  11 38.7005 18.4686   1
  17   5   7 292.105 44.5413  -2
  17   5  11 292.105 44.5413   1
   8  -6  16 77.0390 34.5907  -2
  -8   6  11 77.0390 34.5907   1
   7  -6  15 73.0365 8.28566  -2
  -7   6  11 73.0365 8.28566   1
   6  -6  14 49.3336 7.07806  -2
  -6   6  11 49.3336 7.07806   1
   5  -6  13 57.8574 6.30266  -2
  -5   6  11 57.8574 6.30266   1
   4  -6  12 283.531 15.6149  -2
  -4   6  11 283.531 15.6149   1
   3  -6  11 110.807 10.0518  -2
  -3   6  11 110.807 10.0518   1
   2  -6  10 303.907 13.1700  -2
  -2   6  11 303.907 13.1700   1
  -1   6  11 1.94192 2.70866   1
   0   6  11 91.3659 4.74421   1
   1   6  11 82.7983 5.89586   1
  -2  -6   7 336.628 15.5336  -2
   2   6  11 336.628 15.5336   1
  -3  -6   6 142.090 7.60395  -2
   3   6  11 142.090 7.60395   1
  -4  -6   5 283.983 9.96661  -2
   4   6  11 283.983 9.96661   1
  -5  -6   4 676.331 18.5850  -2
   5   6  11 676.331 18.5850   1
  -6  -6   3 1126.81 29.7075  -2
   6   6  11 1126.81 29.7075   1
  -7  -6   2 538.339 18.6249  -2
   7   6  11 538.339 18.6249   1
  -8  -6   1 102.027 6.66547  -2
   8   6  11 102.027 6.66547   1
   9   6   0 313.809 12.5320  -2
   9   6  11 313.809 12.5320   1
  10   6   1 34.0003 10.4833  -2
  10   6  11 34.0003 10.4833   1
  11   6   2 67.7637 10.9426  -2
  11   6  11 67.7637 10.9426   1
  12   6   3 20.2289 11.5054  -2
  12   6  11 20.2289 11.5054   1
  13   6   4 904.025 46.5451  -2
  13   6  11 904.025 46.5451   1
  14   6   5 398.831 37.3119  -2
  14   6  11 398.831 37.3119   1
  15   6   6 69.8000 43.7265  -2
  15   6  11 69.8000 43.7265   1
  16   6  11 77.9927 11.0647   1
  17   6  11 23.9643 26.9564   1
   8  -7  16 11.8060 42.4473  -2
  -8   7  11 11.8060 42.4473   1
   7  -7  15 233.576 30.0415  -2
  -7   7  11 233.576 30.0415   1
   6  -7  14 91.5887 7.61808  -2
  -6   7  11 91.5887 7.61808   1
   5  -7  13 119.774 26.2312  -2
  -5   7  11 119.774 26.2312   1
   4  -7  12 43.2621 22.6340  -2
  -4   7  11 43.2621 22.6340   1
   3  -7  11 737.443 36.4849  -2
  -3   7  11 737.443 36.4849   1
   2  -7  10 15.3228 7.22017  -2
  -2   7  11 15.3228 7.22017   1
   1  -7   9 192.592 12.7545  -2
  -1   7  11 192.592 12.7545   1
   0  -7   8 99.1752 8.53295  -2
   0   7  11 99.1752 8.53295   1
  -1  -7   7 469.304 19.7323  -2
   1   7  11 469.304 19.7323   1
  -2  -7   6 230.292 16.1343  -2
   2   7  11 230.292 16.1343   1
  -3  -7   5 38.6240 11.9601  -2
   3   7  11 38.6240 11.9601   1
  -4  -7   4 47.1602 8.16647  -2
   4   7  11 47.1602 8.16647   1
   5   7  11 33.2074 4.51037   1
   6   7  11 937.689 27.3115   1
   7   7  11 120.797 6.26048   1
  -8  -7   1 170.886 11.1364  -2
   8   7  11 170.886 11.1364   1
   9   7   0 507.722 18.5713  -2
   9   7  11 507.722 18.5713   1
  10   7   1 626.875 23.2470  -2
  10   7  11 626.875 23.2470   1
  11   7   2 497.309 16.7665  -2
  11   7  11 497.309 16.7665   1
  12   7   3 34.3167 11.5988  -2
  12   7  11 34.3167 11.5988   1
  13   7   4 723.521 24.2506  -2
  13   7  11 723.521 24.2506   1
  14   7   5 91.1718 9.84435  -2
  14   7  11 91.1718 9.84435   1
  15   7   6 49.3682 17.0985  -2
  15   7  11 49.3682 17.0985   1
  16   7   7 62.1568 17.8108  -2
  16   7  11 62.1568 17.8108   1
   8  -8  15 59.5425 29.1630  -2
  -8   8  11 59.5425 29.1630   1
   7  -8  14 28.3692 32.4438  -2
  -7   8  11 28.3692 32.4438   1
   6  -8  13 134.321 25.2788  -2
  -6   8  11 134.321 25.2788   1
   5  -8  12 115.883 22.4619  -2
  -5   8  11 115.883 22.4619   1
  -4   8  11 1.31440 7.51880   1
  -3   8  11 89.8037 10.9024   1
  -2   8  11 440.047 19.5012   1
   1  -8   9 558.824 23.8911  -2
  -1   8  11 558.824 23.8911   1
   0  -8   8 367.172 17.2191  -2
   0   8  11 367.172 17.2191   1
  -1  -8   7 1441.89 53.2530  -2
   1   8  11 1441.89 53.2530   1
  -2  -8   6 376.437 16.9543  -2
   2   8  11 376.437 16.9543   1
  -3  -8   5 12.5784 3.45101  -2
   3   8  11 12.5784 3.45101   1
  -4  -8   4 1763.56 63.9924  -2
   4   8  11 1763.56 63.9924   1
  -5  -8   3 428.702 17.8558  -2
   5   8  11 428.702 17.8558   1
  -6  -8   2 73.6132 7.88969  -2
   6   8  11 73.6132 7.88969   1
  -7  -8   1 167.052 10.6583  -2
   7   8  11 167.052 10.6583   1
   8   8   0 1004.68 27.1277  -2
   8   8  11 1004.68 27.1277   1
   9   8   1 544.899 17.7967  -2
   9   8  11 544.899 17.7967   1
  10   8   2 1031.37 40.4390  -2
  10   8  11 1031.37 40.4390   1
  11   8   3 895.468 38.1856  -2
  11   8  11 895.468 38.1856   1
  12   8   4 4.27908 29.7111  -2
  12   8  11 4.27908 29.7111   1
  13   8   4 378.851 39.1220  -2
  13   8  11 378.851 39.1220   1
  14   8   5 73.0558 21.2095  -2
  14   8  11 73.0558 21.2095   1
  15   8   6 48.6323 24.0623  -2
  15   8  11 48.6323 24.0623   1
  16   8   7 120.208 19.8050  -2
  16   8  11 120.208 19.8050   1
   7  -9  14 188.966 27.4670  -2
  -7   9  11 188.966 27.4670   1
   6  -9  13 42.9305 20.0114  -2
  -6   9  11 42.9305 20.0114   1
   5  -9  12 40.2405 10.2165  -2
  -5   9  11 40.2405 10.2165   1
   4  -9  11 17.7758 10.5889  -2
  -4   9  11 17.7758 10.5889   1
   3  -9  10 434.784 24.2791  -2
  -3   9  11 434.784 24.2791   1
   2  -9   9 577.579 24.1646  -2
  -2   9  11 577.579 24.1646   1
   1  -9   8 343.523 17.2513  -2
  -1   9  11 343.523 17.2513   1
   0  -9   7 22.4762 9.40153  -2
   0   9  11 22.4762 9.40153   1
  -1  -9   6 505.962 21.2604  -2
   1   9  11 505.962 21.2604   1
  -2  -9   5 298.434 27.1260  -2
   2   9  11 298.434 27.1260   1
   3   9  11 197.393 7.46476   1
   4   9  11 187.346 9.39715   1
  -5  -9   3 224.813 26.0823  -2
   5   9  11 224.813 26.0823   1
  -6  -9   2 307.084 21.2210  -2
   6   9  11 307.084 21.2210   1
  -7  -9   1 46.1964 15.8135  -2
   7   9  11 46.1964 15.8135   1
   8   9   0 879.096 35.7852  -2
   8   9  11 879.096 35.7852   1
   9   9   1 41.5618 24.2546  -2
   9   9  11 41.5618 24.2546   1
  10   9   2 30.0854 6.49271  -2
  10   9  11 30.0854 6.49271   1
  11   9   3 36.8227 6.82007  -2
  11   9  11 36.8227 6.82007   1
  12   9   4 51.1993 9.38885  -2
  12   9  11 51.1993 9.38885   1
  13   9   5 392.963 19.4317  -2
  13   9  11 392.963 19.4317   1
  14   9   6 139.453 17.3315  -2
  14   9  11 139.453 17.3315   1
  15   9   7 186.271 22.6652  -2
  15   9  11 186.271 22.6652   1
  -7  10  11 82.0830 11.6569   1
  -6  10  11 105.227 11.3540   1
  -5  10  11 -3.1888 6.94285   1
   4 -10  11 16.7822 20.0149  -2
  -4  10  11 16.7822 20.0149   1
   3 -10  10 323.085 32.6784  -2
  -3  10  11 323.085 32.6784   1
   2 -10   9 92.4061 15.0007  -2
  -2  10  11 92.4061 15.0007   1
   1 -10   8 186.560 12.9679  -2
  -1  10  11 186.560 12.9679   1
   0 -10   7 255.992 13.3152  -2
   0  10  11 255.992 13.3152   1
  -1 -10   6 256.907 10.1953  -2
   1  10  11 256.907 10.1953   1
  -2 -10   5 5.18321 4.62257  -2
   2  10  11 5.18321 4.62257   1
  -3 -10   4 271.583 10.8606  -2
   3  10  11 271.583 10.8606   1
  -4 -10   3 18.3007 7.05676  -2
   4  10  11 18.3007 7.05676   1
  -5 -10   2 882.121 42.4551  -2
   5  10  11 882.121 42.4551   1
  -6 -10   1 54.7647 11.7720  -2
   6  10  11 54.7647 11.7720   1
   7  10   0 29.0957 16.9286  -2
   7  10  11 29.0957 16.9286   1
   8  10  11 37.8895 8.48150   1
   9  10   2 55.2972 28.0647  -2
   9  10  11 55.2972 28.0647   1
  10  10   3 164.764 36.2720  -2
  10  10  11 164.764 36.2720   1
  11  10  11 49.4769 5.29523   1
  12  10   4 100.375 24.0957  -2
  12  10  11 100.375 24.0957   1
  13  10   5 138.251 15.1853  -2
  13  10  11 138.251 15.1853   1
  14  10   6 173.721 22.0147  -2
  14  10  11 173.721 22.0147   1
   6 -11  12 60.1944 21.6150  -2
  -6  11  11 60.1944 21.6150   1
   5 -11  11 14.0446 14.8489  -2
  -5  11  11 14.0446 14.8489   1
   4 -11  10 6.39049 16.4988  -2
  -4  11  11 6.39049 16.4988   1
   3 -11   9 139.057 17.0687  -2
  -3  11  11 139.057 17.0687   1
   2 -11   8 351.703 19.2466  -2
  -2  11  11 351.703 19.2466   1
   1 -11   7 73.2842 16.0214  -2
  -1  11  11 73.2842 16.0214   1
   0  11  11 180.015 9.37932   1
   1  11  11 62.6188 4.68778   1
  -2 -11   5 58.3726 21.0597  -2
   2  11  11 58.3726 21.0597   1
  -3 -11   4 477.108 24.2432  -2
   3  11  11 477.108 24.2432   1
  -4 -11   3 171.054 11.5949  -2
   4  11  11 171.054 11.5949   1
  -5 -11   2 33.8486 12.4184  -2
   5  11  11 33.8486 12.4184   1
  -6 -11   1 352.279 22.0160  -2
   6  11  11 352.279 22.0160   1
   7  11   0 785.711 39.4973  -2
   7  11  11 785.711 39.4973   1
   8  11   1 201.942 18.8339  -2
   8  11  11 201.942 18.8339   1
   9  11   2 962.060 38.2825  -2
   9  11  11 962.060 38.2825   1
  10  11   3 653.912 36.7559  -2
  10  11  11 653.912 36.7559   1
  11  11   4 175.622 21.9788  -2
  11  11  11 175.622 21.9788   1
  12  11   5 633.059 38.2542  -2
  12  11  11 633.059 38.2542   1
  13  11   6 84.2030 23.5761  -2
  13  11  11 84.2030 23.5761   1
  14  11   7 255.114 34.3567  -2
  14  11  11 255.114 34.3567   1
  -6  12  11 36.8169 9.32225   1
   5 -12  11 14.6131 18.9576  -2
  -5  12  11 14.6131 18.9576   1
   4 -12  10 -17.458 17.3271  -2
  -4  12  11 -17.458 17.3271   1
   3 -12   9 430.319 21.5022  -2
  -3  12  11 430.319 21.5022   1
   2 -12   8 113.801 8.82738  -2
  -2  12  11 113.801 8.82738   1
   1 -12   7 148.735 9.78779  -2
  -1  12  11 148.735 9.78779   1
   0 -12   6 21.1220 6.23169  -2
   0  12  11 21.1220 6.23169   1
  -1 -12   5 178.488 9.90744  -2
   1  12  11 178.488 9.90744   1
  -2 -12   4 221.582 10.4336  -2
   2  12  11 221.582 10.4336   1
  -3 -12   3 281.717 12.4846  -2
   3  12  11 281.717 12.4846   1
  -4 -12   2 272.671 12.5705  -2
   4  12  11 272.671 12.5705   1
  -5 -12   1 150.652 21.8741  -2
   5  12  11 150.652 21.8741   1
   6  12  11 499.887 26.1434   1
   7  12  11 340.191 18.3219   1
   8  12  11 -4.5660 7.14284   1
   9  12   2 50.9770 37.8856  -2
   9  12  11 50.9770 37.8856   1
  10  12   3 68.4443 22.0942  -2
  10  12  11 68.4443 22.0942   1
  11  12   4 782.785 45.0204  -2
  11  12  11 782.785 45.0204   1
  12  12   5 171.448 27.1709  -2
  12  12  11 171.448 27.1709   1
  13  12   6 47.7872 19.8378  -2
  13  12  11 47.7872 19.8378   1
   5 -13  10 432.699 41.3902  -2
  -5  13  11 432.699 41.3902   1
   4 -13   9 0.16538 20.9013  -2
  -4  13  11 0.16538 20.9013   1
  -3  13  11 29.7004 5.17087   1
  -2  13  11 -4.7771 4.23933   1
   1 -13   7 336.327 32.0996  -2
  -1  13  11 336.327 32.0996   1
   0 -13   6 241.330 13.7505  -2
   0  13  11 241.330 13.7505   1
  -1 -13   5 190.533 12.7648  -2
   1  13  11 190.533 12.7648   1
  -2 -13   4 1358.09 50.9540  -2
   2  13  11 1358.09 50.9540   1
  -3 -13   3 1198.13 38.5757  -2
   3  13  11 1198.13 38.5757   1
  -4 -13   2 69.3475 8.15378  -2
   4  13  11 69.3475 8.15378   1
  -5 -13   1 79.6969 8.63964  -2
   5  13  11 79.6969 8.63964   1
   6  13   0 372.521 18.2863  -2
   6  13  11 372.521 18.2863   1
   7  13   1 -20.532 13.6761  -2
   7  13  11 -20.532 13.6761   1
   9  13   3 108.273 20.3328  -2
   9  13  11 108.273 20.3328   1
  10  13   4 741.849 43.7752  -2
  10  13  11 741.849 43.7752   1
  11  13   5 150.571 22.5586  -2
  11  13  11 150.571 22.5586   1
  12  13   6 69.3099 28.5163  -2
  12  13  11 69.3099 28.5163   1
   4 -14   9 -30.603 21.8835  -2
  -4  14  11 -30.603 21.8835   1
   3 -14   8 42.2414 15.2979  -2
  -3  14  11 42.2414 15.2979   1
   2 -14   7 235.874 14.4780  -2
  -2  14  11 235.874 14.4780   1
   1 -14   6 47.4371 8.53296  -2
  -1  14  11 47.4371 8.53296   1
   0 -14   5 156.936 9.88937  -2
   0  14  11 156.936 9.88937   1
  -1 -14   4 117.560 8.99998  -2
   1  14  11 117.560 8.99998   1
  -2 -14   3 -2.6057 8.76339  -2
   2  14  11 -2.6057 8.76339   1
  -3 -14   2 254.059 21.0640  -2
   3  14  11 254.059 21.0640   1
   4  14  11 8.84121 4.42500   1
   5  14  11 46.7800 5.60669   1
   6  14  11 192.307 13.1029   1
   7  14   1 334.797 32.8182  -2
   7  14  11 334.797 32.8182   1
   9  14   3 -14.043 25.3105  -2
   9  14  11 -14.043 25.3105   1
  10  14   4 49.9987 21.6556  -2
  10  14  11 49.9987 21.6556   1
  11  14   5 83.0719 24.4835  -2
  11  14  11 83.0719 24.4835   1
   2 -15   7 312.104 36.6664  -2
  -2  15  11 312.104 36.6664   1
   1 -15   6 196.349 32.8369  -2
  -1  15  11 196.349 32.8369   1
   0 -15   5 165.070 17.9435  -2
   0  15  11 165.070 17.9435   1
  -1 -15   4 -7.4667 9.01316  -2
   1  15  11 -7.4667 9.01316   1
  -2 -15   3 68.5704 9.05581  -2
   2  15  11 68.5704 9.05581   1
  -3 -15   2 90.1281 9.94442  -2
   3  15  11 90.1281 9.94442   1
  -4 -15   1 61.0448 8.31021  -2
   4  15  11 61.0448 8.31021   1
   5  15   0 44.6832 14.5956  -2
   5  15  11 44.6832 14.5956   1
   6  15   1 613.640 45.7156  -2
   6  15  11 613.640 45.7156   1
   7  15   2 118.517 25.9523  -2
   7  15  11 118.517 25.9523   1
   8  15   3 -9.0603 27.2460  -2
   8  15  11 -9.0603 27.2460   1
   9  15   4 161.094 25.5403  -2
   9  15  11 161.094 25.5403   1
   0 -16   4 8.87095 18.2481  -2
   0  16  11 8.87095 18.2481   1
   1  16  11 68.9460 10.6464   1
  -2 -16   3 497.860 39.6595  -2
   2  16  11 497.860 39.6595   1
  -4 -16   1 72.0449 19.8277  -2
   4  16  11 72.0449 19.8277   1
   5  16   0 171.980 27.3075  -2
   5  16  11 171.980 27.3075   1
   7  16   2 193.350 32.6415  -2
   7  16  11 193.350 32.6415   1
   2 -11  12 1.33580 11.8368   1
  -3  11  14 172.987 21.5753  -2
   3 -11  12 172.987 21.5753   1
  -4  11  13 91.0287 16.8919  -2
   4 -11  12 91.0287 16.8919   1
  -5  11  12 285.281 16.4466  -2
   5 -11  12 285.281 16.4466   1
  -6  11  11 19.1503 12.2975  -2
   6 -11  12 19.1503 12.2975   1
  -7  11  10 73.1322 10.3491  -2
   7 -11  12 73.1322 10.3491   1
  -8  11   9 47.6727 11.9849  -2
   8 -11  12 47.6727 11.9849   1
  -9  11   8 242.372 21.1316  -2
   9 -11  12 242.372 21.1316   1
 -10  11   7 111.014 31.5320  -2
  10 -11  12 111.014 31.5320   1
   0  10  16 31.2701 21.0867  -2
   0 -10  12 31.2701 21.0867   1
  -1  10  15 37.7966 17.6118  -2
   1 -10  12 37.7966 17.6118   1
  -2  10  14 -2.3947 16.1743  -2
   2 -10  12 -2.3947 16.1743   1
  -3  10  13 141.230 15.9999  -2
   3 -10  12 141.230 15.9999   1
  -4  10  12 340.456 20.8000  -2
   4 -10  12 340.456 20.8000   1
  -5  10  11 8.36341 32.6155  -2
   5 -10  12 8.36341 32.6155   1
   6 -10  12 78.2661 7.99342   1
  -7  10  10 174.448 19.8126  -2
   7 -10  12 174.448 19.8126   1
  -8  10   9 283.531 20.6352  -2
   8 -10  12 283.531 20.6352   1
  -9  10   8 170.872 19.2886  -2
   9 -10  12 170.872 19.2886   1
 -10  10   7 77.3341 17.0682  -2
  10 -10  12 77.3341 17.0682   1
 -11  10   6 55.5821 19.5866  -2
  11 -10  12 55.5821 19.5866   1
  12 -10  12 107.074 14.8182   1
   1   9  17 51.8613 25.9793  -2
  -1  -9  12 51.8613 25.9793   1
   0   9  16 111.573 20.6023  -2
   0  -9  12 111.573 20.6023   1
  -1   9  15 31.6025 15.1049  -2
   1  -9  12 31.6025 15.1049   1
  -2   9  14 8.73687 12.4422  -2
   2  -9  12 8.73687 12.4422   1
  -3   9  13 121.179 12.2958  -2
   3  -9  12 121.179 12.2958   1
  -4   9  12 75.9732 10.7287  -2
   4  -9  12 75.9732 10.7287   1
  -5   9  11 22.1491 9.75232  -2
   5  -9  12 22.1491 9.75232   1
  -6   9  10 9.79180 10.5094  -2
   6  -9  12 9.79180 10.5094   1
  -7   9   9 49.2177 12.9543  -2
   7  -9  12 49.2177 12.9543   1
  -8   9   8 203.305 17.0478  -2
   8  -9  12 203.305 17.0478   1
  -9   9   7 64.9418 17.1752  -2
   9  -9  12 64.9418 17.1752   1
 -10   9   6 76.5392 18.6804  -2
  10  -9  12 76.5392 18.6804   1
 -11   9   5 308.566 34.7369  -2
  11  -9  12 308.566 34.7369   1
 -12   9   4 134.760 40.2625  -2
  12  -9  12 134.760 40.2625   1
  13  -9  12 -0.3234 13.6074   1
   2   8  17 117.185 22.7307  -2
  -2  -8  12 117.185 22.7307   1
   1   8  16 -23.139 21.5884  -2
  -1  -8  12 -23.139 21.5884   1
   0   8  15 215.794 19.0238  -2
   0  -8  12 215.794 19.0238   1
  -1   8  14 120.994 17.1591  -2
   1  -8  12 120.994 17.1591   1
  -2   8  13 -7.9258 35.1544  -2
   2  -8  12 -7.9258 35.1544   1
   3  -8  12 129.609 8.76971   1
  -4   8  12 -15.766 33.5599  -2
   4  -8  12 -15.766 33.5599   1
  -5   8  11 117.791 13.0092  -2
   5  -8  12 117.791 13.0092   1
  -6   8  10 105.735 12.6951  -2
   6  -8  12 105.735 12.6951   1
  -7   8   9 478.517 20.2277  -2
   7  -8  12 478.517 20.2277   1
  -8   8   8 144.413 13.4492  -2
   8  -8  12 144.413 13.4492   1
  -9   8   7 50.8824 10.9357  -2
   9  -8  12 50.8824 10.9357   1
 -10   8   6 87.0980 10.6619  -2
  10  -8  12 87.0980 10.6619   1
 -11   8   5 242.428 14.0242  -2
  11  -8  12 242.428 14.0242   1
 -12   8   4 72.5315 14.8178  -2
  12  -8  12 72.5315 14.8178   1
 -13   8   3 31.6808 20.2343  -2
  13  -8  12 31.6808 20.2343   1
 -14   8   2 53.1276 26.9186  -2
  14  -8  12 53.1276 26.9186   1
   3   7  18 116.378 25.3888  -2
  -3  -7  12 116.378 25.3888   1
   2   7  17 4.40034 18.5261  -2
  -2  -7  12 4.40034 18.5261   1
   1   7  16 264.741 20.2141  -2
  -1  -7  12 264.741 20.2141   1
   0   7  15 287.472 17.3426  -2
   0  -7  12 287.472 17.3426   1
  -1   7  14 7.77046 8.64294  -2
   1  -7  12 7.77046 8.64294   1
  -2   7  13 20.6259 8.62254  -2
   2  -7  12 20.6259 8.62254   1
  -3   7  12 109.721 9.69545  -2
   3  -7  12 109.721 9.69545   1
  -4   7  11 55.6881 9.85536  -2
   4  -7  12 55.6881 9.85536   1
  -5   7  10 133.071 12.6082  -2
   5  -7  12 133.071 12.6082   1
  -6   7   9 94.3750 12.9651  -2
   6  -7  12 94.3750 12.9651   1
  -7   7   8 33.2564 14.4933  -2
   7  -7  12 33.2564 14.4933   1
  -8   7   7 32.4543 13.4979  -2
   8  -7  12 32.4543 13.4979   1
   9  -7  12 69.4259 6.64571   1
  10  -7  12 71.5891 6.90263   1
 -11   7   5 69.9600 15.8531  -2
  11  -7  12 69.9600 15.8531   1
 -12   7   4 532.826 22.7813  -2
  12  -7  12 532.826 22.7813   1
 -13   7   3 52.2169 18.7430  -2
  13  -7  12 52.2169 18.7430   1
 -14   7   2 233.842 27.4389  -2
  14  -7  12 233.842 27.4389   1
   4   6  18 264.604 22.8174  -2
  -4  -6  12 264.604 22.8174   1
   3   6  17 -10.648 18.9172  -2
  -3  -6  12 -10.648 18.9172   1
   2   6  16 36.8822 18.5097  -2
  -2  -6  12 36.8822 18.5097   1
   1   6  15 206.065 20.1656  -2
  -1  -6  12 206.065 20.1656   1
   0  -6  12 32.1963 6.55034   1
  -1   6  14 189.381 34.7433  -2
   1  -6  12 189.381 34.7433   1
  -2   6  13 33.2548 13.3214  -2
   2  -6  12 33.2548 13.3214   1
  -3   6  12 146.759 13.3938  -2
   3  -6  12 146.759 13.3938   1
  -4   6  11 382.994 17.4808  -2
   4  -6  12 382.994 17.4808   1
  -5   6  10 620.456 22.3331  -2
   5  -6  12 620.456 22.3331   1
  -6   6   9 6.27862 9.99682  -2
   6  -6  12 6.27862 9.99682   1
  -7   6   8 488.100 18.1032  -2
   7  -6  12 488.100 18.1032   1
  -8   6   7 412.922 14.6490  -2
   8  -6  12 412.922 14.6490   1
  -9   6   6 53.4183 8.74890  -2
   9  -6  12 53.4183 8.74890   1
 -10   6   5 666.972 21.3604  -2
  10  -6  12 666.972 21.3604   1
 -11   6   4 493.680 18.6524  -2
  11  -6  12 493.680 18.6524   1
 -12   6   3 890.640 27.5357  -2
  12  -6  12 890.640 27.5357   1
 -13   6   2 7.96049 16.6691  -2
  13  -6  12 7.96049 16.6691   1
 -14   6   1 590.070 32.3533  -2
  14  -6  12 590.070 32.3533   1
 -15   6   0 169.106 40.5830  -2
  15  -6  12 169.106 40.5830   1
   5   5  19 47.7363 28.1886  -2
  -5  -5  12 47.7363 28.1886   1
   4   5  18 252.471 20.8555  -2
  -4  -5  12 252.471 20.8555   1
   3   5  17 27.8000 15.1745  -2
  -3  -5  12 27.8000 15.1745   1
   2   5  16 37.6965 11.3022  -2
  -2  -5  12 37.6965 11.3022   1
   1   5  15 83.0733 13.3516  -2
  -1  -5  12 83.0733 13.3516   1
   0   5  14 34.2986 9.68614  -2
   0  -5  12 34.2986 9.68614   1
  -1   5  13 112.299 10.9244  -2
   1  -5  12 112.299 10.9244   1
  -2   5  12 27.7050 8.29310  -2
   2  -5  12 27.7050 8.29310   1
  -3   5  11 47.3193 8.78955  -2
   3  -5  12 47.3193 8.78955   1
  -4   5  10 215.811 11.5556  -2
   4  -5  12 215.811 11.5556   1
  -5   5   9 115.298 14.2112  -2
   5  -5  12 115.298 14.2112   1
   6  -5  12 40.7132 5.29791   1
   7  -5  12 84.2987 6.12738   1
  -8   5   7 404.272 21.0712  -2
   8  -5  12 404.272 21.0712   1
  -9   5   6 122.553 12.8874  -2
   9  -5  12 122.553 12.8874   1
 -10   5   5 150.496 12.5335  -2
  10  -5  12 150.496 12.5335   1
 -11   5   4 124.464 12.1788  -2
  11  -5  12 124.464 12.1788   1
 -12   5   3 135.960 12.3251  -2
  12  -5  12 135.960 12.3251   1
 -13   5   2 99.9208 11.6685  -2
  13  -5  12 99.9208 11.6685   1
 -14   5   1 132.983 13.0382  -2
  14  -5  12 132.983 13.0382   1
 -15   5   0 183.077 20.4026  -2
  15  -5  12 183.077 20.4026   1
  16  -5   1 97.3302 22.7348  -2
  16  -5  12 97.3302 22.7348   1
   5   4  18 53.2600 30.7063  -2
  -5  -4  12 53.2600 30.7063   1
   4   4  17 -40.890 29.1184  -2
  -4  -4  12 -40.890 29.1184   1
  -3  -4  12 352.699 17.8875   1
  -2  -4  12 119.809 8.35048   1
   1   4  15 178.286 17.6030  -2
  -1  -4  12 178.286 17.6030   1
   0   4  14 879.573 29.3427  -2
   0  -4  12 879.573 29.3427   1
  -1   4  13 21.7513 11.1620  -2
   1  -4  12 21.7513 11.1620   1
  -2   4  12 198.522 10.3531  -2
   2  -4  12 198.522 10.3531   1
  -3   4  11 339.820 12.4781  -2
   3  -4  12 339.820 12.4781   1
  -4   4  10 132.726 8.29905  -2
   4  -4  12 132.726 8.29905   1
  -5   4   9 221.010 10.6995  -2
   5  -4  12 221.010 10.6995   1
  -6   4   8 20.0420 5.69445  -2
   6  -4  12 20.0420 5.69445   1
  -7   4   7 128.619 8.85699  -2
   7  -4  12 128.619 8.85699   1
  -8   4   6 279.713 12.1699  -2
   8  -4  12 279.713 12.1699   1
  -9   4   5 919.971 29.8164  -2
   9  -4  12 919.971 29.8164   1
 -10   4   4 80.1521 12.2330  -2
  10  -4  12 80.1521 12.2330   1
 -11   4   3 2.03700 13.9607  -2
  11  -4  12 2.03700 13.9607   1
 -12   4   2 497.065 34.9748  -2
  12  -4  12 497.065 34.9748   1
 -13   4   1 82.8800 38.4170  -2
  13  -4  12 82.8800 38.4170   1
  14  -4  12 0.80006 7.23362   1
 -15   4   0 60.5755 25.7266  -2
  15  -4  12 60.5755 25.7266   1
  16  -4   1 49.4829 34.8219  -2
  16  -4  12 49.4829 34.8219   1
   5   3  18 19.6935 22.5662  -2
  -5  -3  12 19.6935 22.5662   1
   4   3  17 -34.260 11.7432  -2
  -4  -3  12 -34.260 11.7432   1
   3   3  16 263.477 15.0443  -2
  -3  -3  12 263.477 15.0443   1
   2   3  15 144.430 12.2736  -2
  -2  -3  12 144.430 12.2736   1
   1   3  14 666.318 22.8819  -2
  -1  -3  12 666.318 22.8819   1
   0   3  13 124.944 11.3119  -2
   0  -3  12 124.944 11.3119   1
  -1   3  12 313.190 14.6038  -2
   1  -3  12 313.190 14.6038   1
  -2   3  11 38.0754 7.66903  -2
   2  -3  12 38.0754 7.66903   1
  -3   3  10 194.212 29.0400  -2
   3  -3  12 194.212 29.0400   1
   4  -3  12 49.2372 4.71064   1
  -5   3   9 20.3458 16.0960  -2
   5  -3  12 20.3458 16.0960   1
  -6   3   8 330.183 14.1693  -2
   6  -3  12 330.183 14.1693   1
  -7   3   7 27.7279 10.4062  -2
   7  -3  12 27.7279 10.4062   1
  -8   3   6 192.893 11.1368  -2
   8  -3  12 192.893 11.1368   1
  -9   3   5 300.182 12.8719  -2
   9  -3  12 300.182 12.8719   1
 -10   3   4 7.38166 9.94461  -2
  10  -3  12 7.38166 9.94461   1
 -11   3   3 207.098 10.9914  -2
  11  -3  12 207.098 10.9914   1
 -12   3   2 121.208 9.95271  -2
  12  -3  12 121.208 9.95271   1
 -13   3   1 58.5311 10.4922  -2
  13  -3  12 58.5311 10.4922   1
 -14   3   0 506.997 18.6553  -2
  14  -3  12 506.997 18.6553   1
  15  -3   1 1.11995 15.6315  -2
  15  -3  12 1.11995 15.6315   1
  16  -3   2 354.570 44.8638  -2
  16  -3  12 354.570 44.8638   1
   6   2  18 -39.757 40.5462  -2
  -6  -2  12 -39.757 40.5462   1
  -5  -2  12 -3.0245 11.8496   1
   4   2  17 152.584 18.2521  -2
  -4  -2  12 152.584 18.2521   1
   3   2  16 87.7578 13.6785  -2
  -3  -2  12 87.7578 13.6785   1
   2   2  15 164.294 12.8279  -2
  -2  -2  12 164.294 12.8279   1
   1   2  14 93.4327 11.0689  -2
  -1  -2  12 93.4327 11.0689   1
   0   2  13 263.423 12.8632  -2
   0  -2  12 263.423 12.8632   1
  -1   2  12 97.2467 9.10083  -2
   1  -2  12 97.2467 9.10083   1
  -2   2  11 203.037 10.0856  -2
   2  -2  12 203.037 10.0856   1
  -3   2  10 83.9442 5.79404  -2
   3  -2  12 83.9442 5.79404   1
  -4   2   9 465.960 15.7159  -2
   4  -2  12 465.960 15.7159   1
  -5   2   8 188.265 12.0073  -2
   5  -2  12 188.265 12.0073   1
  -6   2   7 34.8541 8.44164  -2
   6  -2  12 34.8541 8.44164   1
  -7   2   6 180.427 11.7962  -2
   7  -2  12 180.427 11.7962   1
  -8   2   5 12.7101 10.5253  -2
   8  -2  12 12.7101 10.5253   1
  -9   2   4 142.010 16.9503  -2
   9  -2  12 142.010 16.9503   1
  10  -2  12 57.1513 5.98762   1
  11  -2  12 58.4667 6.22825   1
 -12   2   2 180.885 18.2891  -2
  12  -2  12 180.885 18.2891   1
 -13   2   1 1433.85 43.8159  -2
  13  -2  12 1433.85 43.8159   1
 -14   2   0 224.987 15.0998  -2
  14  -2  12 224.987 15.0998   1
  15  -2   1 43.4871 21.2084  -2
  15  -2  12 43.4871 21.2084   1
  17  -2   3 305.203 35.0416  -2
  17  -2  12 305.203 35.0416   1
   7   1  19 13.6807 31.6844  -2
  -7  -1  12 13.6807 31.6844   1
   6   1  18 84.6939 9.34672  -2
  -6  -1  12 84.6939 9.34672   1
   5   1  17 54.6502 21.3323  -2
  -5  -1  12 54.6502 21.3323   1
   4   1  16 325.741 19.6545  -2
  -4  -1  12 325.741 19.6545   1
   3   1  15 -7.6507 11.2784  -2
  -3  -1  12 -7.6507 11.2784   1
   2   1  14 90.9248 11.0144  -2
  -2  -1  12 90.9248 11.0144   1
   1   1  13 348.617 15.3863  -2
  -1  -1  12 348.617 15.3863   1
   0   1  12 184.096 17.5577  -2
   0  -1  12 184.096 17.5577   1
   1  -1  12 266.493 12.3707   1
   2  -1  12 5.16000 3.92339   1
  -3   1  10 112.116 14.2413  -2
   3  -1  12 112.116 14.2413   1
  -4   1   9 46.0387 6.34530  -2
   4  -1  12 46.0387 6.34530   1
  -5   1   8 894.710 30.9616  -2
   5  -1  12 894.710 30.9616   1
  -6   1   7 158.494 9.33331  -2
   6  -1  12 158.494 9.33331   1
  -7   1   6 24.2966 7.21394  -2
   7  -1  12 24.2966 7.21394   1
  -8   1   5 2984.52 83.5385  -2
   8  -1  12 2984.52 83.5385   1
  -9   1   4 131.381 9.48280  -2
   9  -1  12 131.381 9.48280   1
 -10   1   3 231.296 10.7404  -2
  10  -1  12 231.296 10.7404   1
 -11   1   2 182.163 12.2407  -2
  11  -1  12 182.163 12.2407   1
 -12   1   1 249.847 12.7416  -2
  12  -1  12 249.847 12.7416   1
 -13   1   0 44.5684 13.1015  -2
  13  -1  12 44.5684 13.1015   1
  14  -1   1 -25.276 18.3841  -2
  14  -1  12 -25.276 18.3841   1
  15  -1   2 46.3269 23.3835  -2
  15  -1  12 46.3269 23.3835   1
  16  -1   3 52.4990 42.4270  -2
  16  -1  12 52.4990 42.4270   1
  17  -1  12 148.432 20.3755   1
  -7   0  12 11.0551 13.6833   1
   6   0  18 -12.605 24.8356  -2
  -6   0  12 -12.605 24.8356   1
   5   0  17 351.769 21.8906  -2
  -5   0  12 351.769 21.8906   1
   4   0  16 189.481 18.4339  -2
  -4   0  12 189.481 18.4339   1
   3   0  15 257.567 13.3662  -2
  -3   0  12 257.567 13.3662   1
   2   0  14 160.189 10.1739  -2
  -2   0  12 160.189 10.1739   1
   1   0  13 313.533 16.1625  -2
  -1   0  12 313.533 16.1625   1
   0   0  12 1860.58 53.2187  -2
   0   0  12 1860.58 53.2187   1
  -1   0  11 410.994 16.0841  -2
   1   0  12 410.994 16.0841   1
  -2   0  10 175.615 9.96182  -2
   2   0  12 175.615 9.96182   1
  -3   0   9 473.804 17.6380  -2
   3   0  12 473.804 17.6380   1
  -4   0   8 313.569 13.6032  -2
   4   0  12 313.569 13.6032   1
  -5   0   7 871.530 26.3627  -2
   5   0  12 871.530 26.3627   1
  -6   0   6 364.704 16.8056  -2
   6   0  12 364.704 16.8056   1
   7   0  12 3.61582 4.25366   1
   8   0  12 -1.1645 4.15825   1
  -9   0   4 749.192 51.0646  -2
   9   0  12 749.192 51.0646   1
 -10   0   3 64.7362 14.6076  -2
  10   0  12 64.7362 14.6076   1
 -11   0   2 25.9687 11.6981  -2
  11   0  12 25.9687 11.6981   1
 -12   0   1 468.027 19.2090  -2
  12   0  12 468.027 19.2090   1
  13   0   0 34.3808 11.8293  -2
  13   0  12 34.3808 11.8293   1
  14   0   1 172.539 12.1118  -2
  14   0  12 172.539 12.1118   1
  15   0   2 264.203 14.8766  -2
  15   0  12 264.203 14.8766   1
  16   0   3 36.8542 16.1032  -2
  16   0  12 36.8542 16.1032   1
  17   0   4 46.1384 35.2185  -2
  17   0  12 46.1384 35.2185   1
   7  -1  18 7.18819 21.8786  -2
  -7   1  12 7.18819 21.8786   1
   6  -1  17 405.328 17.5641  -2
  -6   1  12 405.328 17.5641   1
   5  -1  16 9.26480 6.72950  -2
  -5   1  12 9.26480 6.72950   1
   4  -1  15 485.165 21.2424  -2
  -4   1  12 485.165 21.2424   1
   3  -1  14 550.971 20.8260  -2
  -3   1  12 550.971 20.8260   1
   2  -1  13 105.284 12.3987  -2
  -2   1  12 105.284 12.3987   1
  -1   1  12 91.3996 5.74729   1
   0  -1  12 205.481 12.7051  -2
   0   1  12 205.481 12.7051   1
  -1  -1  11 1194.20 39.2584  -2
   1   1  12 1194.20 39.2584   1
  -2  -1  10 131.371 9.46935  -2
   2   1  12 131.371 9.46935   1
  -3  -1   9 267.734 16.8657  -2
   3   1  12 267.734 16.8657   1
  -4  -1   8 1578.80 50.4877  -2
   4   1  12 1578.80 50.4877   1
  -5  -1   7 214.721 9.03861  -2
   5   1  12 214.721 9.03861   1
  -6  -1   6 228.977 9.26658  -2
   6   1  12 228.977 9.26658   1
  -7  -1   5 165.350 8.40009  -2
   7   1  12 165.350 8.40009   1
  -8  -1   4 319.832 12.3418  -2
   8   1  12 319.832 12.3418   1
  -9  -1   3 181.650 10.4881  -2
   9   1  12 181.650 10.4881   1
 -10  -1   2 268.772 14.9661  -2
  10   1  12 268.772 14.9661   1
 -11  -1   1 34.2492 10.2300  -2
  11   1  12 34.2492 10.2300   1
  12   1   0 466.436 29.0744  -2
  12   1  12 466.436 29.0744   1
  13   1   1 945.974 48.1717  -2
  13   1  12 945.974 48.1717   1
  14   1  12 15.1595 6.93252   1
  15   1   2 47.4944 28.1748  -2
  15   1  12 47.4944 28.1748   1
  16   1   3 136.141 49.4666  -2
  16   1  12 136.141 49.4666   1
  17   1   4 261.155 48.9211  -2
  17   1  12 261.155 48.9211   1
   7  -2  18 171.888 24.5873  -2
  -7   2  12 171.888 24.5873   1
   6  -2  17 115.371 9.14822  -2
  -6   2  12 115.371 9.14822   1
   5  -2  16 32.1208 5.56703  -2
  -5   2  12 32.1208 5.56703   1
   4  -2  15 299.378 14.8493  -2
  -4   2  12 299.378 14.8493   1
   3  -2  14 54.6472 5.26787  -2
  -3   2  12 54.6472 5.26787   1
   2  -2  13 -3.9806 3.61352  -2
  -2   2  12 -3.9806 3.61352   1
   1  -2  12 88.3761 12.8585  -2
  -1   2  12 88.3761 12.8585   1
   0  -2  11 76.6814 14.9083  -2
   0   2  12 76.6814 14.9083   1
  -1  -2  10 304.730 14.8437  -2
   1   2  12 304.730 14.8437   1
  -2  -2   9 61.9918 10.3374  -2
   2   2  12 61.9918 10.3374   1
  -3  -2   8 72.2127 6.95676  -2
   3   2  12 72.2127 6.95676   1
  -4  -2   7 81.3965 19.9193  -2
   4   2  12 81.3965 19.9193   1
   5   2  12 853.391 21.3225   1
   6   2  12 241.239 9.13124   1
  -7  -2   5 301.215 16.4376  -2
   7   2  12 301.215 16.4376   1
  -8  -2   4 313.882 15.5863  -2
   8   2  12 313.882 15.5863   1
  -9  -2   3 185.509 10.4420  -2
   9   2  12 185.509 10.4420   1
 -10  -2   2 287.197 12.0717  -2
  10   2  12 287.197 12.0717   1
 -11  -2   1 326.377 15.3758  -2
  11   2  12 326.377 15.3758   1
  12   2   0 6.86145 10.4962  -2
  12   2  12 6.86145 10.4962   1
  13   2   1 93.2876 10.4569  -2
  13   2  12 93.2876 10.4569   1
  14   2   2 786.567 26.6491  -2
  14   2  12 786.567 26.6491   1
  15   2   3 91.8780 14.8872  -2
  15   2  12 91.8780 14.8872   1
  16   2   4 194.032 28.1815  -2
  16   2  12 194.032 28.1815   1
  17   2   5 445.504 55.6970  -2
  17   2  12 445.504 55.6970   1
   7  -3  17 35.0641 24.2224  -2
  -7   3  12 35.0641 24.2224   1
   6  -3  16 68.1146 12.5448  -2
  -6   3  12 68.1146 12.5448   1
   5  -3  15 23.2878 13.5666  -2
  -5   3  12 23.2878 13.5666   1
  -4   3  12 -7.4513 6.36364   1
   3  -3  14 291.436 24.1589  -2
  -3   3  12 291.436 24.1589   1
   2  -3  13 454.423 23.7752  -2
  -2   3  12 454.423 23.7752   1
   1  -3  12 251.891 15.9250  -2
  -1   3  12 251.891 15.9250   1
   0  -3  11 320.098 17.5594  -2
   0   3  12 320.098 17.5594   1
  -1  -3  10 161.867 11.3248  -2
   1   3  12 161.867 11.3248   1
  -2  -3   9 1111.64 43.2754  -2
   2   3  12 1111.64 43.2754   1
  -3  -3   8 101.244 9.99831  -2
   3   3  12 101.244 9.99831   1
  -4  -3   7 52.0055 8.92154  -2
   4   3  12 52.0055 8.92154   1
  -5  -3   6 670.163 20.2435  -2
   5   3  12 670.163 20.2435   1
  -6  -3   5 6.77144 5.85279  -2
   6   3  12 6.77144 5.85279   1
  -7  -3   4 643.011 23.5728  -2
   7   3  12 643.011 23.5728   1
  -8  -3   3 246.895 11.9571  -2
   8   3  12 246.895 11.9571   1
  -9  -3   2 654.571 32.5777  -2
   9   3  12 654.571 32.5777   1
 -10  -3   1 836.705 56.0757  -2
  10   3  12 836.705 56.0757   1
  11   3  12 445.743 16.6594   1
  12   3   0 154.844 26.2282  -2
  12   3  12 154.844 26.2282   1
  13   3   1 74.4643 23.6894  -2
  13   3  12 74.4643 23.6894   1
  14   3   2 1354.92 54.1988  -2
  14   3  12 1354.92 54.1988   1
  15   3   3 69.2640 16.1403  -2
  15   3  12 69.2640 16.1403   1
  16   3   4 68.9049 26.7335  -2
  16   3  12 68.9049 26.7335   1
  17   3   5 282.332 48.0117  -2
  17   3  12 282.332 48.0117   1
   7  -4  17 14.7936 22.1260  -2
  -7   4  12 14.7936 22.1260   1
   6  -4  16 132.781 8.06369  -2
  -6   4  12 132.781 8.06369   1
   5  -4  15 62.4093 5.36298  -2
  -5   4  12 62.4093 5.36298   1
   4  -4  14 111.688 14.4556  -2
  -4   4  12 111.688 14.4556   1
   3  -4  13 154.927 12.8909  -2
  -3   4  12 154.927 12.8909   1
   2  -4  12 159.430 12.4984  -2
  -2   4  12 159.430 12.4984   1
   1  -4  11 446.261 21.1377  -2
  -1   4  12 446.261 21.1377   1
   0  -4  10 372.924 19.9828  -2
   0   4  12 372.924 19.9828   1
  -1  -4   9 382.302 23.0605  -2
   1   4  12 382.302 23.0605   1
   2   4  12 444.537 17.1748   1
   3   4  12 15.0390 4.83715   1
   4   4  12 60.9242 6.04465   1
  -5  -4   6 35.5697 5.63552  -2
   5   4  12 35.5697 5.63552   1
  -6  -4   5 866.420 26.2043  -2
   6   4  12 866.420 26.2043   1
  -7  -4   4 1281.38 37.0417  -2
   7   4  12 1281.38 37.0417   1
  -8  -4   3 332.427 12.1959  -2
   8   4  12 332.427 12.1959   1
  -9  -4   2 631.052 22.9064  -2
   9   4  12 631.052 22.9064   1
 -10  -4   1 44.9536 9.03417  -2
  10   4  12 44.9536 9.03417   1
  11   4   0 591.448 22.5406  -2
  11   4  12 591.448 22.5406   1
  12   4   1 140.318 12.8791  -2
  12   4  12 140.318 12.8791   1
  13   4   2 282.795 15.3740  -2
  13   4  12 282.795 15.3740   1
  14   4   3 286.195 18.9090  -2
  14   4  12 286.195 18.9090   1
  15   4   4 26.3293 16.1970  -2
  15   4  12 26.3293 16.1970   1
  16   4   5 160.076 47.8438  -2
  16   4  12 160.076 47.8438   1
  17   4   6 30.8662 55.3453  -2
  17   4  12 30.8662 55.3453   1
   7  -5  16 -12.859 34.8782  -2
  -7   5  12 -12.859 34.8782   1
  -6   5  12 11.1696 7.48651   1
   5  -5  15 47.5174 23.3612  -2
  -5   5  12 47.5174 23.3612   1
   4  -5  14 215.787 16.3113  -2
  -4   5  12 215.787 16.3113   1
   3  -5  13 57.2309 12.0676  -2
  -3   5  12 57.2309 12.0676   1
   2  -5  12 36.1380 11.2680  -2
  -2   5  12 36.1380 11.2680   1
   1  -5  11 12.9152 9.62840  -2
  -1   5  12 12.9152 9.62840   1
   0  -5  10 84.6975 9.08587  -2
   0   5  12 84.6975 9.08587   1
  -1  -5   9 598.783 24.2168  -2
   1   5  12 598.783 24.2168   1
  -2  -5   8 419.217 18.2971  -2
   2   5  12 419.217 18.2971   1
  -3  -5   7 617.940 21.7965  -2
   3   5  12 617.940 21.7965   1
  -4  -5   6 514.134 19.1860  -2
   4   5  12 514.134 19.1860   1
  -5  -5   5 91.8210 6.06426  -2
   5   5  12 91.8210 6.06426   1
  -6  -5   4 64.9027 6.39480  -2
   6   5  12 64.9027 6.39480   1
  -7  -5   3 444.218 24.5573  -2
   7   5  12 444.218 24.5573   1
  -8  -5   2 5.21906 19.1719  -2
   8   5  12 5.21906 19.1719   1
   9   5  12 14.2077 4.71077   1
 -10  -5   1 674.609 46.2953  -2
  10   5  12 674.609 46.2953   1
  11   5   0 212.743 18.3007  -2
  11   5  12 212.743 18.3007   1
  12   5   1 6.65589 11.9526  -2
  12   5  12 6.65589 11.9526   1
  13   5   2 662.069 24.1843  -2
  13   5  12 662.069 24.1843   1
  14   5   3 98.3111 14.1342  -2
  14   5  12 98.3111 14.1342   1
  15   5   4 -26.155 16.7225  -2
  15   5  12 -26.155 16.7225   1
  16   5   5 51.4539 18.9436  -2
  16   5  12 51.4539 18.9436   1
  17   5   6 95.9376 37.2889  -2
  17   5  12 95.9376 37.2889   1
   7  -6  16 185.992 42.0258  -2
  -7   6  12 185.992 42.0258   1
   6  -6  15 136.180 13.9785  -2
  -6   6  12 136.180 13.9785   1
   5  -6  14 502.908 21.3156  -2
  -5   6  12 502.908 21.3156   1
   4  -6  13 536.748 18.2796  -2
  -4   6  12 536.748 18.2796   1
   3  -6  12 137.877 8.22748  -2
  -3   6  12 137.877 8.22748   1
   2  -6  11 347.074 18.9253  -2
  -2   6  12 347.074 18.9253   1
   1  -6  10 80.9608 15.6089  -2
  -1   6  12 80.9608 15.6089   1
   0   6  12 68.0209 5.17573   1
  -1  -6   9 256.206 20.6683  -2
   1   6  12 256.206 20.6683   1
  -2  -6   8 69.8470 7.81640  -2
   2   6  12 69.8470 7.81640   1
  -3  -6   7 419.921 18.7189  -2
   3   6  12 419.921 18.7189   1
  -4  -6   6 199.412 14.2992  -2
   4   6  12 199.412 14.2992   1
  -5  -6   5 789.879 25.7673  -2
   5   6  12 789.879 25.7673   1
  -6  -6   4 370.698 11.8593  -2
   6   6  12 370.698 11.8593   1
  -7  -6   3 297.016 10.0898  -2
   7   6  12 297.016 10.0898   1
  -8  -6   2 252.474 10.4405  -2
   8   6  12 252.474 10.4405   1
  -9  -6   1 59.7783 7.58234  -2
   9   6  12 59.7783 7.58234   1
  10   6   0 115.814 11.7769  -2
  10   6  12 115.814 11.7769   1
  11   6   1 166.330 13.9270  -2
  11   6  12 166.330 13.9270   1
  12   6   2 3.89777 11.0130  -2
  12   6  12 3.89777 11.0130   1
  13   6   3 551.871 31.7732  -2
  13   6  12 551.871 31.7732   1
  14   6   4 208.706 21.1808  -2
  14   6  12 208.706 21.1808   1
  15   6  12 29.0808 7.81545   1
  16   6  12 7.89779 12.6261   1
  17   6  12 27.8634 27.8667   1
   7  -7  16 27.5704 46.4439  -2
  -7   7  12 27.5704 46.4439   1
   6  -7  15 -5.4918 26.4460  -2
  -6   7  12 -5.4918 26.4460   1
   5  -7  14 108.312 22.3457  -2
  -5   7  12 108.312 22.3457   1
   4  -7  13 118.727 12.4210  -2
  -4   7  12 118.727 12.4210   1
   3  -7  12 142.754 11.2492  -2
  -3   7  12 142.754 11.2492   1
   2  -7  11 53.2328 7.21940  -2
  -2   7  12 53.2328 7.21940   1
   1  -7  10 150.622 10.8725  -2
  -1   7  12 150.622 10.8725   1
   0  -7   9 274.735 18.9245  -2
   0   7  12 274.735 18.9245   1
  -1  -7   8 554.729 29.3327  -2
   1   7  12 554.729 29.3327   1
  -2  -7   7 45.1536 12.9756  -2
   2   7  12 45.1536 12.9756   1
  -3  -7   6 103.498 14.5236  -2
   3   7  12 103.498 14.5236   1
   4   7  12 850.441 40.9623   1
   5   7  12 468.119 16.8649   1
   6   7  12 5.55654 2.70881   1
   7   7  12 9.05760 3.67090   1
  -8  -7   2 190.095 14.3356  -2
   8   7  12 190.095 14.3356   1
  -9  -7   1 564.421 18.9632  -2
   9   7  12 564.421 18.9632   1
  10   7   0 1307.35 44.2178  -2
  10   7  12 1307.35 44.2178   1
  11   7   1 17.2720 9.61195  -2
  11   7  12 17.2720 9.61195   1
  12   7   2 230.024 13.9315  -2
  12   7  12 230.024 13.9315   1
  13   7   3 341.937 15.8745  -2
  13   7  12 341.937 15.8745   1
  14   7   4 439.297 20.0631  -2
  14   7  12 439.297 20.0631   1
  15   7   5 115.112 14.5346  -2
  15   7  12 115.112 14.5346   1
  16   7   6 159.428 21.9680  -2
  16   7  12 159.428 21.9680   1
   7  -8  15 102.635 30.6748  -2
  -7   8  12 102.635 30.6748   1
   6  -8  14 74.7454 27.2692  -2
  -6   8  12 74.7454 27.2692   1
   5  -8  13 4.44153 23.9232  -2
  -5   8  12 4.44153 23.9232   1
  -4   8  12 7.94414 6.26149   1
  -3   8  12 94.2407 8.08213   1
   2  -8  11 284.412 21.8330  -2
  -2   8  12 284.412 21.8330   1
   1  -8  10 19.8756 11.2028  -2
  -1   8  12 19.8756 11.2028   1
   0  -8   9 705.790 33.8265  -2
   0   8  12 705.790 33.8265   1
  -1  -8   8 80.2322 13.8784  -2
   1   8  12 80.2322 13.8784   1
  -2  -8   7 335.223 20.8080  -2
   2   8  12 335.223 20.8080   1
  -3  -8   6 94.0987 12.4915  -2
   3   8  12 94.0987 12.4915   1
  -4  -8   5 295.331 10.8802  -2
   4   8  12 295.331 10.8802   1
  -5  -8   4 304.933 14.1746  -2
   5   8  12 304.933 14.1746   1
  -6  -8   3 602.917 21.2834  -2
   6   8  12 602.917 21.2834   1
  -7  -8   2 227.589 12.2505  -2
   7   8  12 227.589 12.2505   1
  -8  -8   1 412.111 15.9759  -2
   8   8  12 412.111 15.9759   1
   9   8   0 1666.43 43.8206  -2
   9   8  12 1666.43 43.8206   1
  10   8   1 984.041 37.9891  -2
  10   8  12 984.041 37.9891   1
  11   8   2 65.0465 11.8455  -2
  11   8  12 65.0465 11.8455   1
  12   8   3 497.329 25.6602  -2
  12   8  12 497.329 25.6602   1
  13   8   3 281.428 34.9561  -2
  13   8  12 281.428 34.9561   1
  14   8   4 539.943 28.7891  -2
  14   8  12 539.943 28.7891   1
  15   8   5 -25.957 26.4373  -2
  15   8  12 -25.957 26.4373   1
  16   8   6 15.5027 34.4647  -2
  16   8  12 15.5027 34.4647   1
   6  -9  14 70.1752 22.4289  -2
  -6   9  12 70.1752 22.4289   1
   5  -9  13 119.581 12.9191  -2
  -5   9  12 119.581 12.9191   1
   4  -9  12 52.5171 12.4641  -2
  -4   9  12 52.5171 12.4641   1
   3  -9  11 452.803 25.3587  -2
  -3   9  12 452.803 25.3587   1
   2  -9  10 293.136 20.9890  -2
  -2   9  12 293.136 20.9890   1
   1  -9   9 192.569 18.1592  -2
  -1   9  12 192.569 18.1592   1
   0  -9   8 44.2766 10.5387  -2
   0   9  12 44.2766 10.5387   1
  -1  -9   7 166.110 11.6881  -2
   1   9  12 166.110 11.6881   1
   2   9  12 16.3987 5.94350   1
   3   9  12 213.591 14.8499   1
   4   9  12 15.9021 3.04108   1
  -5  -9   4 77.5962 11.4950  -2
   5   9  12 77.5962 11.4950   1
  -6  -9   3 246.388 17.0905  -2
   6   9  12 246.388 17.0905   1
  -7  -9   2 90.1754 13.0046  -2
   7   9  12 90.1754 13.0046   1
  -8  -9   1 139.518 13.3234  -2
   8   9  12 139.518 13.3234   1
   9   9   0 21.5200 16.9390  -2
   9   9  12 21.5200 16.9390   1
  10   9   1 831.319 25.2718  -2
  10   9  12 831.319 25.2718   1
  11   9   2 134.638 8.59811  -2
  11   9  12 134.638 8.59811   1
  12   9   3 6.49158 10.6367  -2
  12   9  12 6.49158 10.6367   1
  13   9   4 73.3890 11.9212  -2
  13   9  12 73.3890 11.9212   1
  14   9   5 625.255 27.3822  -2
  14   9  12 625.255 27.3822   1
  15   9   6 388.137 33.3737  -2
  15   9  12 388.137 33.3737   1
  -6  10  12 57.2984 10.9142   1
  -5  10  12 257.036 15.7201   1
   4 -10  12 258.597 20.3071  -2
  -4  10  12 258.597 20.3071   1
   3 -10  11 24.5226 14.9256  -2
  -3  10  12 24.5226 14.9256   1
   2 -10  10 53.7265 13.2513  -2
  -2  10  12 53.7265 13.2513   1
   1 -10   9 39.9835 10.1878  -2
  -1  10  12 39.9835 10.1878   1
   0 -10   8 9.17377 9.32672  -2
   0  10  12 9.17377 9.32672   1
  -1 -10   7 189.168 13.8878  -2
   1  10  12 189.168 13.8878   1
  -2 -10   6 493.250 25.2275  -2
   2  10  12 493.250 25.2275   1
  -3 -10   5 226.580 9.04664  -2
   3  10  12 226.580 9.04664   1
  -4 -10   4 1.91403 6.96022  -2
   4  10  12 1.91403 6.96022   1
  -5 -10   3 93.7318 13.9521  -2
   5  10  12 93.7318 13.9521   1
  -6 -10   2 238.428 19.4115  -2
   6  10  12 238.428 19.4115   1
  -7 -10   1 6.45801 17.6792  -2
   7  10  12 6.45801 17.6792   1
   8  10  12 3.19235 7.93478   1
   9  10   1 130.973 31.8248  -2
   9  10  12 130.973 31.8248   1
  10  10   2 115.066 37.4010  -2
  10  10  12 115.066 37.4010   1
  10  10   1 239.656 27.9570  -2
  10  10  12 239.656 27.9570   1
  11  10   2 165.076 27.1155  -2
  11  10  12 165.076 27.1155   1
  12  10   3 398.449 18.1701  -2
  12  10  12 398.449 18.1701   1
  13  10   4 17.9053 14.3948  -2
  13  10  12 17.9053 14.3948   1
  14  10   5 160.926 26.7065  -2
  14  10  12 160.926 26.7065   1
  15  10  12 457.397 33.1776   1
   5 -11  12 260.685 26.1835  -2
  -5  11  12 260.685 26.1835   1
   4 -11  11 59.2190 27.8953  -2
  -4  11  12 59.2190 27.8953   1
   3 -11  10 529.841 30.1321  -2
  -3  11  12 529.841 30.1321   1
   2 -11   9 279.926 17.3332  -2
  -2  11  12 279.926 17.3332   1
   1 -11   8 122.250 18.8442  -2
  -1  11  12 122.250 18.8442   1
   0  11  12 85.1891 7.36012   1
   1  11  12 12.8786 5.07196   1
  -2 -11   6 207.172 23.8208  -2
   2  11  12 207.172 23.8208   1
  -3 -11   5 60.7726 7.80805  -2
   3  11  12 60.7726 7.80805   1
  -4 -11   4 15.0848 8.87963  -2
   4  11  12 15.0848 8.87963   1
  -5 -11   3 169.592 12.0170  -2
   5  11  12 169.592 12.0170   1
  -6 -11   2 658.467 34.8176  -2
   6  11  12 658.467 34.8176   1
  -7 -11   1 1280.62 60.5072  -2
   7  11  12 1280.62 60.5072   1
   8  11   0 475.474 27.9375  -2
   8  11  12 475.474 27.9375   1
   9  11   1 188.499 25.3446  -2
   9  11  12 188.499 25.3446   1
  10  11   2 491.270 25.1666  -2
  10  11  12 491.270 25.1666   1
  11  11   3 317.060 26.8959  -2
  11  11  12 317.060 26.8959   1
  12  11   4 435.630 32.2257  -2
  12  11  12 435.630 32.2257   1
  13  11   5 129.906 25.7386  -2
  13  11  12 129.906 25.7386   1
  14  11   6 83.4253 33.9502  -2
  14  11  12 83.4253 33.9502   1
   4 -12  11 -9.0076 17.7311  -2
  -4  12  12 -9.0076 17.7311   1
   3 -12  10 57.5358 28.6495  -2
  -3  12  12 57.5358 28.6495   1
   2 -12   9 9.35950 11.4549  -2
  -2  12  12 9.35950 11.4549   1
   1 -12   8 229.629 16.9177  -2
  -1  12  12 229.629 16.9177   1
   0 -12   7 97.1661 8.05379  -2
   0  12  12 97.1661 8.05379   1
  -1 -12   6 111.435 9.25971  -2
   1  12  12 111.435 9.25971   1
  -2 -12   5 290.244 12.0098  -2
   2  12  12 290.244 12.0098   1
  -3 -12   4 24.5771 8.35288  -2
   3  12  12 24.5771 8.35288   1
  -4 -12   3 1.96274 9.34522  -2
   4  12  12 1.96274 9.34522   1
  -5 -12   2 52.1135 14.2309  -2
   5  12  12 52.1135 14.2309   1
   6  12  12 286.468 18.4403   1
   7  12  12 90.7953 8.05396   1
   8  12  12 70.7197 10.2034   1
   9  12  12 9.36124 12.8758   1
  10  12   2 421.107 31.0681  -2
  10  12  12 421.107 31.0681   1
  11  12   3 512.008 33.2503  -2
  11  12  12 512.008 33.2503   1
  12  12   4 73.7152 25.2193  -2
  12  12  12 73.7152 25.2193   1
  13  12   5 167.053 24.7084  -2
  13  12  12 167.053 24.7084   1
  -3  13  12 97.2943 10.1168   1
  -2  13  12 359.544 14.9830   1
   1 -13   8 181.742 31.9257  -2
  -1  13  12 181.742 31.9257   1
   0 -13   7 13.9819 25.1202  -2
   0  13  12 13.9819 25.1202   1
  -1 -13   6 628.496 22.4641  -2
   1  13  12 628.496 22.4641   1
  -2 -13   5 133.225 10.9090  -2
   2  13  12 133.225 10.9090   1
  -3 -13   4 151.712 12.1317  -2
   3  13  12 151.712 12.1317   1
  -4 -13   3 418.266 23.0735  -2
   4  13  12 418.266 23.0735   1
  -5 -13   2 161.061 13.3157  -2
   5  13  12 161.061 13.3157   1
  -6 -13   1 459.525 25.8972  -2
   6  13  12 459.525 25.8972   1
   7  13   0 8.65433 14.6040  -2
   7  13  12 8.65433 14.6040   1
   8  13   1 139.008 30.5034  -2
   8  13  12 139.008 30.5034   1
   9  13   2 17.1950 20.8740  -2
   9  13  12 17.1950 20.8740   1
  10  13   3 643.488 38.4730  -2
  10  13  12 643.488 38.4730   1
  11  13   4 32.8790 25.4686  -2
  11  13  12 32.8790 25.4686   1
  12  13   5 334.370 33.6852  -2
  12  13  12 334.370 33.6852   1
   2 -14   8 330.517 23.0259  -2
  -2  14  12 330.517 23.0259   1
   1 -14   7 35.2602 16.4755  -2
  -1  14  12 35.2602 16.4755   1
   0 -14   6 62.6970 8.86031  -2
   0  14  12 62.6970 8.86031   1
  -1 -14   5 -11.316 11.5633  -2
   1  14  12 -11.316 11.5633   1
  -2 -14   4 331.290 14.1124  -2
   2  14  12 331.290 14.1124   1
  -3 -14   3 292.652 31.1637  -2
   3  14  12 292.652 31.1637   1
   4  14  12 12.5243 4.82518   1
   5  14  12 9.83448 5.26185   1
  -6 -14   1 449.956 27.3542  -2
   6  14  12 449.956 27.3542   1
   7  14   0 256.831 21.6104  -2
   7  14  12 256.831 21.6104   1
   9  14   2 75.3470 28.4338  -2
   9  14  12 75.3470 28.4338   1
  10  14   3 57.8969 21.4887  -2
  10  14  12 57.8969 21.4887   1
  11  14  12 37.5341 9.28280   1
  -1  15  12 311.212 37.2682   1
   0 -15   6 23.5080 25.3268  -2
   0  15  12 23.5080 25.3268   1
  -1 -15   5 -7.8626 24.5363  -2
   1  15  12 -7.8626 24.5363   1
  -2 -15   4 53.4056 12.7599  -2
   2  15  12 53.4056 12.7599   1
  -3 -15   3 218.616 13.0564  -2
   3  15  12 218.616 13.0564   1
  -4 -15   2 42.4535 10.5448  -2
   4  15  12 42.4535 10.5448   1
  -5 -15   1 233.755 18.0450  -2
   5  15  12 233.755 18.0450   1
   6  15   0 63.5212 22.9817  -2
   6  15  12 63.5212 22.9817   1
   9  15  12 90.3019 22.1341   1
   2  16  12 -4.4482 9.05228   1
   3  16  12 183.700 16.8723   1
  -4 -16   2 46.0307 33.4097  -2
   4  16  12 46.0307 33.4097   1
  -5 -16   1 205.304 27.6839  -2
   5  16  12 205.304 27.6839   1
   6  16  12 28.9554 12.3640   1
  -3  10  14 165.191 20.9195  -2
   3 -10  13 165.191 20.9195   1
  -4  10  13 157.954 21.8278  -2
   4 -10  13 157.954 21.8278   1
   5 -10  13 -8.1425 7.85209   1
   6 -10  13 106.389 9.82197   1
  -7  10  11 192.145 27.7396  -2
   7 -10  13 192.145 27.7396   1
  -8  10  10 348.296 31.0654  -2
   8 -10  13 348.296 31.0654   1
  -9  10   9 157.707 25.8552  -2
   9 -10  13 157.707 25.8552   1
  10 -10  13 39.5100 9.64823   1
  -1   9  16 17.8647 22.6660  -2
   1  -9  13 17.8647 22.6660   1
  -2   9  15 124.969 18.1129  -2
   2  -9  13 124.969 18.1129   1
  -3   9  14 118.317 13.9112  -2
   3  -9  13 118.317 13.9112   1
  -4   9  13 75.0655 11.9427  -2
   4  -9  13 75.0655 11.9427   1
  -5   9  12 150.502 12.5401  -2
   5  -9  13 150.502 12.5401   1
  -6   9  11 30.9823 12.5200  -2
   6  -9  13 30.9823 12.5200   1
  -7   9  10 114.775 14.1505  -2
   7  -9  13 114.775 14.1505   1
  -8   9   9 742.091 30.2868  -2
   8  -9  13 742.091 30.2868   1
  -9   9   8 333.228 22.2199  -2
   9  -9  13 333.228 22.2199   1
 -10   9   7 33.7891 21.7144  -2
  10  -9  13 33.7891 21.7144   1
 -11   9   6 107.588 26.3354  -2
  11  -9  13 107.588 26.3354   1
  12  -9  13 26.4622 13.5284   1
   1   8  17 179.204 26.5480  -2
  -1  -8  13 179.204 26.5480   1
   0   8  16 9.04801 20.1917  -2
   0  -8  13 9.04801 20.1917   1
  -1   8  15 158.691 22.0940  -2
   1  -8  13 158.691 22.0940   1
  -2   8  14 105.016 28.1393  -2
   2  -8  13 105.016 28.1393   1
   3  -8  13 88.2304 8.05080   1
   4  -8  13 14.3548 6.41069   1
  -5   8  12 42.6005 14.4598  -2
   5  -8  13 42.6005 14.4598   1
  -6   8  11 168.207 15.1927  -2
   6  -8  13 168.207 15.1927   1
  -7   8  10 121.084 15.8442  -2
   7  -8  13 121.084 15.8442   1
  -8   8   9 79.0452 14.8815  -2
   8  -8  13 79.0452 14.8815   1
  -9   8   8 69.3545 15.5670  -2
   9  -8  13 69.3545 15.5670   1
 -10   8   7 215.743 15.3599  -2
  10  -8  13 215.743 15.3599   1
 -11   8   6 0.21437 15.0628  -2
  11  -8  13 0.21437 15.0628   1
 -12   8   5 392.413 24.6637  -2
  12  -8  13 392.413 24.6637   1
 -13   8   4 109.414 25.7393  -2
  13  -8  13 109.414 25.7393   1
  -2  -7  13 15.3398 11.9518   1
   1   7  17 -28.867 24.2098  -2
  -1  -7  13 -28.867 24.2098   1
   0   7  16 13.8064 15.6564  -2
   0  -7  13 13.8064 15.6564   1
  -1   7  15 456.739 23.7632  -2
   1  -7  13 456.739 23.7632   1
  -2   7  14 83.1652 10.2139  -2
   2  -7  13 83.1652 10.2139   1
  -3   7  13 24.4270 9.63111  -2
   3  -7  13 24.4270 9.63111   1
  -4   7  12 120.792 11.1198  -2
   4  -7  13 120.792 11.1198   1
  -5   7  11 77.1254 12.7494  -2
   5  -7  13 77.1254 12.7494   1
  -6   7  10 55.6440 11.1961  -2
   6  -7  13 55.6440 11.1961   1
  -7   7   9 37.4332 14.1295  -2
   7  -7  13 37.4332 14.1295   1
  -8   7   8 0.13387 15.8418  -2
   8  -7  13 0.13387 15.8418   1
   9  -7  13 0.62109 5.91503   1
 -10   7   7 197.513 35.0764  -2
  10  -7  13 197.513 35.0764   1
 -11   7   6 312.391 19.3985  -2
  11  -7  13 312.391 19.3985   1
 -12   7   5 86.7035 21.3884  -2
  12  -7  13 86.7035 21.3884   1
 -13   7   4 243.801 23.9441  -2
  13  -7  13 243.801 23.9441   1
 -14   7   3 103.549 26.3740  -2
  14  -7  13 103.549 26.3740   1
   3   6  18 -6.4898 28.3796  -2
  -3  -6  13 -6.4898 28.3796   1
   2   6  17 185.118 25.0647  -2
  -2  -6  13 185.118 25.0647   1
   1   6  16 69.9920 19.4829  -2
  -1  -6  13 69.9920 19.4829   1
   0  -6  13 25.2611 7.97481   1
  -1   6  15 5.95407 20.2019  -2
   1  -6  13 5.95407 20.2019   1
  -2   6  14 -1.5138 12.3220  -2
   2  -6  13 -1.5138 12.3220   1
  -3   6  13 23.7302 11.4418  -2
   3  -6  13 23.7302 11.4418   1
  -4   6  12 516.060 18.3357  -2
   4  -6  13 516.060 18.3357   1
  -5   6  11 49.8970 9.91620  -2
   5  -6  13 49.8970 9.91620   1
  -6   6  10 167.123 10.8598  -2
   6  -6  13 167.123 10.8598   1
  -7   6   9 239.515 13.0759  -2
   7  -6  13 239.515 13.0759   1
  -8   6   8 194.317 10.7323  -2
   8  -6  13 194.317 10.7323   1
  -9   6   7 31.6513 9.54980  -2
   9  -6  13 31.6513 9.54980   1
 -10   6   6 42.4698 11.0763  -2
  10  -6  13 42.4698 11.0763   1
 -11   6   5 57.0994 12.2968  -2
  11  -6  13 57.0994 12.2968   1
 -12   6   4 127.283 15.3371  -2
  12  -6  13 127.283 15.3371   1
 -13   6   3 13.7221 26.8014  -2
  13  -6  13 13.7221 26.8014   1
 -14   6   2 91.1718 23.7405  -2
  14  -6  13 91.1718 23.7405   1
  15  -6  13 41.4494 19.2147   1
   3   5  18 177.722 18.8080  -2
  -3  -5  13 177.722 18.8080   1
   2   5  17 34.3976 14.8831  -2
  -2  -5  13 34.3976 14.8831   1
   1   5  16 153.132 14.9243  -2
  -1  -5  13 153.132 14.9243   1
   0   5  15 242.803 17.6399  -2
   0  -5  13 242.803 17.6399   1
  -1   5  14 107.732 12.3226  -2
   1  -5  13 107.732 12.3226   1
  -2   5  13 844.672 24.9254  -2
   2  -5  13 844.672 24.9254   1
  -3   5  12 49.7153 9.62092  -2
   3  -5  13 49.7153 9.62092   1
  -4   5  11 249.924 12.6306  -2
   4  -5  13 249.924 12.6306   1
  -5   5  10 371.983 20.6637  -2
   5  -5  13 371.983 20.6637   1
  -6   5   9 227.603 32.1099  -2
   6  -5  13 227.603 32.1099   1
   7  -5  13 6.95535 5.45333   1
  -8   5   8 469.432 21.3543  -2
   8  -5  13 469.432 21.3543   1
  -9   5   7 625.011 21.1783  -2
   9  -5  13 625.011 21.1783   1
 -10   5   6 375.846 16.6583  -2
  10  -5  13 375.846 16.6583   1
 -11   5   5 671.852 22.8449  -2
  11  -5  13 671.852 22.8449   1
 -12   5   4 72.5815 11.9182  -2
  12  -5  13 72.5815 11.9182   1
 -13   5   3 24.7779 12.6735  -2
  13  -5  13 24.7779 12.6735   1
 -14   5   2 197.330 19.1523  -2
  14  -5  13 197.330 19.1523   1
 -15   5   1 114.068 20.0544  -2
  15  -5  13 114.068 20.0544   1
   4   4  18 80.6470 23.8265  -2
  -4  -4  13 80.6470 23.8265   1
  -3  -4  13 5.49298 24.4687   1
   2   4  17 -32.544 37.3169  -2
  -2  -4  13 -32.544 37.3169   1
   1   4  16 158.308 18.2252  -2
  -1  -4  13 158.308 18.2252   1
   0   4  15 196.315 15.4415  -2
   0  -4  13 196.315 15.4415   1
  -1   4  14 363.539 16.9711  -2
   1  -4  13 363.539 16.9711   1
  -2   4  13 148.523 12.3998  -2
   2  -4  13 148.523 12.3998   1
  -3   4  12 112.259 8.42971  -2
   3  -4  13 112.259 8.42971   1
  -4   4  11 43.9972 7.42818  -2
   4  -4  13 43.9972 7.42818   1
  -5   4  10 160.737 8.66963  -2
   5  -4  13 160.737 8.66963   1
  -6   4   9 161.372 10.1577  -2
   6  -4  13 161.372 10.1577   1
  -7   4   8 163.874 9.70544  -2
   7  -4  13 163.874 9.70544   1
  -8   4   7 331.430 15.7659  -2
   8  -4  13 331.430 15.7659   1
  -9   4   6 336.232 14.6208  -2
   9  -4  13 336.232 14.6208   1
 -10   4   5 84.3369 11.7881  -2
  10  -4  13 84.3369 11.7881   1
 -11   4   4 -13.742 13.1721  -2
  11  -4  13 -13.742 13.1721   1
 -12   4   3 411.081 25.2755  -2
  12  -4  13 411.081 25.2755   1
  13  -4  13 187.583 10.5792   1
 -14   4   2 100.526 25.3287  -2
  14  -4  13 100.526 25.3287   1
 -15   4   1 35.6645 25.1506  -2
  15  -4  13 35.6645 25.1506   1
 -16   4   0 122.214 36.4517  -2
  16  -4  13 122.214 36.4517   1
   5   3  19 219.481 21.6047  -2
  -5  -3  13 219.481 21.6047   1
   4   3  18 57.0136 22.6519  -2
  -4  -3  13 57.0136 22.6519   1
   3   3  17 -18.217 14.3277  -2
  -3  -3  13 -18.217 14.3277   1
   2   3  16 317.099 15.7287  -2
  -2  -3  13 317.099 15.7287   1
   1   3  15 104.380 12.0088  -2
  -1  -3  13 104.380 12.0088   1
   0   3  14 106.487 12.1389  -2
   0  -3  13 106.487 12.1389   1
  -1   3  13 -9.5476 11.6500  -2
   1  -3  13 -9.5476 11.6500   1
  -2   3  12 367.988 16.4606  -2
   2  -3  13 367.988 16.4606   1
  -3   3  11 46.4558 28.6091  -2
   3  -3  13 46.4558 28.6091   1
   4  -3  13 318.603 11.5500   1
  -5   3  10 50.1991 18.2004  -2
   5  -3  13 50.1991 18.2004   1
  -6   3   9 -16.132 11.4132  -2
   6  -3  13 -16.132 11.4132   1
  -7   3   8 515.030 19.7734  -2
   7  -3  13 515.030 19.7734   1
  -8   3   7 96.1596 10.3384  -2
   8  -3  13 96.1596 10.3384   1
  -9   3   6 121.965 12.0343  -2
   9  -3  13 121.965 12.0343   1
 -10   3   5 21.5622 9.05789  -2
  10  -3  13 21.5622 9.05789   1
 -11   3   4 79.2697 9.42857  -2
  11  -3  13 79.2697 9.42857   1
 -12   3   3 106.897 10.2709  -2
  12  -3  13 106.897 10.2709   1
 -13   3   2 1197.03 36.7450  -2
  13  -3  13 1197.03 36.7450   1
 -14   3   1 91.2829 15.3802  -2
  14  -3  13 91.2829 15.3802   1
 -15   3   0 210.269 22.8052  -2
  15  -3  13 210.269 22.8052   1
  16  -3   1 385.178 51.4410  -2
  16  -3  13 385.178 51.4410   1
  -5  -2  13 -4.4598 8.54603   1
  -4  -2  13 -14.053 19.7982   1
   3   2  17 107.486 16.3871  -2
  -3  -2  13 107.486 16.3871   1
   2   2  16 96.0985 13.4329  -2
  -2  -2  13 96.0985 13.4329   1
   1   2  15 57.0003 11.1592  -2
  -1  -2  13 57.0003 11.1592   1
   0   2  14 68.7665 10.0525  -2
   0  -2  13 68.7665 10.0525   1
  -1   2  13 576.326 22.7192  -2
   1  -2  13 576.326 22.7192   1
  -2   2  12 -0.7127 7.61543  -2
   2  -2  13 -0.7127 7.61543   1
  -3   2  11 101.112 8.40175  -2
   3  -2  13 101.112 8.40175   1
  -4   2  10 582.087 18.5911  -2
   4  -2  13 582.087 18.5911   1
  -5   2   9 1.54700 6.11496  -2
   5  -2  13 1.54700 6.11496   1
  -6   2   8 118.716 10.3525  -2
   6  -2  13 118.716 10.3525   1
  -7   2   7 46.0311 8.97452  -2
   7  -2  13 46.0311 8.97452   1
  -8   2   6 446.312 22.7322  -2
   8  -2  13 446.312 22.7322   1
  -9   2   5 136.866 18.4383  -2
   9  -2  13 136.866 18.4383   1
  10  -2  13 155.280 9.76741   1
  11  -2  13 7.56947 5.59336   1
 -12   2   3 95.8469 17.3524  -2
  12  -2  13 95.8469 17.3524   1
 -13   2   2 302.067 17.7167  -2
  13  -2  13 302.067 17.7167   1
 -14   2   1 122.602 16.5932  -2
  14  -2  13 122.602 16.5932   1
 -15   2   0 20.8156 21.4556  -2
  15  -2  13 20.8156 21.4556   1
  16  -2   1 21.6938 23.2822  -2
  16  -2  13 21.6938 23.2822   1
  17  -2   2 272.017 33.1834  -2
  17  -2  13 272.017 33.1834   1
   5   1  18 132.051 15.9643  -2
  -5  -1  13 132.051 15.9643   1
   4   1  17 13.2775 12.8368  -2
  -4  -1  13 13.2775 12.8368   1
   3   1  16 -18.112 11.5216  -2
  -3  -1  13 -18.112 11.5216   1
   2   1  15 95.4573 12.0874  -2
  -2  -1  13 95.4573 12.0874   1
   1   1  14 153.839 12.2334  -2
  -1  -1  13 153.839 12.2334   1
   0   1  13 284.209 19.2716  -2
   0  -1  13 284.209 19.2716   1
   1  -1  13 144.183 8.27271   1
   2  -1  13 47.3998 4.98154   1
  -3   1  11 210.549 14.0862  -2
   3  -1  13 210.549 14.0862   1
  -4   1  10 540.252 21.8393  -2
   4  -1  13 540.252 21.8393   1
  -5   1   9 1056.46 31.6433  -2
   5  -1  13 1056.46 31.6433   1
  -6   1   8 334.933 13.6627  -2
   6  -1  13 334.933 13.6627   1
  -7   1   7 606.376 18.4244  -2
   7  -1  13 606.376 18.4244   1
  -8   1   6 457.790 15.1570  -2
   8  -1  13 457.790 15.1570   1
  -9   1   5 136.620 10.1144  -2
   9  -1  13 136.620 10.1144   1
 -10   1   4 373.709 13.7416  -2
  10  -1  13 373.709 13.7416   1
 -11   1   3 303.600 14.9202  -2
  11  -1  13 303.600 14.9202   1
 -12   1   2 145.466 11.6298  -2
  12  -1  13 145.466 11.6298   1
 -13   1   1 751.439 27.0422  -2
  13  -1  13 751.439 27.0422   1
 -14   1   0 69.1524 17.5936  -2
  14  -1  13 69.1524 17.5936   1
  15  -1   1 168.702 26.0620  -2
  15  -1  13 168.702 26.0620   1
  16  -1   2 191.723 44.8538  -2
  16  -1  13 191.723 44.8538   1
  17  -1  13 317.160 47.1429   1
  -6   0  13 34.1036 16.9869   1
   5   0  18 -9.0483 15.7356  -2
  -5   0  13 -9.0483 15.7356   1
   4   0  17 17.3436 10.9990  -2
  -4   0  13 17.3436 10.9990   1
   3   0  16 390.922 16.9016  -2
  -3   0  13 390.922 16.9016   1
   2   0  15 383.917 15.8139  -2
  -2   0  13 383.917 15.8139   1
   1   0  14 11.6057 7.42419  -2
  -1   0  13 11.6057 7.42419   1
   0   0  13 6.17575 6.14938  -2
   0   0  13 6.17575 6.14938   1
  -1   0  12 293.175 13.2886  -2
   1   0  13 293.175 13.2886   1
  -2   0  11 56.1293 7.22245  -2
   2   0  13 56.1293 7.22245   1
  -3   0  10 466.307 18.1499  -2
   3   0  13 466.307 18.1499   1
  -4   0   9 578.769 19.7116  -2
   4   0  13 578.769 19.7116   1
  -5   0   8 278.672 12.7593  -2
   5   0  13 278.672 12.7593   1
  -6   0   7 57.9666 10.2893  -2
   6   0  13 57.9666 10.2893   1
  -7   0   6 -3.2305 17.7201  -2
   7   0  13 -3.2305 17.7201   1
   8   0  13 768.994 24.0873   1
  -9   0   5 91.4448 15.2684  -2
   9   0  13 91.4448 15.2684   1
 -10   0   4 171.255 14.2270  -2
  10   0  13 171.255 14.2270   1
 -11   0   3 446.882 19.1987  -2
  11   0  13 446.882 19.1987   1
 -12   0   2 66.7976 10.5858  -2
  12   0  13 66.7976 10.5858   1
 -13   0   1 248.971 13.1872  -2
  13   0  13 248.971 13.1872   1
  14   0   0 22.5762 11.6837  -2
  14   0  13 22.5762 11.6837   1
  15   0   1 39.9456 12.1847  -2
  15   0  13 39.9456 12.1847   1
  16   0   2 14.4532 19.8112  -2
  16   0  13 14.4532 19.8112   1
  17   0   3 52.9019 20.8979  -2
  17   0  13 52.9019 20.8979   1
   6  -1  18 -5.8836 22.9155  -2
  -6   1  13 -5.8836 22.9155   1
   5  -1  17 216.106 24.0318  -2
  -5   1  13 216.106 24.0318   1
   4  -1  16 76.2128 10.1159  -2
  -4   1  13 76.2128 10.1159   1
   3  -1  15 105.249 9.43623  -2
  -3   1  13 105.249 9.43623   1
   2  -1  14 243.629 12.3491  -2
  -2   1  13 243.629 12.3491   1
   1  -1  14 85.8789 13.4649  -2
  -1   1  13 85.8789 13.4649   1
   0  -1  13 293.106 19.8704  -2
   0   1  13 293.106 19.8704   1
  -1  -1  12 282.387 12.6105  -2
   1   1  13 282.387 12.6105   1
  -2  -1  11 127.114 9.04791  -2
   2   1  13 127.114 9.04791   1
  -3  -1  10 34.1619 7.30602  -2
   3   1  13 34.1619 7.30602   1
  -4  -1   9 221.604 10.2824  -2
   4   1  13 221.604 10.2824   1
  -5  -1   8 165.959 7.23063  -2
   5   1  13 165.959 7.23063   1
  -6  -1   7 39.6721 5.13861  -2
   6   1  13 39.6721 5.13861   1
  -7  -1   6 91.8956 7.01915  -2
   7   1  13 91.8956 7.01915   1
  -8  -1   5 132.716 8.30954  -2
   8   1  13 132.716 8.30954   1
  -9  -1   4 309.474 14.7533  -2
   9   1  13 309.474 14.7533   1
 -10  -1   3 251.999 13.9085  -2
  10   1  13 251.999 13.9085   1
 -11  -1   2 137.457 11.8865  -2
  11   1  13 137.457 11.8865   1
 -12  -1   1 251.276 16.0731  -2
  12   1  13 251.276 16.0731   1
  13   1   0 284.672 31.4391  -2
  13   1  13 284.672 31.4391   1
  14   1  13 24.3193 7.49863   1
  15   1   1 183.251 31.5601  -2
  15   1  13 183.251 31.5601   1
  16   1   2 41.0937 46.8252  -2
  16   1  13 41.0937 46.8252   1
  17   1   3 78.1883 45.2629  -2
  17   1  13 78.1883 45.2629   1
   6  -2  18 -4.8328 28.2192  -2
  -6   2  13 -4.8328 28.2192   1
   5  -2  17 -14.121 10.2785  -2
  -5   2  13 -14.121 10.2785   1
   4  -2  16 135.168 7.86945  -2
  -4   2  13 135.168 7.86945   1
   3  -2  15 185.538 8.08798  -2
  -3   2  13 185.538 8.08798   1
   2  -2  14 26.5819 13.2213  -2
  -2   2  13 26.5819 13.2213   1
   1  -2  13 557.530 25.5724  -2
  -1   2  13 557.530 25.5724   1
   0  -2  12 209.769 13.9369  -2
   0   2  13 209.769 13.9369   1
  -1  -2  11 -6.5071 12.9086  -2
   1   2  13 -6.5071 12.9086   1
  -2  -2  10 51.4543 16.1738  -2
   2   2  13 51.4543 16.1738   1
  -3  -2   9 399.463 25.0714  -2
   3   2  13 399.463 25.0714   1
  -4  -2   8 374.096 34.9190  -2
   4   2  13 374.096 34.9190   1
   5   2  13 212.428 9.75110   1
   6   2  13 4.10251 3.30777   1
  -7  -2   6 472.281 26.1480  -2
   7   2  13 472.281 26.1480   1
  -8  -2   5 37.5659 8.07452  -2
   8   2  13 37.5659 8.07452   1
  -9  -2   4 913.342 25.8762  -2
   9   2  13 913.342 25.8762   1
 -10  -2   3 193.762 11.7518  -2
  10   2  13 193.762 11.7518   1
 -11  -2   2 90.1239 9.76883  -2
  11   2  13 90.1239 9.76883   1
 -12  -2   1 98.1654 11.0468  -2
  12   2  13 98.1654 11.0468   1
  13   2   0 524.469 19.7419  -2
  13   2  13 524.469 19.7419   1
  14   2   1 636.834 25.7684  -2
  14   2  13 636.834 25.7684   1
  15   2   2 258.777 19.9541  -2
  15   2  13 258.777 19.9541   1
  16   2   3 1132.09 85.9666  -2
  16   2  13 1132.09 85.9666   1
  17   2   4 200.567 49.5854  -2
  17   2  13 200.567 49.5854   1
   6  -3  17 -2.9854 24.8553  -2
  -6   3  13 -2.9854 24.8553   1
   5  -3  16 -10.133 9.84480  -2
  -5   3  13 -10.133 9.84480   1
  -4   3  13 28.4932 8.36981   1
   3  -3  15 720.605 46.4883  -2
  -3   3  13 720.605 46.4883   1
   2  -3  14 13.0929 15.5290  -2
  -2   3  13 13.0929 15.5290   1
   1  -3  13 8.05513 15.8650  -2
  -1   3  13 8.05513 15.8650   1
   0  -3  12 109.119 14.5958  -2
   0   3  13 109.119 14.5958   1
  -1  -3  11 38.7534 10.8621  -2
   1   3  13 38.7534 10.8621   1
  -2  -3  10 44.5336 10.9145  -2
   2   3  13 44.5336 10.9145   1
  -3  -3   9 173.774 15.2676  -2
   3   3  13 173.774 15.2676   1
  -4  -3   8 82.4783 9.12736  -2
   4   3  13 82.4783 9.12736   1
  -5  -3   7 104.409 6.43463  -2
   5   3  13 104.409 6.43463   1
  -6  -3   6 805.810 24.4731  -2
   6   3  13 805.810 24.4731   1
  -7  -3   5 266.655 11.6145  -2
   7   3  13 266.655 11.6145   1
  -8  -3   4 251.904 15.2656  -2
   8   3  13 251.904 15.2656   1
  -9  -3   3 337.345 19.3637  -2
   9   3  13 337.345 19.3637   1
 -10  -3   2 359.826 30.6422  -2
  10   3  13 359.826 30.6422   1
  11   3  13 561.980 20.7389   1
  12   3  13 87.7943 7.96284   1
  13   3   0 236.359 24.6573  -2
  13   3  13 236.359 24.6573   1
  14   3   1 437.965 20.9214  -2
  14   3  13 437.965 20.9214   1
  15   3   2 430.403 25.8362  -2
  15   3  13 430.403 25.8362   1
  16   3   3 97.2651 27.7327  -2
  16   3  13 97.2651 27.7327   1
  17   3   4 7.13258 42.8809  -2
  17   3  13 7.13258 42.8809   1
   6  -4  17 125.561 23.4673  -2
  -6   4  13 125.561 23.4673   1
   5  -4  16 69.4040 13.8347  -2
  -5   4  13 69.4040 13.8347   1
   4  -4  15 29.0955 13.2989  -2
  -4   4  13 29.0955 13.2989   1
   3  -4  14 242.974 18.3633  -2
  -3   4  13 242.974 18.3633   1
   2  -4  13 101.478 15.8034  -2
  -2   4  13 101.478 15.8034   1
   1  -4  12 32.2021 12.2930  -2
  -1   4  13 32.2021 12.2930   1
   0  -4  11 69.7568 13.1724  -2
   0   4  13 69.7568 13.1724   1
  -1  -4  10 346.556 22.2716  -2
   1   4  13 346.556 22.2716   1
   2   4  13 5.95018 5.09616   1
   3   4  13 74.6821 6.93260   1
   4   4  13 93.9000 7.51122   1
  -5  -4   7 49.3118 12.6151  -2
   5   4  13 49.3118 12.6151   1
  -6  -4   6 31.2101 6.29705  -2
   6   4  13 31.2101 6.29705   1
  -7  -4   5 52.7835 7.33591  -2
   7   4  13 52.7835 7.33591   1
  -8  -4   4 143.882 9.44061  -2
   8   4  13 143.882 9.44061   1
  -9  -4   3 605.160 20.1648  -2
   9   4  13 605.160 20.1648   1
 -10  -4   2 609.229 32.7318  -2
  10   4  13 609.229 32.7318   1
 -11  -4   1 125.855 10.7362  -2
  11   4  13 125.855 10.7362   1
  12   4   0 818.010 30.2811  -2
  12   4  13 818.010 30.2811   1
  13   4   1 239.823 15.2270  -2
  13   4  13 239.823 15.2270   1
  14   4   2 277.190 17.1208  -2
  14   4  13 277.190 17.1208   1
  15   4   3 221.848 21.4772  -2
  15   4  13 221.848 21.4772   1
  16   4   4 57.0930 47.3732  -2
  16   4  13 57.0930 47.3732   1
  17   4   5 66.5758 53.7791  -2
  17   4  13 66.5758 53.7791   1
  -6   5  13 116.549 13.3094   1
   5  -5  16 222.835 28.7375  -2
  -5   5  13 222.835 28.7375   1
   4  -5  15 73.6433 18.7244  -2
  -4   5  13 73.6433 18.7244   1
   3  -5  14 0.41993 13.8202  -2
  -3   5  13 0.41993 13.8202   1
   2  -5  13 818.546 29.5898  -2
  -2   5  13 818.546 29.5898   1
   1  -5  12 88.9212 10.4119  -2
  -1   5  13 88.9212 10.4119   1
   0  -5  11 51.1401 9.48126  -2
   0   5  13 51.1401 9.48126   1
  -1  -5  10 556.944 23.3522  -2
   1   5  13 556.944 23.3522   1
  -2  -5   9 314.385 13.6072  -2
   2   5  13 314.385 13.6072   1
  -3  -5   8 75.8342 10.0421  -2
   3   5  13 75.8342 10.0421   1
  -4  -5   7 256.552 14.5325  -2
   4   5  13 256.552 14.5325   1
  -5  -5   6 149.304 11.8918  -2
   5   5  13 149.304 11.8918   1
  -6  -5   5 348.036 12.2972  -2
   6   5  13 348.036 12.2972   1
  -7  -5   4 98.9986 13.0402  -2
   7   5  13 98.9986 13.0402   1
  -8  -5   3 73.8576 20.1914  -2
   8   5  13 73.8576 20.1914   1
   9   5  13 4.95378 4.75518   1
  10   5  13 37.7337 5.73215   1
 -11  -5   1 131.939 14.3920  -2
  11   5  13 131.939 14.3920   1
  12   5   0 334.447 15.5236  -2
  12   5  13 334.447 15.5236   1
  13   5   1 24.4020 13.1556  -2
  13   5  13 24.4020 13.1556   1
  14   5   2 197.584 16.4605  -2
  14   5  13 197.584 16.4605   1
  15   5   3 76.3575 16.2820  -2
  15   5  13 76.3575 16.2820   1
  16   5   4 35.6294 18.9241  -2
  16   5  13 35.6294 18.9241   1
  17   5   5 10.4487 35.9534  -2
  17   5  13 10.4487 35.9534   1
   6  -6  16 -6.2276 36.8281  -2
  -6   6  13 -6.2276 36.8281   1
   5  -6  15 9.90084 13.6776  -2
  -5   6  13 9.90084 13.6776   1
   4  -6  14 10.8226 12.3467  -2
  -4   6  13 10.8226 12.3467   1
   3  -6  13 19.1445 11.8660  -2
  -3   6  13 19.1445 11.8660   1
   2  -6  12 40.7848 13.5180  -2
  -2   6  13 40.7848 13.5180   1
  -1   6  13 1.45629 4.93832   1
   0   6  13 126.201 8.66447   1
  -1  -6  10 185.454 19.8231  -2
   1   6  13 185.454 19.8231   1
  -2  -6   9 252.834 14.3117  -2
   2   6  13 252.834 14.3117   1
  -3  -6   8 81.7870 9.70273  -2
   3   6  13 81.7870 9.70273   1
  -4  -6   7 53.8589 9.42962  -2
   4   6  13 53.8589 9.42962   1
  -5  -6   6 126.267 6.25693  -2
   5   6  13 126.267 6.25693   1
  -6  -6   5 995.586 28.9436  -2
   6   6  13 995.586 28.9436   1
  -7  -6   4 391.921 13.2683  -2
   7   6  13 391.921 13.2683   1
  -8  -6   3 476.657 17.2937  -2
   8   6  13 476.657 17.2937   1
  -9  -6   2 532.097 17.8855  -2
   9   6  13 532.097 17.8855   1
 -10  -6   1 377.020 15.6808  -2
  10   6  13 377.020 15.6808   1
  11   6   0 3.31891 12.3171  -2
  11   6  13 3.31891 12.3171   1
  12   6   1 150.827 11.8708  -2
  12   6  13 150.827 11.8708   1
  13   6   2 367.302 23.8067  -2
  13   6  13 367.302 23.8067   1
  14   6   3 184.600 20.0545  -2
  14   6  13 184.600 20.0545   1
  15   6   4 545.180 50.0366  -2
  15   6  13 545.180 50.0366   1
  16   6  13 60.2428 14.6235   1
  -6   7  13 259.188 21.8526   1
   5  -7  15 47.1660 24.6094  -2
  -5   7  13 47.1660 24.6094   1
   4  -7  14 26.7415 7.08132  -2
  -4   7  13 26.7415 7.08132   1
   3  -7  13 10.9135 18.1345  -2
  -3   7  13 10.9135 18.1345   1
   2  -7  12 25.7167 21.8675  -2
  -2   7  13 25.7167 21.8675   1
   1  -7  11 171.496 24.7759  -2
  -1   7  13 171.496 24.7759   1
   0  -7  10 466.413 27.2780  -2
   0   7  13 466.413 27.2780   1
  -1  -7   9 246.839 28.3307  -2
   1   7  13 246.839 28.3307   1
  -2  -7   8 34.6622 15.1361  -2
   2   7  13 34.6622 15.1361   1
  -3  -7   7 116.111 16.4326  -2
   3   7  13 116.111 16.4326   1
   4   7  13 366.450 21.6134   1
   5   7  13 26.4491 3.19130   1
   6   7  13 3.59747 2.95991   1
   7   7  13 32.3403 4.16915   1
  -8  -7   3 451.068 16.7731  -2
   8   7  13 451.068 16.7731   1
  -9  -7   2 1505.69 49.2758  -2
   9   7  13 1505.69 49.2758   1
 -10  -7   1 309.590 14.5027  -2
  10   7  13 309.590 14.5027   1
  11   7   0 222.120 12.1607  -2
  11   7  13 222.120 12.1607   1
  12   7   1 895.051 29.1196  -2
  12   7  13 895.051 29.1196   1
  13   7   2 546.238 18.7249  -2
  13   7  13 546.238 18.7249   1
  14   7   3 105.735 13.2791  -2
  14   7  13 105.735 13.2791   1
  15   7   4 55.0705 14.6397  -2
  15   7  13 55.0705 14.6397   1
  16   7   5 492.886 29.6029  -2
  16   7  13 492.886 29.6029   1
   5  -8  14 -13.872 27.9877  -2
  -5   8  13 -13.872 27.9877   1
   4  -8  13 6.02822 38.2000  -2
  -4   8  13 6.02822 38.2000   1
  -3   8  13 395.299 18.4307   1
   2  -8  12 54.2463 36.7579  -2
  -2   8  13 54.2463 36.7579   1
  -1   8  13 67.9777 10.0514   1
   0  -8  10 187.371 34.0917  -2
   0   8  13 187.371 34.0917   1
  -1  -8   9 126.560 25.5451  -2
   1   8  13 126.560 25.5451   1
  -2  -8   8 444.070 37.0365  -2
   2   8  13 444.070 37.0365   1
  -3  -8   7 36.4058 17.3440  -2
   3   8  13 36.4058 17.3440   1
  -4  -8   6 219.347 23.8853  -2
   4   8  13 219.347 23.8853   1
  -5  -8   5 160.864 8.30054  -2
   5   8  13 160.864 8.30054   1
  -6  -8   4 148.998 10.8342  -2
   6   8  13 148.998 10.8342   1
  -7  -8   3 56.7049 10.1337  -2
   7   8  13 56.7049 10.1337   1
  -8  -8   2 108.361 11.2949  -2
   8   8  13 108.361 11.2949   1
  -9  -8   1 988.972 29.2144  -2
   9   8  13 988.972 29.2144   1
  10   8   0 292.161 17.2396  -2
  10   8  13 292.161 17.2396   1
  11   8   1 156.989 14.2629  -2
  11   8  13 156.989 14.2629   1
  12   8   2 78.6292 18.0440  -2
  12   8  13 78.6292 18.0440   1
  13   8   2 274.343 33.9111  -2
  13   8  13 274.343 33.9111   1
  14   8   3 59.9060 19.8371  -2
  14   8  13 59.9060 19.8371   1
  15   8   4 22.9437 24.3050  -2
  15   8  13 22.9437 24.3050   1
   5  -9  14 566.874 47.5880  -2
  -5   9  13 566.874 47.5880   1
   4  -9  13 101.802 19.6597  -2
  -4   9  13 101.802 19.6597   1
   3  -9  12 112.037 11.9832  -2
  -3   9  13 112.037 11.9832   1
   2  -9  11 -20.231 23.0936  -2
  -2   9  13 -20.231 23.0936   1
   1  -9  10 122.349 12.6865  -2
  -1   9  13 122.349 12.6865   1
   0  -9   9 264.230 18.9530  -2
   0   9  13 264.230 18.9530   1
  -1  -9   8 464.494 27.7402  -2
   1   9  13 464.494 27.7402   1
   2   9  13 426.611 23.8829   1
   3   9  13 38.8281 7.69744   1
   4   9  13 228.973 16.4843   1
   5   9  13 159.107 7.22936   1
  -6  -9   4 299.678 18.7179  -2
   6   9  13 299.678 18.7179   1
  -7  -9   3 284.808 16.9308  -2
   7   9  13 284.808 16.9308   1
  -8  -9   2 79.4459 11.8394  -2
   8   9  13 79.4459 11.8394   1
  -9  -9   1 27.2746 25.2153  -2
   9   9  13 27.2746 25.2153   1
  10   9   0 425.660 27.2143  -2
  10   9  13 425.660 27.2143   1
  11   9   1 131.201 8.20146  -2
  11   9  13 131.201 8.20146   1
  12   9   2 193.786 10.9422  -2
  12   9  13 193.786 10.9422   1
  13   9   3 282.550 16.4969  -2
  13   9  13 282.550 16.4969   1
  14   9   4 491.158 28.6173  -2
  14   9  13 491.158 28.6173   1
  15   9   5 73.0972 38.1746  -2
  15   9  13 73.0972 38.1746   1
  -5  10  13 9.48117 9.61725   1
   4 -10  13 174.529 42.7080  -2
  -4  10  13 174.529 42.7080   1
   3 -10  12 99.6648 14.4480  -2
  -3  10  13 99.6648 14.4480   1
   2 -10  11 68.6079 13.0690  -2
  -2  10  13 68.6079 13.0690   1
   1 -10  10 106.690 14.9166  -2
  -1  10  13 106.690 14.9166   1
   0 -10   9 67.5478 10.3158  -2
   0  10  13 67.5478 10.3158   1
  -1 -10   8 41.6565 9.03125  -2
   1  10  13 41.6565 9.03125   1
  -2 -10   7 295.872 19.0416  -2
   2  10  13 295.872 19.0416   1
  -3 -10   6 57.5076 12.3975  -2
   3  10  13 57.5076 12.3975   1
  -4 -10   5 46.8173 4.94261  -2
   4  10  13 46.8173 4.94261   1
  -5 -10   4 198.763 10.1419  -2
   5  10  13 198.763 10.1419   1
  -6 -10   3 327.894 23.6403  -2
   6  10  13 327.894 23.6403   1
  -7 -10   2 405.992 21.4714  -2
   7  10  13 405.992 21.4714   1
  -8 -10   1 123.807 22.1840  -2
   8  10  13 123.807 22.1840   1
   9  10  13 -3.0860 10.7368   1
  10  10  13 8.37405 8.06371   1
  11  10   1 337.957 34.6514  -2
  11  10  13 337.957 34.6514   1
  12  10   2 466.660 35.1258  -2
  12  10  13 466.660 35.1258   1
  13  10   3 91.9126 26.8435  -2
  13  10  13 91.9126 26.8435   1
  14  10   4 514.962 47.9524  -2
  14  10  13 514.962 47.9524   1
   4 -11  12 51.8016 21.7120  -2
  -4  11  13 51.8016 21.7120   1
   3 -11  11 148.885 17.8867  -2
  -3  11  13 148.885 17.8867   1
   2 -11  10 27.1310 21.1185  -2
  -2  11  13 27.1310 21.1185   1
   1 -11   9 66.5979 16.3896  -2
  -1  11  13 66.5979 16.3896   1
   0  11  13 54.0449 6.78921   1
   1  11  13 9.78903 5.52433   1
   2  11  13 -9.4603 5.79114   1
  -3 -11   6 70.4884 16.3114  -2
   3  11  13 70.4884 16.3114   1
  -4 -11   5 24.9099 6.08657  -2
   4  11  13 24.9099 6.08657   1
  -5 -11   4 78.1859 8.78869  -2
   5  11  13 78.1859 8.78869   1
  -6 -11   3 446.064 20.6819  -2
   6  11  13 446.064 20.6819   1
  -7 -11   2 403.364 36.6067  -2
   7  11  13 403.364 36.6067   1
  -8 -11   1 39.2217 10.3029  -2
   8  11  13 39.2217 10.3029   1
   9  11   0 276.031 16.9032  -2
   9  11  13 276.031 16.9032   1
  10  11   1 267.402 16.5468  -2
  10  11  13 267.402 16.5468   1
  11  11   2 432.173 24.8001  -2
  11  11  13 432.173 24.8001   1
  12  11   3 185.732 24.6561  -2
  12  11  13 185.732 24.6561   1
  13  11   4 33.7897 26.7254  -2
  13  11  13 33.7897 26.7254   1
   3 -12  11 13.1515 19.9783  -2
  -3  12  13 13.1515 19.9783   1
   2 -12  10 53.8360 28.4104  -2
  -2  12  13 53.8360 28.4104   1
   1 -12   9 700.354 36.2164  -2
  -1  12  13 700.354 36.2164   1
   0 -12   8 132.997 14.9332  -2
   0  12  13 132.997 14.9332   1
  -1 -12   7 68.6758 13.0094  -2
   1  12  13 68.6758 13.0094   1
  -2 -12   6 108.901 14.2569  -2
   2  12  13 108.901 14.2569   1
  -3 -12   5 429.957 18.5512  -2
   3  12  13 429.957 18.5512   1
  -4 -12   4 46.2221 9.37836  -2
   4  12  13 46.2221 9.37836   1
   5  12  13 -0.2869 7.08154   1
   6  12  13 299.796 19.4574   1
   7  12  13 29.1597 8.12359   1
   8  12  13 18.8119 7.99725   1
   9  12   0 225.867 29.0865  -2
   9  12  13 225.867 29.0865   1
  10  12   1 80.6182 16.3451  -2
  10  12  13 80.6182 16.3451   1
  11  12   2 257.606 22.8141  -2
  11  12  13 257.606 22.8141   1
  12  12   3 307.073 21.5405  -2
  12  12  13 307.073 21.5405   1
  13  12  13 82.2263 30.4225   1
  -2  13  13 223.560 19.2398   1
   1 -13   9 113.727 27.5541  -2
  -1  13  13 113.727 27.5541   1
   0 -13   8 25.3943 18.0411  -2
   0  13  13 25.3943 18.0411   1
  -1 -13   7 142.349 16.4129  -2
   1  13  13 142.349 16.4129   1
  -2 -13   6 109.523 14.8471  -2
   2  13  13 109.523 14.8471   1
  -3 -13   5 803.741 27.1755  -2
   3  13  13 803.741 27.1755   1
  -4 -13   4 -3.2736 8.97747  -2
   4  13  13 -3.2736 8.97747   1
  -5 -13   3 33.9987 9.15256  -2
   5  13  13 33.9987 9.15256   1
  -6 -13   2 292.463 12.8853  -2
   6  13  13 292.463 12.8853   1
  -7 -13   1 214.796 19.4970  -2
   7  13  13 214.796 19.4970   1
   8  13   0 98.1551 18.8632  -2
   8  13  13 98.1551 18.8632   1
   9  13   1 -18.300 20.1704  -2
   9  13  13 -18.300 20.1704   1
  10  13   2 123.446 25.7200  -2
  10  13  13 123.446 25.7200   1
  11  13   3 148.761 29.0438  -2
  11  13  13 148.761 29.0438   1
   1 -14   8 527.452 43.4282  -2
  -1  14  13 527.452 43.4282   1
   0 -14   7 111.439 16.6789  -2
   0  14  13 111.439 16.6789   1
  -1 -14   6 32.1983 16.7997  -2
   1  14  13 32.1983 16.7997   1
  -2 -14   5 10.9282 10.6552  -2
   2  14  13 10.9282 10.6552   1
  -3 -14   4 -19.337 13.2811  -2
   3  14  13 -19.337 13.2811   1
   4  14  13 25.9831 5.39119   1
  -5 -14   3 407.862 33.0399  -2
   5  14  13 407.862 33.0399   1
  -6 -14   2 193.527 19.6367  -2
   6  14  13 193.527 19.6367   1
  -7 -14   1 172.169 36.5261  -2
   7  14  13 172.169 36.5261   1
   9  14   1 104.222 28.0765  -2
   9  14  13 104.222 28.0765   1
  10  14   2 58.9829 30.0842  -2
  10  14  13 58.9829 30.0842   1
  -1 -15   6 24.1348 25.0912  -2
   1  15  13 24.1348 25.0912   1
  -2 -15   5 77.8592 24.6472  -2
   2  15  13 77.8592 24.6472   1
  -3 -15   4 64.4174 21.4050  -2
   3  15  13 64.4174 21.4050   1
  -4 -15   3 42.2462 15.6392  -2
   4  15  13 42.2462 15.6392   1
  -5 -15   2 53.4354 13.8938  -2
   5  15  13 53.4354 13.8938   1
  -6 -15   1 -20.801 24.8178  -2
   6  15  13 -20.801 24.8178   1
   7  15   0 141.178 20.3595  -2
   7  15  13 141.178 20.3595   1
  -4   9  14 496.325 30.4052  -2
   4  -9  14 496.325 30.4052   1
  -5   9  13 225.798 22.2756  -2
   5  -9  14 225.798 22.2756   1
  -6   9  12 89.1650 16.7571  -2
   6  -9  14 89.1650 16.7571   1
  -7   9  11 258.601 21.3280  -2
   7  -9  14 258.601 21.3280   1
  -8   9  10 61.4938 23.7166  -2
   8  -9  14 61.4938 23.7166   1
  -9   9   9 159.094 27.0798  -2
   9  -9  14 159.094 27.0798   1
 -10   9   8 179.913 28.9807  -2
  10  -9  14 179.913 28.9807   1
  -2   8  15 247.767 33.8838  -2
   2  -8  14 247.767 33.8838   1
   3  -8  14 -5.9469 8.07819   1
  -4   8  14 387.651 39.1169  -2
   4  -8  14 387.651 39.1169   1
  -5   8  13 47.8086 18.2866  -2
   5  -8  14 47.8086 18.2866   1
  -6   8  12 56.7505 18.6274  -2
   6  -8  14 56.7505 18.6274   1
  -7   8  11 28.7092 17.3606  -2
   7  -8  14 28.7092 17.3606   1
  -8   8  10 495.414 26.9220  -2
   8  -8  14 495.414 26.9220   1
  -9   8   9 74.7148 16.2276  -2
   9  -8  14 74.7148 16.2276   1
 -10   8   8 115.153 15.6567  -2
  10  -8  14 115.153 15.6567   1
 -11   8   7 246.811 24.1620  -2
  11  -8  14 246.811 24.1620   1
 -12   8   6 187.965 25.0765  -2
  12  -8  14 187.965 25.0765   1
   0   7  17 263.759 29.9982  -2
   0  -7  14 263.759 29.9982   1
  -1   7  16 87.7921 15.9963  -2
   1  -7  14 87.7921 15.9963   1
  -2   7  15 31.3542 14.1671  -2
   2  -7  14 31.3542 14.1671   1
  -3   7  14 292.818 15.3820  -2
   3  -7  14 292.818 15.3820   1
  -4   7  13 25.4667 12.0598  -2
   4  -7  14 25.4667 12.0598   1
  -5   7  12 107.489 17.7014  -2
   5  -7  14 107.489 17.7014   1
  -6   7  11 84.5060 13.5817  -2
   6  -7  14 84.5060 13.5817   1
  -7   7  10 94.0904 14.4095  -2
   7  -7  14 94.0904 14.4095   1
  -8   7   9 79.2370 19.0031  -2
   8  -7  14 79.2370 19.0031   1
   9  -7  14 68.0732 10.7860   1
 -10   7   8 155.712 36.9264  -2
  10  -7  14 155.712 36.9264   1
 -11   7   7 195.586 29.9240  -2
  11  -7  14 195.586 29.9240   1
 -12   7   6 162.215 30.1536  -2
  12  -7  14 162.215 30.1536   1
 -13   7   5 58.8138 25.9878  -2
  13  -7  14 58.8138 25.9878   1
   1   6  17 103.342 29.6093  -2
  -1  -6  14 103.342 29.6093   1
   0  -6  14 11.4248 9.17455   1
  -1   6  16 -13.097 21.7206  -2
   1  -6  14 -13.097 21.7206   1
  -2   6  15 88.9875 19.5118  -2
   2  -6  14 88.9875 19.5118   1
  -3   6  14 318.497 17.5662  -2
   3  -6  14 318.497 17.5662   1
  -4   6  13 16.6116 12.5245  -2
   4  -6  14 16.6116 12.5245   1
  -5   6  12 593.702 24.9822  -2
   5  -6  14 593.702 24.9822   1
  -6   6  11 62.6189 10.8852  -2
   6  -6  14 62.6189 10.8852   1
  -7   6  10 269.218 14.5136  -2
   7  -6  14 269.218 14.5136   1
  -8   6   9 77.2703 11.2998  -2
   8  -6  14 77.2703 11.2998   1
  -9   6   8 90.4882 11.5506  -2
   9  -6  14 90.4882 11.5506   1
 -10   6   7 221.529 14.7946  -2
  10  -6  14 221.529 14.7946   1
 -11   6   6 56.8764 15.6552  -2
  11  -6  14 56.8764 15.6552   1
 -12   6   5 54.2363 16.8785  -2
  12  -6  14 54.2363 16.8785   1
 -13   6   4 54.8901 22.8738  -2
  13  -6  14 54.8901 22.8738   1
 -14   6   3 374.250 35.5073  -2
  14  -6  14 374.250 35.5073   1
   2   5  18 180.827 20.5685  -2
  -2  -5  14 180.827 20.5685   1
   1   5  17 51.9988 13.8210  -2
  -1  -5  14 51.9988 13.8210   1
   0   5  16 29.6525 13.5924  -2
   0  -5  14 29.6525 13.5924   1
  -1   5  15 177.453 25.7422  -2
   1  -5  14 177.453 25.7422   1
  -2   5  14 43.8274 17.0484  -2
   2  -5  14 43.8274 17.0484   1
  -3   5  13 -0.8662 11.1835  -2
   3  -5  14 -0.8662 11.1835   1
  -4   5  12 193.971 13.4135  -2
   4  -5  14 193.971 13.4135   1
  -5   5  11 62.3985 17.9517  -2
   5  -5  14 62.3985 17.9517   1
  -6   5  10 184.750 37.3306  -2
   6  -5  14 184.750 37.3306   1
   7  -5  14 371.399 14.2788   1
  -8   5   9 360.544 23.6220  -2
   8  -5  14 360.544 23.6220   1
  -9   5   8 128.737 13.8592  -2
   9  -5  14 128.737 13.8592   1
 -10   5   7 316.391 16.3796  -2
  10  -5  14 316.391 16.3796   1
 -11   5   6 9.52877 13.4144  -2
  11  -5  14 9.52877 13.4144   1
 -12   5   5 57.5694 14.6898  -2
  12  -5  14 57.5694 14.6898   1
 -13   5   4 153.131 15.2384  -2
  13  -5  14 153.131 15.2384   1
 -14   5   3 192.556 19.1823  -2
  14  -5  14 192.556 19.1823   1
 -15   5   2 47.6062 24.5373  -2
  15  -5  14 47.6062 24.5373   1
  -2  -4  14 1.36938 10.6528   1
   1   4  17 49.0269 30.9477  -2
  -1  -4  14 49.0269 30.9477   1
   0   4  16 45.2100 17.0590  -2
   0  -4  14 45.2100 17.0590   1
  -1   4  15 67.7699 14.9489  -2
   1  -4  14 67.7699 14.9489   1
  -2   4  14 248.450 15.2873  -2
   2  -4  14 248.450 15.2873   1
  -3   4  13 229.770 13.9888  -2
   3  -4  14 229.770 13.9888   1
  -4   4  12 88.5057 8.28865  -2
   4  -4  14 88.5057 8.28865   1
  -5   4  11 246.152 11.0626  -2
   5  -4  14 246.152 11.0626   1
  -6   4  10 280.130 12.7026  -2
   6  -4  14 280.130 12.7026   1
  -7   4   9 27.1181 13.5764  -2
   7  -4  14 27.1181 13.5764   1
  -8   4   8 140.216 16.1702  -2
   8  -4  14 140.216 16.1702   1
  -9   4   7 48.9911 11.3433  -2
   9  -4  14 48.9911 11.3433   1
 -10   4   6 182.155 13.6412  -2
  10  -4  14 182.155 13.6412   1
 -11   4   5 162.654 16.6011  -2
  11  -4  14 162.654 16.6011   1
 -12   4   4 21.8713 16.7459  -2
  12  -4  14 21.8713 16.7459   1
 -13   4   3 147.547 26.4866  -2
  13  -4  14 147.547 26.4866   1
 -14   4   3 155.519 41.3653  -2
  14  -4  14 155.519 41.3653   1
 -15   4   2 48.7091 28.7384  -2
  15  -4  14 48.7091 28.7384   1
   3   3  18 -0.2522 17.3409  -2
  -3  -3  14 -0.2522 17.3409   1
   2   3  17 158.207 16.3954  -2
  -2  -3  14 158.207 16.3954   1
   1   3  16 -2.6844 13.5468  -2
  -1  -3  14 -2.6844 13.5468   1
   0   3  15 261.966 15.4244  -2
   0  -3  14 261.966 15.4244   1
  -1   3  14 138.412 13.4546  -2
   1  -3  14 138.412 13.4546   1
  -2   3  13 6.54702 12.2819  -2
   2  -3  14 6.54702 12.2819   1
  -3   3  12 284.619 37.5660  -2
   3  -3  14 284.619 37.5660   1
   4  -3  14 264.975 10.5912   1
  -5   3  11 122.472 20.9980  -2
   5  -3  14 122.472 20.9980   1
  -6   3  10 288.474 16.2131  -2
   6  -3  14 288.474 16.2131   1
  -7   3   9 20.9702 13.5977  -2
   7  -3  14 20.9702 13.5977   1
  -8   3   8 21.9804 10.4949  -2
   8  -3  14 21.9804 10.4949   1
  -9   3   7 126.031 12.5557  -2
   9  -3  14 126.031 12.5557   1
 -10   3   6 43.9158 9.57890  -2
  10  -3  14 43.9158 9.57890   1
 -11   3   5 57.1293 10.2096  -2
  11  -3  14 57.1293 10.2096   1
 -12   3   4 321.107 15.2689  -2
  12  -3  14 321.107 15.2689   1
 -13   3   3 438.994 22.5472  -2
  13  -3  14 438.994 22.5472   1
 -14   3   2 38.5629 14.1191  -2
  14  -3  14 38.5629 14.1191   1
 -15   3   1 36.1289 24.2469  -2
  15  -3  14 36.1289 24.2469   1
  -4  -2  14 -16.921 16.8165   1
   3   2  18 14.5476 42.1195  -2
  -3  -2  14 14.5476 42.1195   1
   2   2  17 6.82441 15.6069  -2
  -2  -2  14 6.82441 15.6069   1
   1   2  16 154.246 15.0990  -2
  -1  -2  14 154.246 15.0990   1
   0   2  15 561.059 21.2496  -2
   0  -2  14 561.059 21.2496   1
  -1   2  14 13.2152 9.35133  -2
   1  -2  14 13.2152 9.35133   1
  -2   2  13 27.5757 8.57199  -2
   2  -2  14 27.5757 8.57199   1
  -3   2  12 68.5265 8.32039  -2
   3  -2  14 68.5265 8.32039   1
  -4   2  11 130.577 9.67732  -2
   4  -2  14 130.577 9.67732   1
  -5   2  10 549.615 18.5879  -2
   5  -2  14 549.615 18.5879   1
  -6   2   9 89.4212 11.2263  -2
   6  -2  14 89.4212 11.2263   1
  -7   2   8 526.579 17.8112  -2
   7  -2  14 526.579 17.8112   1
  -8   2   7 556.606 23.2841  -2
   8  -2  14 556.606 23.2841   1
  -9   2   6 93.3146 15.1433  -2
   9  -2  14 93.3146 15.1433   1
  10  -2  14 97.4910 8.16940   1
  11  -2  14 79.1700 7.24290   1
 -12   2   4 216.445 20.0642  -2
  12  -2  14 216.445 20.0642   1
 -13   2   3 215.644 16.6032  -2
  13  -2  14 215.644 16.6032   1
 -14   2   2 80.9805 16.8467  -2
  14  -2  14 80.9805 16.8467   1
 -15   2   1 87.2928 18.4763  -2
  15  -2  14 87.2928 18.4763   1
 -16   2   0 60.3278 21.8325  -2
  16  -2  14 60.3278 21.8325   1
   4   1  18 23.2548 25.8980  -2
  -4  -1  14 23.2548 25.8980   1
   3   1  17 39.2528 13.6807  -2
  -3  -1  14 39.2528 13.6807   1
   2   1  16 113.767 14.3376  -2
  -2  -1  14 113.767 14.3376   1
   1   1  15 69.6106 12.2472  -2
  -1  -1  14 69.6106 12.2472   1
   0   1  14 199.376 16.3064  -2
   0  -1  14 199.376 16.3064   1
   1  -1  14 21.9708 5.06259   1
  -2   1  13 251.743 37.4019  -2
   2  -1  14 251.743 37.4019   1
  -3   1  12 528.922 24.7342  -2
   3  -1  14 528.922 24.7342   1
  -4   1  11 367.365 16.2324  -2
   4  -1  14 367.365 16.2324   1
  -5   1  10 184.267 12.5042  -2
   5  -1  14 184.267 12.5042   1
  -6   1   9 312.699 14.5881  -2
   6  -1  14 312.699 14.5881   1
  -7   1   8 397.923 14.2981  -2
   7  -1  14 397.923 14.2981   1
  -8   1   7 3.54975 7.70559  -2
   8  -1  14 3.54975 7.70559   1
  -9   1   6 1128.49 34.5077  -2
   9  -1  14 1128.49 34.5077   1
 -10   1   5 90.5832 9.29499  -2
  10  -1  14 90.5832 9.29499   1
 -11   1   4 6.98386 9.53509  -2
  11  -1  14 6.98386 9.53509   1
 -12   1   3 381.148 15.7108  -2
  12  -1  14 381.148 15.7108   1
 -13   1   2 846.203 29.6087  -2
  13  -1  14 846.203 29.6087   1
 -14   1   1 91.9617 17.8909  -2
  14  -1  14 91.9617 17.8909   1
 -15   1   0 22.8675 21.7885  -2
  15  -1  14 22.8675 21.7885   1
  16  -1   1 490.207 55.5787  -2
  16  -1  14 490.207 55.5787   1
   4   0  18 55.4369 29.3414  -2
  -4   0  14 55.4369 29.3414   1
   3   0  17 87.1561 12.0730  -2
  -3   0  14 87.1561 12.0730   1
   2   0  16 51.6438 10.6382  -2
  -2   0  14 51.6438 10.6382   1
   1   0  15 245.145 10.5028  -2
  -1   0  14 245.145 10.5028   1
   0   0  14 10.6311 6.74019  -2
   0   0  14 10.6311 6.74019   1
  -1   0  13 7.28754 4.77425  -2
   1   0  14 7.28754 4.77425   1
  -2   0  12 186.584 10.1229  -2
   2   0  14 186.584 10.1229   1
  -3   0  11 100.669 9.21775  -2
   3   0  14 100.669 9.21775   1
  -4   0  10 172.963 11.7912  -2
   4   0  14 172.963 11.7912   1
  -5   0   9 172.792 13.7829  -2
   5   0  14 172.792 13.7829   1
  -6   0   8 319.169 25.4754  -2
   6   0  14 319.169 25.4754   1
  -7   0   7 -23.117 18.7650  -2
   7   0  14 -23.117 18.7650   1
   8   0  14 70.2453 5.90316   1
  -9   0   6 169.562 23.3563  -2
   9   0  14 169.562 23.3563   1
 -10   0   5 239.703 16.1130  -2
  10   0  14 239.703 16.1130   1
 -11   0   4 6.24589 12.6750  -2
  11   0  14 6.24589 12.6750   1
 -12   0   3 42.5517 10.7715  -2
  12   0  14 42.5517 10.7715   1
 -13   0   2 452.466 17.4281  -2
  13   0  14 452.466 17.4281   1
 -14   0   1 19.0547 12.2274  -2
  14   0  14 19.0547 12.2274   1
  15   0   0 133.809 16.5149  -2
  15   0  14 133.809 16.5149   1
  16   0   1 243.454 24.8463  -2
  16   0  14 243.454 24.8463   1
  17   0   2 -9.2786 21.3967  -2
  17   0  14 -9.2786 21.3967   1
   5  -1  18 29.0392 29.6402  -2
  -5   1  14 29.0392 29.6402   1
   4  -1  17 1.96455 23.5668  -2
  -4   1  14 1.96455 23.5668   1
   3  -1  16 144.252 12.6092  -2
  -3   1  14 144.252 12.6092   1
   2  -1  15 25.0900 13.0159  -2
  -2   1  14 25.0900 13.0159   1
   1  -1  15 65.8798 9.05727  -2
  -1   1  14 65.8798 9.05727   1
   0  -1  14 179.921 35.5553  -2
   0   1  14 179.921 35.5553   1
  -1  -1  13 177.679 10.4504  -2
   1   1  14 177.679 10.4504   1
  -2  -1  12 128.703 10.3269  -2
   2   1  14 128.703 10.3269   1
  -3  -1  11 143.035 10.1386  -2
   3   1  14 143.035 10.1386   1
  -4  -1  10 113.281 9.91979  -2
   4   1  14 113.281 9.91979   1
  -5  -1   9 153.887 10.5524  -2
   5   1  14 153.887 10.5524   1
  -6  -1   8 30.2509 4.80575  -2
   6   1  14 30.2509 4.80575   1
  -7  -1   7 18.9477 7.00805  -2
   7   1  14 18.9477 7.00805   1
  -8  -1   6 127.186 9.15637  -2
   8   1  14 127.186 9.15637   1
  -9  -1   5 54.4953 8.73101  -2
   9   1  14 54.4953 8.73101   1
 -10  -1   4 354.326 16.2102  -2
  10   1  14 354.326 16.2102   1
 -11  -1   3 9.10334 11.0082  -2
  11   1  14 9.10334 11.0082   1
 -12  -1   2 74.4134 17.8992  -2
  12   1  14 74.4134 17.8992   1
 -13  -1   1 100.598 19.9066  -2
  13   1  14 100.598 19.9066   1
 -14  -1   1 109.961 28.7715  -2
  14   1  14 109.961 28.7715   1
  15   1   0 32.5230 29.4901  -2
  15   1  14 32.5230 29.4901   1
  16   1   1 234.527 51.3705  -2
  16   1  14 234.527 51.3705   1
   5  -2  18 187.324 27.9804  -2
  -5   2  14 187.324 27.9804   1
   4  -2  17 24.5876 17.9828  -2
  -4   2  14 24.5876 17.9828   1
   3  -2  16 148.680 15.0372  -2
  -3   2  14 148.680 15.0372   1
   2  -2  15 28.2598 12.7709  -2
  -2   2  14 28.2598 12.7709   1
   1  -2  14 -0.6198 15.4744  -2
  -1   2  14 -0.6198 15.4744   1
   0  -2  13 90.2241 16.4134  -2
   0   2  14 90.2241 16.4134   1
  -1  -2  12 109.370 13.8324  -2
   1   2  14 109.370 13.8324   1
  -2  -2  11 192.496 14.9912  -2
   2   2  14 192.496 14.9912   1
  -3  -2  10 217.776 15.5382  -2
   3   2  14 217.776 15.5382   1
  -4  -2   9 178.779 27.5929  -2
   4   2  14 178.779 27.5929   1
   5   2  14 11.2869 6.43795   1
   6   2  14 49.1229 4.49136   1
  -7  -2   7 161.127 10.1501  -2
   7   2  14 161.127 10.1501   1
  -8  -2   6 797.958 26.3149  -2
   8   2  14 797.958 26.3149   1
  -9  -2   5 316.768 14.3426  -2
   9   2  14 316.768 14.3426   1
 -10  -2   4 672.301 26.2587  -2
  10   2  14 672.301 26.2587   1
 -11  -2   3 888.619 26.0804  -2
  11   2  14 888.619 26.0804   1
 -12  -2   2 502.068 17.5045  -2
  12   2  14 502.068 17.5045   1
 -13  -2   1 72.0670 10.9074  -2
  13   2  14 72.0670 10.9074   1
  14   2   0 551.645 21.6531  -2
  14   2  14 551.645 21.6531   1
  15   2   1 149.719 17.5907  -2
  15   2  14 149.719 17.5907   1
  16   2   2 74.6404 38.0801  -2
  16   2  14 74.6404 38.0801   1
  17   2   3 38.6062 45.1237  -2
  17   2  14 38.6062 45.1237   1
   5  -3  17 -14.517 30.5198  -2
  -5   3  14 -14.517 30.5198   1
  -4   3  14 103.727 13.7062   1
   3  -3  16 73.8624 26.9043  -2
  -3   3  14 73.8624 26.9043   1
   2  -3  15 105.440 21.6333  -2
  -2   3  14 105.440 21.6333   1
   1  -3  14 110.782 16.1339  -2
  -1   3  14 110.782 16.1339   1
   0  -3  13 118.928 14.2705  -2
   0   3  14 118.928 14.2705   1
  -1  -3  12 527.552 25.8331  -2
   1   3  14 527.552 25.8331   1
  -2  -3  11 257.120 16.8319  -2
   2   3  14 257.120 16.8319   1
  -3  -3  10 70.1418 12.0393  -2
   3   3  14 70.1418 12.0393   1
  -4  -3   9 53.7861 11.3757  -2
   4   3  14 53.7861 11.3757   1
  -5  -3   8 240.781 19.0890  -2
   5   3  14 240.781 19.0890   1
  -6  -3   7 355.021 12.7829  -2
   6   3  14 355.021 12.7829   1
  -7  -3   6 134.193 8.51795  -2
   7   3  14 134.193 8.51795   1
  -8  -3   5 104.774 8.38756  -2
   8   3  14 104.774 8.38756   1
  -9  -3   4 254.617 16.7249  -2
   9   3  14 254.617 16.7249   1
 -10  -3   3 78.9065 20.4262  -2
  10   3  14 78.9065 20.4262   1
  11   3  14 87.4580 7.69120   1
  12   3  14 27.2849 6.91319   1
 -13  -3   1 117.526 22.5833  -2
  13   3  14 117.526 22.5833   1
  14   3   0 73.2216 17.6262  -2
  14   3  14 73.2216 17.6262   1
  15   3   1 823.660 33.2937  -2
  15   3  14 823.660 33.2937   1
  16   3   2 221.441 44.7056  -2
  16   3  14 221.441 44.7056   1
  17   3  14 194.098 34.2492   1
   5  -4  17 33.4194 22.9951  -2
  -5   4  14 33.4194 22.9951   1
   4  -4  16 96.0198 24.1042  -2
  -4   4  14 96.0198 24.1042   1
   3  -4  15 34.4934 14.8410  -2
  -3   4  14 34.4934 14.8410   1
   2  -4  14 343.041 21.6048  -2
  -2   4  14 343.041 21.6048   1
   1  -4  13 320.386 21.7061  -2
  -1   4  14 320.386 21.7061   1
   0  -4  12 679.350 26.4720  -2
   0   4  14 679.350 26.4720   1
  -1  -4  11 651.064 36.5702  -2
   1   4  14 651.064 36.5702   1
   2   4  14 42.7352 6.81617   1
   3   4  14 157.941 10.5297   1
  -4  -4   9 384.750 18.1945  -2
   4   4  14 384.750 18.1945   1
  -5  -4   8 201.650 15.1999  -2
   5   4  14 201.650 15.1999   1
  -6  -4   7 153.494 7.54275  -2
   6   4  14 153.494 7.54275   1
  -7  -4   6 30.6773 6.82047  -2
   7   4  14 30.6773 6.82047   1
  -8  -4   5 142.120 9.68816  -2
   8   4  14 142.120 9.68816   1
  -9  -4   4 55.3740 8.17624  -2
   9   4  14 55.3740 8.17624   1
 -10  -4   3 931.279 26.3694  -2
  10   4  14 931.279 26.3694   1
 -11  -4   2 45.6193 14.7423  -2
  11   4  14 45.6193 14.7423   1
 -12  -4   1 6.46627 10.9195  -2
  12   4  14 6.46627 10.9195   1
  13   4   0 164.933 13.8753  -2
  13   4  14 164.933 13.8753   1
  14   4   1 12.1976 17.4359  -2
  14   4  14 12.1976 17.4359   1
  15   4   2 191.307 22.0131  -2
  15   4  14 191.307 22.0131   1
  16   4   3 -23.951 48.0727  -2
  16   4  14 -23.951 48.0727   1
  -5   5  14 8.62553 14.3115   1
   4  -5  16 68.6461 25.6547  -2
  -4   5  14 68.6461 25.6547   1
   3  -5  15 242.145 21.0139  -2
  -3   5  14 242.145 21.0139   1
   2  -5  14 11.3686 13.5348  -2
  -2   5  14 11.3686 13.5348   1
   1  -5  13 90.2003 11.9159  -2
  -1   5  14 90.2003 11.9159   1
   0  -5  12 31.8386 9.80738  -2
   0   5  14 31.8386 9.80738   1
  -1  -5  11 90.6782 9.70789  -2
   1   5  14 90.6782 9.70789   1
  -2  -5  10 214.690 12.0461  -2
   2   5  14 214.690 12.0461   1
  -3  -5   9 277.593 15.4936  -2
   3   5  14 277.593 15.4936   1
  -4  -5   8 278.861 15.5086  -2
   4   5  14 278.861 15.5086   1
  -5  -5   7 283.940 16.6077  -2
   5   5  14 283.940 16.6077   1
  -6  -5   6 27.8733 5.83346  -2
   6   5  14 27.8733 5.83346   1
  -7  -5   5 969.753 35.9404  -2
   7   5  14 969.753 35.9404   1
   8   5  14 125.521 7.06342   1
   9   5  14 85.4599 6.72919   1
 -10  -5   3 122.324 21.0848  -2
  10   5  14 122.324 21.0848   1
 -11  -5   2 147.415 15.3493  -2
  11   5  14 147.415 15.3493   1
 -12  -5   1 176.777 13.8396  -2
  12   5  14 176.777 13.8396   1
  13   5   0 424.131 18.0488  -2
  13   5  14 424.131 18.0488   1
  14   5   1 683.356 23.3377  -2
  14   5  14 683.356 23.3377   1
  15   5   2 337.773 20.3477  -2
  15   5  14 337.773 20.3477   1
  16   5   3 70.4111 22.7501  -2
  16   5  14 70.4111 22.7501   1
   5  -6  16 87.0938 42.2655  -2
  -5   6  14 87.0938 42.2655   1
   4  -6  15 272.797 28.9669  -2
  -4   6  14 272.797 28.9669   1
   3  -6  14 272.678 16.8690  -2
  -3   6  14 272.678 16.8690   1
   2  -6  13 -1.0001 12.9203  -2
  -2   6  14 -1.0001 12.9203   1
  -1   6  14 117.243 8.55058   1
   0   6  14 0.55435 5.23581   1
   1   6  14 55.0413 6.09367   1
  -2  -6  10 428.856 20.3054  -2
   2   6  14 428.856 20.3054   1
  -3  -6   9 281.291 16.1949  -2
   3   6  14 281.291 16.1949   1
  -4  -6   8 236.707 13.7733  -2
   4   6  14 236.707 13.7733   1
  -5  -6   7 134.377 11.5211  -2
   5   6  14 134.377 11.5211   1
  -6  -6   6 445.063 16.3808  -2
   6   6  14 445.063 16.3808   1
  -7  -6   5 94.9335 6.72854  -2
   7   6  14 94.9335 6.72854   1
  -8  -6   4 320.800 16.1140  -2
   8   6  14 320.800 16.1140   1
  -9  -6   3 373.064 13.3003  -2
   9   6  14 373.064 13.3003   1
 -10  -6   2 121.905 9.79226  -2
  10   6  14 121.905 9.79226   1
 -11  -6   1 114.658 17.7567  -2
  11   6  14 114.658 17.7567   1
  12   6   0 358.244 18.2816  -2
  12   6  14 358.244 18.2816   1
  13   6   1 57.1465 14.3874  -2
  13   6  14 57.1465 14.3874   1
  14   6   2 1034.19 45.1761  -2
  14   6  14 1034.19 45.1761   1
  15   6   3 104.572 39.1283  -2
  15   6  14 104.572 39.1283   1
  16   6  14 108.319 16.5940   1
  -5   7  14 -1.3100 15.2771   1
   4  -7  15 66.5727 25.7467  -2
  -4   7  14 66.5727 25.7467   1
   3  -7  14 298.211 40.5302  -2
  -3   7  14 298.211 40.5302   1
   2  -7  13 134.722 20.3985  -2
  -2   7  14 134.722 20.3985   1
   1  -7  12 8.31105 16.4426  -2
  -1   7  14 8.31105 16.4426   1
   0  -7  11 481.178 29.5051  -2
   0   7  14 481.178 29.5051   1
  -1  -7  10 141.568 22.0334  -2
   1   7  14 141.568 22.0334   1
  -2  -7   9 84.1890 22.3799  -2
   2   7  14 84.1890 22.3799   1
  -3  -7   8 44.4976 17.4115  -2
   3   7  14 44.4976 17.4115   1
  -4  -7   7 113.919 30.2204  -2
   4   7  14 113.919 30.2204   1
   5   7  14 0.69131 7.95207   1
   6   7  14 92.6677 4.91837   1
   7   7  14 199.176 8.55918   1
  -8  -7   4 208.448 13.1073  -2
   8   7  14 208.448 13.1073   1
  -9  -7   3 751.018 23.8260  -2
   9   7  14 751.018 23.8260   1
 -10  -7   2 74.5424 10.3261  -2
  10   7  14 74.5424 10.3261   1
 -11  -7   1 103.345 12.0925  -2
  11   7  14 103.345 12.0925   1
  12   7   0 164.125 15.5157  -2
  12   7  14 164.125 15.5157   1
  13   7   1 66.5773 12.1691  -2
  13   7  14 66.5773 12.1691   1
  14   7   2 47.0191 17.2285  -2
  14   7  14 47.0191 17.2285   1
  15   7   3 47.3540 15.1321  -2
  15   7  14 47.3540 15.1321   1
  16   7   4 -23.789 26.9567  -2
  16   7  14 -23.789 26.9567   1
   4  -8  14 373.130 55.0047  -2
  -4   8  14 373.130 55.0047   1
  -3   8  14 52.4184 10.6988   1
   2  -8  13 96.7494 39.9287  -2
  -2   8  14 96.7494 39.9287   1
   1  -8  12 93.0619 23.7532  -2
  -1   8  14 93.0619 23.7532   1
   0  -8  11 393.759 27.8589  -2
   0   8  14 393.759 27.8589   1
  -1  -8  10 300.890 30.9317  -2
   1   8  14 300.890 30.9317   1
  -3  -8   8 159.816 26.7075  -2
   3   8  14 159.816 26.7075   1
  -4  -8   7 286.689 30.2293  -2
   4   8  14 286.689 30.2293   1
  -5  -8   6 347.052 32.8745  -2
   5   8  14 347.052 32.8745   1
  -6  -8   5 416.173 18.6715  -2
   6   8  14 416.173 18.6715   1
  -7  -8   4 459.308 20.2866  -2
   7   8  14 459.308 20.2866   1
  -8  -8   3 387.092 19.4338  -2
   8   8  14 387.092 19.4338   1
  -9  -8   2 102.841 7.88841  -2
   9   8  14 102.841 7.88841   1
 -10  -8   1 651.450 28.8819  -2
  10   8  14 651.450 28.8819   1
  11   8   0 57.1579 17.6463  -2
  11   8  14 57.1579 17.6463   1
  12   8   1 11.4566 25.1250  -2
  12   8  14 11.4566 25.1250   1
  13   8   1 453.140 39.0729  -2
  13   8  14 453.140 39.0729   1
  14   8   2 72.4622 32.2174  -2
  14   8  14 72.4622 32.2174   1
  15   8   3 -16.375 27.5258  -2
  15   8  14 -16.375 27.5258   1
   4  -9  14 433.457 31.1693  -2
  -4   9  14 433.457 31.1693   1
   3  -9  13 187.171 23.2070  -2
  -3   9  14 187.171 23.2070   1
   2  -9  12 11.4630 8.64595  -2
  -2   9  14 11.4630 8.64595   1
   1  -9  11 155.130 20.9211  -2
  -1   9  14 155.130 20.9211   1
   0  -9  10 583.910 47.1426  -2
   0   9  14 583.910 47.1426   1
  -1  -9   9 148.406 28.8758  -2
   1   9  14 148.406 28.8758   1
   2   9  14 4.64433 7.44668   1
   3   9  14 52.3815 16.2386   1
   4   9  14 42.2488 9.97919   1
   5   9  14 116.246 18.5117   1
  -6  -9   5 18.9368 8.73947  -2
   6   9  14 18.9368 8.73947   1
  -7  -9   4 87.4671 14.6206  -2
   7   9  14 87.4671 14.6206   1
  -8  -9   3 5.29046 11.9632  -2
   8   9  14 5.29046 11.9632   1
  -9  -9   2 407.641 18.4882  -2
   9   9  14 407.641 18.4882   1
 -10  -9   1 25.6954 27.5370  -2
  10   9  14 25.6954 27.5370   1
  11   9   0 31.2942 6.47299  -2
  11   9  14 31.2942 6.47299   1
  12   9   1 60.2578 9.12159  -2
  12   9  14 60.2578 9.12159   1
  13   9   2 55.5982 13.0569  -2
  13   9  14 55.5982 13.0569   1
  14   9   3 96.7963 25.4039  -2
  14   9  14 96.7963 25.4039   1
   3 -10  13 177.199 26.0262  -2
  -3  10  14 177.199 26.0262   1
   2 -10  12 14.1367 27.4146  -2
  -2  10  14 14.1367 27.4146   1
   1 -10  11 24.8786 11.5815  -2
  -1  10  14 24.8786 11.5815   1
   0 -10  10 269.463 30.1475  -2
   0  10  14 269.463 30.1475   1
  -1 -10   9 150.826 26.8340  -2
   1  10  14 150.826 26.8340   1
  -2 -10   8 383.558 34.5649  -2
   2  10  14 383.558 34.5649   1
  -3 -10   7 49.1262 13.9810  -2
   3  10  14 49.1262 13.9810   1
  -4 -10   6 219.835 18.7891  -2
   4  10  14 219.835 18.7891   1
  -5 -10   5 170.831 10.3835  -2
   5  10  14 170.831 10.3835   1
  -6 -10   4 615.752 31.5591  -2
   6  10  14 615.752 31.5591   1
  -7 -10   3 60.4792 14.1733  -2
   7  10  14 60.4792 14.1733   1
  -8 -10   2 71.5343 29.7684  -2
   8  10  14 71.5343 29.7684   1
  -9 -10   1 291.039 36.8334  -2
   9  10  14 291.039 36.8334   1
  10  10   0 151.565 27.0964  -2
  10  10  14 151.565 27.0964   1
  11  10   0 254.843 29.3521  -2
  11  10  14 254.843 29.3521   1
  12  10   1 134.788 22.3996  -2
  12  10  14 134.788 22.3996   1
  13  10   2 77.3050 20.7455  -2
  13  10  14 77.3050 20.7455   1
  14  10   3 169.472 27.3721  -2
  14  10  14 169.472 27.3721   1
   3 -11  12 168.443 25.8507  -2
  -3  11  14 168.443 25.8507   1
   2 -11  11 206.356 25.3912  -2
  -2  11  14 206.356 25.3912   1
   1 -11  10 104.349 21.7926  -2
  -1  11  14 104.349 21.7926   1
   0 -11   9 58.8242 18.9621  -2
   0  11  14 58.8242 18.9621   1
   1  11  14 -8.3418 9.69789   1
   2  11  14 119.595 10.9009   1
  -3 -11   7 143.056 32.1876  -2
   3  11  14 143.056 32.1876   1
  -4 -11   6 113.807 18.1051  -2
   4  11  14 113.807 18.1051   1
  -5 -11   5 273.390 12.6081  -2
   5  11  14 273.390 12.6081   1
  -6 -11   4 667.700 26.1203  -2
   6  11  14 667.700 26.1203   1
  -7 -11   3 46.4671 11.3991  -2
   7  11  14 46.4671 11.3991   1
  -8 -11   2 95.7958 14.5226  -2
   8  11  14 95.7958 14.5226   1
  -9 -11   1 146.984 16.2005  -2
   9  11  14 146.984 16.2005   1
  10  11   0 95.4494 16.9482  -2
  10  11  14 95.4494 16.9482   1
  11  11   1 435.693 21.5910  -2
  11  11  14 435.693 21.5910   1
  12  11   2 -19.626 23.4970  -2
  12  11  14 -19.626 23.4970   1
  13  11   3 30.2702 26.2141  -2
  13  11  14 30.2702 26.2141   1
   2 -12  11 614.689 53.1255  -2
  -2  12  14 614.689 53.1255   1
   1 -12  10 38.6768 20.3971  -2
  -1  12  14 38.6768 20.3971   1
   0 -12   9 36.6714 13.1603  -2
   0  12  14 36.6714 13.1603   1
  -1 -12   8 127.890 12.5429  -2
   1  12  14 127.890 12.5429   1
  -2 -12   7 256.980 20.3862  -2
   2  12  14 256.980 20.3862   1
  -3 -12   6 729.836 37.6811  -2
   3  12  14 729.836 37.6811   1
  -4 -12   5 164.053 25.8541  -2
   4  12  14 164.053 25.8541   1
  -5 -12   4 113.041 11.8124  -2
   5  12  14 113.041 11.8124   1
  -6 -12   3 186.487 20.1964  -2
   6  12  14 186.487 20.1964   1
  -7 -12   2 792.803 53.5301  -2
   7  12  14 792.803 53.5301   1
   8  12  14 151.717 16.8234   1
   9  12  14 12.8684 16.6614   1
  10  12   0 837.149 38.9556  -2
  10  12  14 837.149 38.9556   1
  11  12   1 67.4120 40.3433  -2
  11  12  14 67.4120 40.3433   1
  12  12   2 266.865 31.8122  -2
  12  12  14 266.865 31.8122   1
  -1  13  14 224.790 29.8978   1
   0 -13   9 40.4240 32.5344  -2
   0  13  14 40.4240 32.5344   1
  -1 -13   8 38.8974 17.9496  -2
   1  13  14 38.8974 17.9496   1
  -2 -13   7 553.848 30.9069  -2
   2  13  14 553.848 30.9069   1
  -3 -13   6 55.9685 15.4164  -2
   3  13  14 55.9685 15.4164   1
  -4 -13   5 216.633 12.4353  -2
   4  13  14 216.633 12.4353   1
  -5 -13   4 71.9601 9.73861  -2
   5  13  14 71.9601 9.73861   1
  -6 -13   3 112.103 15.9565  -2
   6  13  14 112.103 15.9565   1
  -7 -13   2 278.063 33.8893  -2
   7  13  14 278.063 33.8893   1
  -8 -13   1 233.144 31.1595  -2
   8  13  14 233.144 31.1595   1
   9  13   0 -16.939 20.9802  -2
   9  13  14 -16.939 20.9802   1
  10  13   1 135.109 24.3637  -2
  10  13  14 135.109 24.3637   1
  11  13   2 736.667 66.3883  -2
  11  13  14 736.667 66.3883   1
  -2 -14   6 5.72021 18.6631  -2
   2  14  14 5.72021 18.6631   1
   3  14  14 221.011 24.8775   1
   4  14  14 -5.8603 8.36901   1
   5  14  14 8.88394 5.62918   1
   6  14  14 10.6069 8.30369   1
  -7 -14   2 115.073 22.1279  -2
   7  14  14 115.073 22.1279   1
   9  14  14 20.7619 9.17390   1
   5  -8  15 38.6136 12.1674   1
   6  -8  15 2.61646 9.98170   1
  -7   8  12 74.7255 23.7279  -2
   7  -8  15 74.7255 23.7279   1
  -8   8  11 74.0989 18.1649  -2
   8  -8  15 74.0989 18.1649   1
  -9   8  10 267.619 24.8706  -2
   9  -8  15 267.619 24.8706   1
  10  -8  15 50.7854 24.1804   1
  -2   7  16 8.62151 20.3889  -2
   2  -7  15 8.62151 20.3889   1
  -3   7  15 29.7683 17.0608  -2
   3  -7  15 29.7683 17.0608   1
  -4   7  14 48.3358 17.2754  -2
   4  -7  15 48.3358 17.2754   1
  -5   7  13 38.6835 18.1722  -2
   5  -7  15 38.6835 18.1722   1
  -6   7  12 45.5452 18.9902  -2
   6  -7  15 45.5452 18.9902   1
  -7   7  11 301.112 20.0158  -2
   7  -7  15 301.112 20.0158   1
  -8   7  10 123.896 25.2651  -2
   8  -7  15 123.896 25.2651   1
   9  -7  15 2.46466 12.3812   1
  10  -7  15 76.4327 15.8845   1
 -11   7   8 168.250 31.1792  -2
  11  -7  15 168.250 31.1792   1
  12  -7  15 30.6469 13.5550   1
   1  -6  15 183.082 16.1798   1
  -2   6  16 177.188 30.2171  -2
   2  -6  15 177.188 30.2171   1
  -3   6  15 114.295 23.0249  -2
   3  -6  15 114.295 23.0249   1
  -4   6  14 251.867 21.4648  -2
   4  -6  15 251.867 21.4648   1
  -5   6  13 1.94827 12.5685  -2
   5  -6  15 1.94827 12.5685   1
  -6   6  12 176.204 14.6068  -2
   6  -6  15 176.204 14.6068   1
  -7   6  11 48.5908 14.1917  -2
   7  -6  15 48.5908 14.1917   1
  -8   6  10 83.8062 14.2826  -2
   8  -6  15 83.8062 14.2826   1
  -9   6   9 144.675 13.7616  -2
   9  -6  15 144.675 13.7616   1
 -10   6   8 207.685 16.0111  -2
  10  -6  15 207.685 16.0111   1
 -11   6   7 214.072 21.0095  -2
  11  -6  15 214.072 21.0095   1
 -12   6   6 101.627 21.3577  -2
  12  -6  15 101.627 21.3577   1
 -13   6   5 647.245 42.4545  -2
  13  -6  15 647.245 42.4545   1
   0   5  17 16.0494 16.4528  -2
   0  -5  15 16.0494 16.4528   1
  -1   5  16 -8.4273 16.3002  -2
   1  -5  15 -8.4273 16.3002   1
  -2   5  15 28.6076 15.8537  -2
   2  -5  15 28.6076 15.8537   1
  -3   5  14 264.280 20.8726  -2
   3  -5  15 264.280 20.8726   1
  -4   5  13 65.1333 11.3130  -2
   4  -5  15 65.1333 11.3130   1
  -5   5  12 96.7874 14.0830  -2
   5  -5  15 96.7874 14.0830   1
   6  -5  15 6.49693 6.09677   1
   7  -5  15 10.5915 6.37534   1
  -8   5  10 54.0353 20.5373  -2
   8  -5  15 54.0353 20.5373   1
  -9   5   9 43.7767 22.5114  -2
   9  -5  15 43.7767 22.5114   1
 -10   5   8 504.532 28.7417  -2
  10  -5  15 504.532 28.7417   1
 -11   5   7 37.3489 15.9972  -2
  11  -5  15 37.3489 15.9972   1
 -12   5   6 202.189 20.6044  -2
  12  -5  15 202.189 20.6044   1
 -13   5   5 64.3029 17.9212  -2
  13  -5  15 64.3029 17.9212   1
 -14   5   4 140.482 21.6044  -2
  14  -5  15 140.482 21.6044   1
  -1  -4  15 -9.3163 10.5745   1
  -1   4  16 130.785 18.6141  -2
   1  -4  15 130.785 18.6141   1
  -2   4  15 119.520 17.0177  -2
   2  -4  15 119.520 17.0177   1
  -3   4  14 32.3772 14.0170  -2
   3  -4  15 32.3772 14.0170   1
  -4   4  13 30.8320 7.86914  -2
   4  -4  15 30.8320 7.86914   1
  -5   4  12 73.9075 7.90847  -2
   5  -4  15 73.9075 7.90847   1
  -6   4  11 48.2941 7.96964  -2
   6  -4  15 48.2941 7.96964   1
  -7   4  10 188.954 16.6872  -2
   7  -4  15 188.954 16.6872   1
  -8   4   9 40.2235 13.3494  -2
   8  -4  15 40.2235 13.3494   1
  -9   4   8 23.5618 14.0630  -2
   9  -4  15 23.5618 14.0630   1
 -10   4   7 43.2870 13.2877  -2
  10  -4  15 43.2870 13.2877   1
 -11   4   6 286.095 21.0446  -2
  11  -4  15 286.095 21.0446   1
 -12   4   5 67.2204 20.2263  -2
  12  -4  15 67.2204 20.2263   1
 -13   4   4 121.072 40.9649  -2
  13  -4  15 121.072 40.9649   1
  14  -4  15 20.9038 12.7605   1
   2   3  18 -30.279 32.3716  -2
  -2  -3  15 -30.279 32.3716   1
   1   3  17 84.0738 16.1724  -2
  -1  -3  15 84.0738 16.1724   1
   0   3  16 39.2348 16.1318  -2
   0  -3  15 39.2348 16.1318   1
  -1   3  15 12.1163 14.6631  -2
   1  -3  15 12.1163 14.6631   1
  -2   3  14 69.7180 15.1075  -2
   2  -3  15 69.7180 15.1075   1
  -3   3  13 605.726 33.9141  -2
   3  -3  15 605.726 33.9141   1
   4  -3  15 -4.1332 5.98000   1
  -5   3  12 5.02887 20.7035  -2
   5  -3  15 5.02887 20.7035   1
  -6   3  11 21.1838 9.81358  -2
   6  -3  15 21.1838 9.81358   1
  -7   3  10 206.868 15.9255  -2
   7  -3  15 206.868 15.9255   1
  -8   3   9 72.7060 17.4525  -2
   8  -3  15 72.7060 17.4525   1
  -9   3   8 100.141 11.9390  -2
   9  -3  15 100.141 11.9390   1
 -10   3   7 179.827 14.3683  -2
  10  -3  15 179.827 14.3683   1
 -11   3   6 109.557 12.7425  -2
  11  -3  15 109.557 12.7425   1
 -12   3   5 531.829 22.3745  -2
  12  -3  15 531.829 22.3745   1
 -13   3   4 183.638 16.6505  -2
  13  -3  15 183.638 16.6505   1
 -14   3   3 44.5775 16.0996  -2
  14  -3  15 44.5775 16.0996   1
 -15   3   2 181.367 31.4810  -2
  15  -3  15 181.367 31.4810   1
   2   2  18 92.5687 42.1441  -2
  -2  -2  15 92.5687 42.1441   1
   1   2  17 45.5704 16.7808  -2
  -1  -2  15 45.5704 16.7808   1
   0   2  16 -17.623 20.6527  -2
   0  -2  15 -17.623 20.6527   1
  -1   2  15 31.1093 11.1952  -2
   1  -2  15 31.1093 11.1952   1
  -2   2  14 19.1194 9.24566  -2
   2  -2  15 19.1194 9.24566   1
  -3   2  13 224.972 12.0668  -2
   3  -2  15 224.972 12.0668   1
  -4   2  12 301.211 14.2031  -2
   4  -2  15 301.211 14.2031   1
  -5   2  11 76.2031 6.17815  -2
   5  -2  15 76.2031 6.17815   1
  -6   2  10 65.4265 8.02821  -2
   6  -2  15 65.4265 8.02821   1
  -7   2   9 587.788 22.3201  -2
   7  -2  15 587.788 22.3201   1
  -8   2   8 47.0200 14.8296  -2
   8  -2  15 47.0200 14.8296   1
  -9   2   7 345.335 18.3385  -2
   9  -2  15 345.335 18.3385   1
  10  -2  15 71.1766 8.02116   1
 -11   2   6 18.6812 28.2871  -2
  11  -2  15 18.6812 28.2871   1
 -12   2   5 331.493 23.0790  -2
  12  -2  15 331.493 23.0790   1
 -13   2   4 387.582 22.2100  -2
  13  -2  15 387.582 22.2100   1
 -14   2   3 53.2276 17.5814  -2
  14  -2  15 53.2276 17.5814   1
 -15   2   2 78.8251 22.0944  -2
  15  -2  15 78.8251 22.0944   1
   3   1  18 74.1950 38.0024  -2
  -3  -1  15 74.1950 38.0024   1
   2   1  17 -3.3310 27.3587  -2
  -2  -1  15 -3.3310 27.3587   1
   1   1  16 183.718 15.5923  -2
  -1  -1  15 183.718 15.5923   1
   0   1  15 131.145 15.4910  -2
   0  -1  15 131.145 15.4910   1
   1  -1  15 31.9856 5.78540   1
   2  -1  15 0.17182 7.71156   1
  -3   1  13 111.292 14.1161  -2
   3  -1  15 111.292 14.1161   1
  -4   1  12 561.489 21.7227  -2
   4  -1  15 561.489 21.7227   1
  -5   1  11 136.337 14.3134  -2
   5  -1  15 136.337 14.3134   1
  -6   1  10 176.880 9.44521  -2
   6  -1  15 176.880 9.44521   1
  -7   1   9 -0.9064 10.1099  -2
   7  -1  15 -0.9064 10.1099   1
  -8   1   8 238.540 13.4545  -2
   8  -1  15 238.540 13.4545   1
  -9   1   7 60.4340 10.4744  -2
   9  -1  15 60.4340 10.4744   1
 -10   1   6 52.9836 11.1360  -2
  10  -1  15 52.9836 11.1360   1
 -11   1   5 8.12826 11.2290  -2
  11  -1  15 8.12826 11.2290   1
 -12   1   4 34.9190 11.5247  -2
  12  -1  15 34.9190 11.5247   1
 -13   1   3 107.600 17.1831  -2
  13  -1  15 107.600 17.1831   1
 -14   1   2 77.6791 21.1272  -2
  14  -1  15 77.6791 21.1272   1
 -15   1   1 20.9787 27.2435  -2
  15  -1  15 20.9787 27.2435   1
   3   0  18 -25.616 36.7516  -2
  -3   0  15 -25.616 36.7516   1
   2   0  17 5.58097 20.1986  -2
  -2   0  15 5.58097 20.1986   1
   1   0  16 91.2733 7.86419  -2
  -1   0  15 91.2733 7.86419   1
   0   0  15 1.57391 7.06780  -2
   0   0  15 1.57391 7.06780   1
  -1   0  14 225.840 11.7520  -2
   1   0  15 225.840 11.7520   1
  -2   0  13 376.831 15.2655  -2
   2   0  15 376.831 15.2655   1
  -3   0  12 258.357 13.1838  -2
   3   0  15 258.357 13.1838   1
  -4   0  11 752.673 25.0512  -2
   4   0  15 752.673 25.0512   1
  -5   0  10 -1.1350 10.8969  -2
   5   0  15 -1.1350 10.8969   1
  -6   0   9 64.6538 13.4245  -2
   6   0  15 64.6538 13.4245   1
  -7   0   8 643.649 26.9853  -2
   7   0  15 643.649 26.9853   1
  -8   0   8 147.526 22.0374  -2
   8   0  15 147.526 22.0374   1
  -9   0   7 371.599 35.6542  -2
   9   0  15 371.599 35.6542   1
 -10   0   6 3.34612 13.8974  -2
  10   0  15 3.34612 13.8974   1
 -11   0   5 337.876 17.9419  -2
  11   0  15 337.876 17.9419   1
 -12   0   4 489.457 21.6795  -2
  12   0  15 489.457 21.6795   1
 -13   0   3 225.565 14.7034  -2
  13   0  15 225.565 14.7034   1
 -14   0   2 131.587 15.1655  -2
  14   0  15 131.587 15.1655   1
 -15   0   1 0.45106 18.1814  -2
  15   0  15 0.45106 18.1814   1
  16   0   0 13.7354 20.7135  -2
  16   0  15 13.7354 20.7135   1
   3  -1  17 162.016 27.3463  -2
  -3   1  15 162.016 27.3463   1
   2  -1  16 -40.829 38.3583  -2
  -2   1  15 -40.829 38.3583   1
   1  -1  16 18.5526 36.0252  -2
  -1   1  15 18.5526 36.0252   1
   0  -1  15 116.330 27.5941  -2
   0   1  15 116.330 27.5941   1
  -1  -1  14 94.3227 17.7203  -2
   1   1  15 94.3227 17.7203   1
  -2  -1  13 150.313 9.04732  -2
   2   1  15 150.313 9.04732   1
  -3  -1  12 -0.5633 8.20030  -2
   3   1  15 -0.5633 8.20030   1
  -4  -1  11 85.5969 8.92034  -2
   4   1  15 85.5969 8.92034   1
  -5  -1  10 105.010 9.27371  -2
   5   1  15 105.010 9.27371   1
  -6  -1   9 130.424 9.67076  -2
   6   1  15 130.424 9.67076   1
  -7  -1   8 106.497 6.63472  -2
   7   1  15 106.497 6.63472   1
  -8  -1   7 142.408 9.28074  -2
   8   1  15 142.408 9.28074   1
  -9  -1   6 213.816 13.0205  -2
   9   1  15 213.816 13.0205   1
 -10  -1   5 79.8152 15.1630  -2
  10   1  15 79.8152 15.1630   1
 -11  -1   4 203.220 15.0734  -2
  11   1  15 203.220 15.0734   1
 -12  -1   3 86.1170 16.8864  -2
  12   1  15 86.1170 16.8864   1
 -13  -1   2 114.824 23.2387  -2
  13   1  15 114.824 23.2387   1
  14   1  15 322.454 22.9775   1
 -15  -1   1 140.797 33.1952  -2
  15   1  15 140.797 33.1952   1
  16   1   0 239.816 53.7537  -2
  16   1  15 239.816 53.7537   1
   3  -2  17 93.3313 18.1154  -2
  -3   2  15 93.3313 18.1154   1
   2  -2  16 101.028 17.6374  -2
  -2   2  15 101.028 17.6374   1
   1  -2  15 -1.6338 14.2512  -2
  -1   2  15 -1.6338 14.2512   1
   0  -2  14 621.066 26.1029  -2
   0   2  15 621.066 26.1029   1
  -1  -2  13 48.7562 17.7204  -2
   1   2  15 48.7562 17.7204   1
  -2  -2  12 187.767 19.3426  -2
   2   2  15 187.767 19.3426   1
  -3  -2  11 121.865 18.0366  -2
   3   2  15 121.865 18.0366   1
   4   2  15 23.1015 8.63939   1
   5   2  15 -0.7786 6.76360   1
   6   2  15 396.179 18.2511   1
  -7  -2   8 194.175 19.6150  -2
   7   2  15 194.175 19.6150   1
  -8  -2   7 139.243 10.1236  -2
   8   2  15 139.243 10.1236   1
  -9  -2   6 166.715 13.0351  -2
   9   2  15 166.715 13.0351   1
 -10  -2   5 334.103 16.5881  -2
  10   2  15 334.103 16.5881   1
 -11  -2   4 396.035 17.7189  -2
  11   2  15 396.035 17.7189   1
 -12  -2   3 55.2639 10.6908  -2
  12   2  15 55.2639 10.6908   1
 -13  -2   2 185.222 13.2955  -2
  13   2  15 185.222 13.2955   1
 -14  -2   1 118.131 19.2405  -2
  14   2  15 118.131 19.2405   1
  15   2   0 583.891 30.2583  -2
  15   2  15 583.891 30.2583   1
  16   2   1 141.254 40.7173  -2
  16   2  15 141.254 40.7173   1
  -4   3  15 16.6403 13.0860   1
   3  -3  17 -1.2023 24.4797  -2
  -3   3  15 -1.2023 24.4797   1
   2  -3  16 22.7726 30.4620  -2
  -2   3  15 22.7726 30.4620   1
   1  -3  15 27.3917 21.3980  -2
  -1   3  15 27.3917 21.3980   1
   0  -3  14 209.515 20.5643  -2
   0   3  15 209.515 20.5643   1
  -1  -3  13 139.143 15.2424  -2
   1   3  15 139.143 15.2424   1
  -2  -3  12 138.060 15.0054  -2
   2   3  15 138.060 15.0054   1
  -3  -3  11 446.023 19.3900  -2
   3   3  15 446.023 19.3900   1
  -4  -3  10 75.5995 11.0990  -2
   4   3  15 75.5995 11.0990   1
  -5  -3   9 201.103 13.7687  -2
   5   3  15 201.103 13.7687   1
  -6  -3   8 549.393 22.5474  -2
   6   3  15 549.393 22.5474   1
  -7  -3   7 151.286 8.31324  -2
   7   3  15 151.286 8.31324   1
  -8  -3   6 47.6440 8.31720  -2
   8   3  15 47.6440 8.31720   1
  -9  -3   5 29.1375 10.8514  -2
   9   3  15 29.1375 10.8514   1
 -10  -3   4 168.027 22.6942  -2
  10   3  15 168.027 22.6942   1
  11   3  15 5.50643 6.17921   1
  12   3  15 9.97924 6.71452   1
 -13  -3   2 74.2528 25.8244  -2
  13   3  15 74.2528 25.8244   1
 -14  -3   1 75.3852 18.1711  -2
  14   3  15 75.3852 18.1711   1
  15   3   0 92.0527 18.3164  -2
  15   3  15 92.0527 18.3164   1
  16   3   1 38.7857 42.4219  -2
  16   3  15 38.7857 42.4219   1
   4  -4  17 79.0486 36.0953  -2
  -4   4  15 79.0486 36.0953   1
   3  -4  16 217.588 30.4793  -2
  -3   4  15 217.588 30.4793   1
   2  -4  15 165.949 18.1370  -2
  -2   4  15 165.949 18.1370   1
   1  -4  14 61.7542 16.3326  -2
  -1   4  15 61.7542 16.3326   1
   0  -4  13 171.778 19.8428  -2
   0   4  15 171.778 19.8428   1
  -1  -4  12 205.666 24.9942  -2
   1   4  15 205.666 24.9942   1
  -2  -4  11 189.938 31.0107  -2
   2   4  15 189.938 31.0107   1
   3   4  15 105.947 8.87048   1
  -4  -4  10 128.743 20.3818  -2
   4   4  15 128.743 20.3818   1
  -5  -4   9 19.2137 16.4477  -2
   5   4  15 19.2137 16.4477   1
  -6  -4   8 410.315 23.2283  -2
   6   4  15 410.315 23.2283   1
  -7  -4   7 538.852 18.2394  -2
   7   4  15 538.852 18.2394   1
  -8  -4   6 66.7493 10.1083  -2
   8   4  15 66.7493 10.1083   1
  -9  -4   5 472.722 15.9407  -2
   9   4  15 472.722 15.9407   1
 -10  -4   4 211.339 10.5280  -2
  10   4  15 211.339 10.5280   1
 -11  -4   3 297.476 14.2966  -2
  11   4  15 297.476 14.2966   1
 -12  -4   2 50.8134 11.9271  -2
  12   4  15 50.8134 11.9271   1
 -13  -4   1 156.411 14.6108  -2
  13   4  15 156.411 14.6108   1
  14   4   0 198.823 17.9896  -2
  14   4  15 198.823 17.9896   1
  15   4   1 73.2217 19.8827  -2
  15   4  15 73.2217 19.8827   1
  16   4   2 33.5137 48.6914  -2
  16   4  15 33.5137 48.6914   1
  -4   5  15 65.6612 29.9516   1
   3  -5  16 64.4450 40.4127  -2
  -3   5  15 64.4450 40.4127   1
   2  -5  15 -4.3296 18.1146  -2
  -2   5  15 -4.3296 18.1146   1
   1  -5  14 269.740 16.7445  -2
  -1   5  15 269.740 16.7445   1
   0  -5  13 179.969 13.3449  -2
   0   5  15 179.969 13.3449   1
  -1  -5  12 111.274 11.2724  -2
   1   5  15 111.274 11.2724   1
  -2  -5  11 63.2630 10.3672  -2
   2   5  15 63.2630 10.3672   1
  -3  -5  10 309.331 15.5568  -2
   3   5  15 309.331 15.5568   1
  -4  -5   9 174.427 12.5843  -2
   4   5  15 174.427 12.5843   1
  -5  -5   8 129.391 13.1047  -2
   5   5  15 129.391 13.1047   1
  -6  -5   7 340.075 18.0580  -2
   6   5  15 340.075 18.0580   1
  -7  -5   6 3.32933 9.68256  -2
   7   5  15 3.32933 9.68256   1
   8   5  15 103.311 7.05760   1
   9   5  15 44.5926 6.07639   1
 -10  -5   4 107.189 14.6559  -2
  10   5  15 107.189 14.6559   1
 -11  -5   3 21.4353 16.0411  -2
  11   5  15 21.4353 16.0411   1
 -12  -5   2 90.2588 13.8685  -2
  12   5  15 90.2588 13.8685   1
 -13  -5   1 619.057 21.6588  -2
  13   5  15 619.057 21.6588   1
  14   5   0 276.244 17.1616  -2
  14   5  15 276.244 17.1616   1
  15   5   1 35.5374 14.9378  -2
  15   5  15 35.5374 14.9378   1
  16   5   2 28.9745 19.5838  -2
  16   5  15 28.9745 19.5838   1
   3  -6  15 6.74475 43.0240  -2
  -3   6  15 6.74475 43.0240   1
   2  -6  14 84.0584 15.4235  -2
  -2   6  15 84.0584 15.4235   1
  -1   6  15 -6.2149 6.25436   1
   0   6  15 52.5278 6.93097   1
  -1  -6  12 286.723 31.0581  -2
   1   6  15 286.723 31.0581   1
  -2  -6  11 510.962 21.8503  -2
   2   6  15 510.962 21.8503   1
  -3  -6  10 129.600 12.8492  -2
   3   6  15 129.600 12.8492   1
  -4  -6   9 49.3433 10.6605  -2
   4   6  15 49.3433 10.6605   1
  -5  -6   8 257.063 14.1088  -2
   5   6  15 257.063 14.1088   1
  -6  -6   7 79.5165 10.8712  -2
   6   6  15 79.5165 10.8712   1
  -7  -6   6 27.5674 5.68240  -2
   7   6  15 27.5674 5.68240   1
  -8  -6   5 264.899 12.4739  -2
   8   6  15 264.899 12.4739   1
  -9  -6   4 105.597 8.64517  -2
   9   6  15 105.597 8.64517   1
 -10  -6   3 17.8904 9.78424  -2
  10   6  15 17.8904 9.78424   1
 -11  -6   2 74.4540 12.0300  -2
  11   6  15 74.4540 12.0300   1
 -12  -6   1 111.988 13.4273  -2
  12   6  15 111.988 13.4273   1
  13   6   0 142.567 18.4618  -2
  13   6  15 142.567 18.4618   1
  14   6   1 338.394 25.2744  -2
  14   6  15 338.394 25.2744   1
  15   6   2 2.45160 42.0997  -2
  15   6  15 2.45160 42.0997   1
   3  -7  15 28.2157 23.0022  -2
  -3   7  15 28.2157 23.0022   1
   2  -7  14 9.30565 30.9568  -2
  -2   7  15 9.30565 30.9568   1
   1  -7  13 456.796 30.5628  -2
  -1   7  15 456.796 30.5628   1
   0  -7  12 429.190 29.1827  -2
   0   7  15 429.190 29.1827   1
  -1  -7  11 113.591 21.1625  -2
   1   7  15 113.591 21.1625   1
  -2  -7  10 291.917 33.8443  -2
   2   7  15 291.917 33.8443   1
  -3  -7   9 245.399 29.7560  -2
   3   7  15 245.399 29.7560   1
  -4  -7   8 23.8384 25.2912  -2
   4   7  15 23.8384 25.2912   1
   5   7  15 24.5927 5.07541   1
   6   7  15 781.153 26.9428   1
   7   7  15 72.0338 5.16288   1
  -8  -7   5 199.345 10.3980  -2
   8   7  15 199.345 10.3980   1
  -9  -7   4 777.424 25.8040  -2
   9   7  15 777.424 25.8040   1
 -10  -7   3 158.357 10.9536  -2
  10   7  15 158.357 10.9536   1
 -11  -7   2 221.957 13.7399  -2
  11   7  15 221.957 13.7399   1
 -12  -7   1 150.396 16.5066  -2
  12   7  15 150.396 16.5066   1
  13   7   0 259.118 13.8343  -2
  13   7  15 259.118 13.8343   1
  14   7   1 313.084 17.9617  -2
  14   7  15 313.084 17.9617   1
  15   7   2 154.001 20.0854  -2
  15   7  15 154.001 20.0854   1
  -3   8  15 5.78067 11.2944   1
   2  -8  14 249.406 49.3315  -2
  -2   8  15 249.406 49.3315   1
   1  -8  13 231.922 26.7694  -2
  -1   8  15 231.922 26.7694   1
   0  -8  12 232.026 25.4644  -2
   0   8  15 232.026 25.4644   1
  -1  -8  11 123.921 21.9804  -2
   1   8  15 123.921 21.9804   1
  -2  -8  10 7.57179 18.0629  -2
   2   8  15 7.57179 18.0629   1
  -3  -8   9 161.930 18.9299  -2
   3   8  15 161.930 18.9299   1
  -4  -8   8 166.946 23.9823  -2
   4   8  15 166.946 23.9823   1
  -5  -8   7 247.366 27.7811  -2
   5   8  15 247.366 27.7811   1
  -6  -8   6 283.602 30.9954  -2
   6   8  15 283.602 30.9954   1
  -7  -8   5 1.69632 8.63431  -2
   7   8  15 1.69632 8.63431   1
  -8  -8   4 161.123 13.3297  -2
   8   8  15 161.123 13.3297   1
  -9  -8   3 288.671 14.6459  -2
   9   8  15 288.671 14.6459   1
 -10  -8   2 266.297 14.1443  -2
  10   8  15 266.297 14.1443   1
 -11  -8   1 273.480 16.1246  -2
  11   8  15 273.480 16.1246   1
  12   8   0 193.219 20.5603  -2
  12   8  15 193.219 20.5603   1
  13   8   0 354.293 37.9794  -2
  13   8  15 354.293 37.9794   1
  14   8   1 101.195 29.2436  -2
  14   8  15 101.195 29.2436   1
   2  -9  13 98.4209 24.7299  -2
  -2   9  15 98.4209 24.7299   1
   1  -9  12 76.2626 22.0760  -2
  -1   9  15 76.2626 22.0760   1
   0  -9  11 53.0941 22.1477  -2
   0   9  15 53.0941 22.1477   1
  -1  -9  10 86.1957 22.4545  -2
   1   9  15 86.1957 22.4545   1
   2   9  15 213.451 17.6288   1
   3   9  15 95.4808 11.8737   1
   4   9  15 -6.5875 9.54664   1
   5   9  15 79.4659 14.0408   1
  -6  -9   6 108.430 29.0468  -2
   6   9  15 108.430 29.0468   1
  -7  -9   5 7.33965 9.71402  -2
   7   9  15 7.33965 9.71402   1
  -8  -9   4 39.3066 10.6349  -2
   8   9  15 39.3066 10.6349   1
  -9  -9   3 153.637 13.4629  -2
   9   9  15 153.637 13.4629   1
 -10  -9   2 108.903 16.8681  -2
  10   9  15 108.903 16.8681   1
 -11  -9   1 396.318 21.2477  -2
  11   9  15 396.318 21.2477   1
  12   9   0 191.765 14.7292  -2
  12   9  15 191.765 14.7292   1
  13   9   1 74.8974 17.2239  -2
  13   9  15 74.8974 17.2239   1
  14   9   2 404.154 29.2772  -2
  14   9  15 404.154 29.2772   1
  -2  10  15 127.365 13.6456   1
   1 -10  12 42.6756 22.4385  -2
  -1  10  15 42.6756 22.4385   1
   0 -10  11 29.9114 26.1948  -2
   0  10  15 29.9114 26.1948   1
  -1 -10  10 24.8693 17.1791  -2
   1  10  15 24.8693 17.1791   1
  -2 -10   9 30.6741 18.3564  -2
   2  10  15 30.6741 18.3564   1
  -3 -10   8 99.5199 21.9836  -2
   3  10  15 99.5199 21.9836   1
  -4 -10   7 49.0328 21.7342  -2
   4  10  15 49.0328 21.7342   1
  -5 -10   6 335.612 33.8844  -2
   5  10  15 335.612 33.8844   1
  -6 -10   5 19.7174 25.4570  -2
   6  10  15 19.7174 25.4570   1
  -8 -10   3 154.977 19.3076  -2
   8  10  15 154.977 19.3076   1
  -9 -10   2 274.504 26.0696  -2
   9  10  15 274.504 26.0696   1
  10  10  15 57.2167 8.56773   1
 -11 -10   1 142.779 26.2743  -2
  11  10  15 142.779 26.2743   1
  12  10   0 42.4985 30.4081  -2
  12  10  15 42.4985 30.4081   1
  13  10   1 70.0172 28.9704  -2
  13  10  15 70.0172 28.9704   1
   1 -11  11 9.88638 24.8655  -2
  -1  11  15 9.88638 24.8655   1
   0  11  15 -9.2639 8.00877   1
   1  11  15 15.5537 8.09366   1
   2  11  15 77.1546 12.0012   1
  -3 -11   8 302.232 31.6703  -2
   3  11  15 302.232 31.6703   1
  -4 -11   7 19.3630 24.1704  -2
   4  11  15 19.3630 24.1704   1
  -5 -11   6 3.12086 24.7213  -2
   5  11  15 3.12086 24.7213   1
  -6 -11   5 41.0539 6.01282  -2
   6  11  15 41.0539 6.01282   1
  -7 -11   4 40.8805 24.4776  -2
   7  11  15 40.8805 24.4776   1
  -8 -11   3 623.355 27.1026  -2
   8  11  15 623.355 27.1026   1
  -9 -11   2 162.243 15.2828  -2
   9  11  15 162.243 15.2828   1
 -10 -11   1 332.221 18.0616  -2
  10  11  15 332.221 18.0616   1
  11  11   0 79.3733 19.0292  -2
  11  11  15 79.3733 19.0292   1
  12  11   1 425.044 27.5530  -2
  12  11  15 425.044 27.5530   1
   0 -12  10 -15.401 24.4530  -2
   0  12  15 -15.401 24.4530   1
  -1 -12   9 265.745 32.5651  -2
   1  12  15 265.745 32.5651   1
  -3 -12   7 12.6366 29.2198  -2
   3  12  15 12.6366 29.2198   1
  -4 -12   6 332.253 38.7023  -2
   4  12  15 332.253 38.7023   1
  -5 -12   5 88.9538 32.5100  -2
   5  12  15 88.9538 32.5100   1
   6  12  15 344.792 13.6425   1
  -7 -12   3 218.995 22.6775  -2
   7  12  15 218.995 22.6775   1
   8  12  15 58.2316 10.1373   1
   9  12  15 155.495 23.5864   1
 -10 -12   1 31.2317 21.9136  -2
  10  12  15 31.2317 21.9136   1
  11  12   0 790.862 32.1215  -2
  11  12  15 790.862 32.1215   1
   1  13  15 -8.1886 20.2215   1
  -3 -13   7 77.1818 28.2986  -2
   3  13  15 77.1818 28.2986   1
  -4 -13   6 113.592 26.3154  -2
   4  13  15 113.592 26.3154   1
  -5 -13   5 76.1634 24.2650  -2
   5  13  15 76.1634 24.2650   1
  -6 -13   4 -33.281 20.8105  -2
   6  13  15 -33.281 20.8105   1
  -8 -13   2 131.274 29.4837  -2
   8  13  15 131.274 29.4837   1
  -9 -13   1 47.7845 35.4316  -2
   9  13  15 47.7845 35.4316   1
   5  14  15 30.5928 13.2682   1
   6  14  15 160.807 22.9780   1
  -7   7  12 139.954 26.6131  -2
   7  -7  16 139.954 26.6131   1
  -8   7  11 118.535 28.3506  -2
   8  -7  16 118.535 28.3506   1
   4  -6  16 3.69716 10.6582   1
  -5   6  14 79.8696 24.7152  -2
   5  -6  16 79.8696 24.7152   1
  -6   6  13 60.3238 17.1878  -2
   6  -6  16 60.3238 17.1878   1
  -7   6  12 184.027 18.1589  -2
   7  -6  16 184.027 18.1589   1
  -8   6  11 141.315 15.7149  -2
   8  -6  16 141.315 15.7149   1
  -9   6  10 51.3624 12.6947  -2
   9  -6  16 51.3624 12.6947   1
 -10   6   9 455.703 33.1153  -2
  10  -6  16 455.703 33.1153   1
 -11   6   8 69.3683 24.3581  -2
  11  -6  16 69.3683 24.3581   1
  -2   5  16 81.1691 24.0576  -2
   2  -5  16 81.1691 24.0576   1
  -3   5  15 -2.7998 18.6178  -2
   3  -5  16 -2.7998 18.6178   1
  -4   5  14 37.5901 21.4648  -2
   4  -5  16 37.5901 21.4648   1
  -5   5  13 212.274 24.7822  -2
   5  -5  16 212.274 24.7822   1
   6  -5  16 12.8251 7.82009   1
   7  -5  16 18.3527 9.78437   1
   8  -5  16 299.539 24.5589   1
  -9   5  10 60.5902 25.2396  -2
   9  -5  16 60.5902 25.2396   1
 -10   5   9 141.162 22.0016  -2
  10  -5  16 141.162 22.0016   1
 -11   5   8 160.627 20.3549  -2
  11  -5  16 160.627 20.3549   1
 -12   5   7 145.423 31.7158  -2
  12  -5  16 145.423 31.7158   1
   1  -4  16 31.9445 18.0296   1
  -2   4  16 -22.752 34.7295  -2
   2  -4  16 -22.752 34.7295   1
  -3   4  15 133.096 25.2683  -2
   3  -4  16 133.096 25.2683   1
  -4   4  14 71.8068 22.5583  -2
   4  -4  16 71.8068 22.5583   1
  -5   4  13 44.9421 8.36815  -2
   5  -4  16 44.9421 8.36815   1
  -6   4  12 105.328 10.5180  -2
   6  -4  16 105.328 10.5180   1
  -7   4  11 144.024 12.1106  -2
   7  -4  16 144.024 12.1106   1
  -8   4  10 -5.4138 16.7415  -2
   8  -4  16 -5.4138 16.7415   1
  -9   4   9 155.138 20.3199  -2
   9  -4  16 155.138 20.3199   1
 -10   4   8 18.6900 17.4227  -2
  10  -4  16 18.6900 17.4227   1
 -11   4   7 41.7754 32.3452  -2
  11  -4  16 41.7754 32.3452   1
 -12   4   6 316.054 25.5085  -2
  12  -4  16 316.054 25.5085   1
 -13   4   5 150.320 30.0209  -2
  13  -4  16 150.320 30.0209   1
  -1   3  16 184.192 19.3343  -2
   1  -3  16 184.192 19.3343   1
  -2   3  15 -3.9627 17.1287  -2
   2  -3  16 -3.9627 17.1287   1
  -3   3  14 84.2646 19.8730  -2
   3  -3  16 84.2646 19.8730   1
  -4   3  13 12.6286 38.6515  -2
   4  -3  16 12.6286 38.6515   1
  -5   3  13 34.9257 24.6642  -2
   5  -3  16 34.9257 24.6642   1
  -6   3  12 64.4828 18.2313  -2
   6  -3  16 64.4828 18.2313   1
  -7   3  11 14.2898 14.3531  -2
   7  -3  16 14.2898 14.3531   1
  -8   3  10 53.9047 25.3048  -2
   8  -3  16 53.9047 25.3048   1
  -9   3   9 409.530 24.6213  -2
   9  -3  16 409.530 24.6213   1
 -10   3   8 191.691 14.7195  -2
  10  -3  16 191.691 14.7195   1
 -11   3   7 35.3076 12.3738  -2
  11  -3  16 35.3076 12.3738   1
 -12   3   6 139.424 16.9534  -2
  12  -3  16 139.424 16.9534   1
 -13   3   5 23.8759 17.0763  -2
  13  -3  16 23.8759 17.0763   1
 -14   3   4 243.506 30.7704  -2
  14  -3  16 243.506 30.7704   1
   0   2  17 27.2904 35.0148  -2
   0  -2  16 27.2904 35.0148   1
  -1   2  16 26.0522 12.8710  -2
   1  -2  16 26.0522 12.8710   1
  -2   2  15 88.9299 11.9355  -2
   2  -2  16 88.9299 11.9355   1
  -3   2  14 118.907 11.9636  -2
   3  -2  16 118.907 11.9636   1
  -4   2  13 127.207 12.4260  -2
   4  -2  16 127.207 12.4260   1
  -5   2  12 55.2304 12.4537  -2
   5  -2  16 55.2304 12.4537   1
  -6   2  11 80.9572 6.57288  -2
   6  -2  16 80.9572 6.57288   1
  -7   2  10 84.4788 9.74436  -2
   7  -2  16 84.4788 9.74436   1
  -8   2   9 204.530 17.1980  -2
   8  -2  16 204.530 17.1980   1
  -9   2   8 145.173 21.0634  -2
   9  -2  16 145.173 21.0634   1
 -10   2   7 18.8939 26.6739  -2
  10  -2  16 18.8939 26.6739   1
 -11   2   7 159.093 31.2153  -2
  11  -2  16 159.093 31.2153   1
 -12   2   6 649.360 28.3707  -2
  12  -2  16 649.360 28.3707   1
 -13   2   5 156.006 18.3448  -2
  13  -2  16 156.006 18.3448   1
 -14   2   4 88.6009 19.7058  -2
  14  -2  16 88.6009 19.7058   1
  15  -2  16 48.3921 26.1978   1
   1   1  17 7.42848 41.4978  -2
  -1  -1  16 7.42848 41.4978   1
   0   1  16 198.848 28.0406  -2
   0  -1  16 198.848 28.0406   1
  -1   1  15 -32.242 38.5864  -2
   1  -1  16 -32.242 38.5864   1
   2  -1  16 13.3025 11.4296   1
  -3   1  14 153.719 16.6507  -2
   3  -1  16 153.719 16.6507   1
  -4   1  13 55.0819 14.0277  -2
   4  -1  16 55.0819 14.0277   1
  -5   1  12 -15.326 12.6375  -2
   5  -1  16 -15.326 12.6375   1
  -6   1  11 51.6280 14.2551  -2
   6  -1  16 51.6280 14.2551   1
  -7   1  10 366.569 14.3809  -2
   7  -1  16 366.569 14.3809   1
  -8   1   9 178.044 13.1759  -2
   8  -1  16 178.044 13.1759   1
  -9   1   8 55.4268 8.45319  -2
   9  -1  16 55.4268 8.45319   1
 -10   1   7 64.9263 11.7887  -2
  10  -1  16 64.9263 11.7887   1
 -11   1   6 56.0120 11.6876  -2
  11  -1  16 56.0120 11.6876   1
 -12   1   5 10.2004 13.3802  -2
  12  -1  16 10.2004 13.3802   1
 -13   1   4 89.1336 28.0337  -2
  13  -1  16 89.1336 28.0337   1
 -14   1   3 150.527 23.2598  -2
  14  -1  16 150.527 23.2598   1
 -15   1   2 69.9646 42.0211  -2
  15  -1  16 69.9646 42.0211   1
   1   0  17 5.59569 18.9627  -2
  -1   0  16 5.59569 18.9627   1
   0   0  16 596.601 30.0145  -2
   0   0  16 596.601 30.0145   1
  -1   0  15 98.8025 9.50746  -2
   1   0  16 98.8025 9.50746   1
  -2   0  14 89.9548 10.3945  -2
   2   0  16 89.9548 10.3945   1
  -3   0  13 431.520 18.1930  -2
   3   0  16 431.520 18.1930   1
  -4   0  12 246.792 14.5343  -2
   4   0  16 246.792 14.5343   1
  -5   0  11 75.4123 12.2663  -2
   5   0  16 75.4123 12.2663   1
  -6   0  10 79.7941 13.2807  -2
   6   0  16 79.7941 13.2807   1
  -7   0   9 180.373 21.0092  -2
   7   0  16 180.373 21.0092   1
   8   0  16 160.115 8.90639   1
  -9   0   8 646.057 36.7740  -2
   9   0  16 646.057 36.7740   1
 -10   0   7 27.7662 12.9908  -2
  10   0  16 27.7662 12.9908   1
 -11   0   6 46.9191 15.5819  -2
  11   0  16 46.9191 15.5819   1
 -12   0   5 74.5527 12.8707  -2
  12   0  16 74.5527 12.8707   1
 -13   0   4 137.906 15.0807  -2
  13   0  16 137.906 15.0807   1
 -14   0   3 102.297 14.0371  -2
  14   0  16 102.297 14.0371   1
 -15   0   2 14.6734 16.3444  -2
  15   0  16 14.6734 16.3444   1
   2  -1  17 -55.579 41.8560  -2
  -2   1  16 -55.579 41.8560   1
  -1   1  16 16.4889 18.3688   1
   0  -1  16 131.254 24.2325  -2
   0   1  16 131.254 24.2325   1
  -1  -1  15 212.804 26.2739  -2
   1   1  16 212.804 26.2739   1
  -2  -1  14 35.4164 17.7848  -2
   2   1  16 35.4164 17.7848   1
  -3  -1  13 23.1801 18.3016  -2
   3   1  16 23.1801 18.3016   1
  -4  -1  12 249.152 12.8678  -2
   4   1  16 249.152 12.8678   1
  -5  -1  11 10.7728 8.52747  -2
   5   1  16 10.7728 8.52747   1
  -6  -1  10 130.089 10.3732  -2
   6   1  16 130.089 10.3732   1
  -7  -1   9 134.256 7.59083  -2
   7   1  16 134.256 7.59083   1
  -8  -1   8 6.85141 8.85525  -2
   8   1  16 6.85141 8.85525   1
  -9  -1   7 18.3286 11.3535  -2
   9   1  16 18.3286 11.3535   1
 -10  -1   6 8.22924 16.4691  -2
  10   1  16 8.22924 16.4691   1
 -11  -1   5 -5.6858 13.9650  -2
  11   1  16 -5.6858 13.9650   1
 -12  -1   4 184.719 20.4238  -2
  12   1  16 184.719 20.4238   1
 -13  -1   3 606.764 38.1589  -2
  13   1  16 606.764 38.1589   1
  14   1  16 5.42213 11.5073   1
 -15  -1   2 262.640 37.6605  -2
  15   1  16 262.640 37.6605   1
   2  -2  17 -9.4359 18.9750  -2
  -2   2  16 -9.4359 18.9750   1
   1  -2  16 40.1562 19.4561  -2
  -1   2  16 40.1562 19.4561   1
   0  -2  15 -2.7913 19.1965  -2
   0   2  16 -2.7913 19.1965   1
  -1  -2  14 152.129 17.8163  -2
   1   2  16 152.129 17.8163   1
  -2  -2  13 90.1487 17.2596  -2
   2   2  16 90.1487 17.2596   1
  -3  -2  12 105.152 21.1085  -2
   3   2  16 105.152 21.1085   1
   4   2  16 -4.3988 9.07668   1
   5   2  16 537.673 22.7396   1
   6   2  16 158.869 11.4686   1
  -7  -2   9 -0.9605 18.7724  -2
   7   2  16 -0.9605 18.7724   1
  -8  -2   8 117.096 9.61166  -2
   8   2  16 117.096 9.61166   1
  -9  -2   7 30.3353 12.2714  -2
   9   2  16 30.3353 12.2714   1
 -10  -2   6 240.158 15.0129  -2
  10   2  16 240.158 15.0129   1
 -11  -2   5 154.126 11.9563  -2
  11   2  16 154.126 11.9563   1
 -12  -2   4 184.763 14.2615  -2
  12   2  16 184.763 14.2615   1
 -13  -2   3 158.105 14.7163  -2
  13   2  16 158.105 14.7163   1
 -14  -2   2 252.459 20.3708  -2
  14   2  16 252.459 20.3708   1
 -15  -2   1 245.543 25.2529  -2
  15   2  16 245.543 25.2529   1
  -2   3  16 106.727 14.8980   1
   1  -3  16 154.456 23.4130  -2
  -1   3  16 154.456 23.4130   1
   0  -3  15 69.1225 20.7425  -2
   0   3  16 69.1225 20.7425   1
  -1  -3  14 -50.625 30.6609  -2
   1   3  16 -50.625 30.6609   1
  -2  -3  13 286.029 20.7708  -2
   2   3  16 286.029 20.7708   1
  -3  -3  12 347.540 21.3652  -2
   3   3  16 347.540 21.3652   1
  -4  -3  11 142.347 13.3413  -2
   4   3  16 142.347 13.3413   1
  -5  -3  10 281.214 16.3722  -2
   5   3  16 281.214 16.3722   1
  -6  -3   9 46.8951 12.9845  -2
   6   3  16 46.8951 12.9845   1
  -7  -3   8 155.856 18.8754  -2
   7   3  16 155.856 18.8754   1
  -8  -3   7 243.097 12.0942  -2
   8   3  16 243.097 12.0942   1
  -9  -3   6 404.860 20.3159  -2
   9   3  16 404.860 20.3159   1
 -10  -3   5 438.665 23.2239  -2
  10   3  16 438.665 23.2239   1
  11   3  16 89.7991 8.29698   1
 -12  -3   4 158.667 26.8502  -2
  12   3  16 158.667 26.8502   1
 -13  -3   3 79.8302 23.6912  -2
  13   3  16 79.8302 23.6912   1
 -14  -3   2 437.818 24.6890  -2
  14   3  16 437.818 24.6890   1
 -15  -3   1 199.257 24.8023  -2
  15   3  16 199.257 24.8023   1
   2  -4  16 80.2633 30.2016  -2
  -2   4  16 80.2633 30.2016   1
   1  -4  15 151.100 27.6138  -2
  -1   4  16 151.100 27.6138   1
   0  -4  14 -3.9160 17.2686  -2
   0   4  16 -3.9160 17.2686   1
  -1  -4  13 95.8644 24.9352  -2
   1   4  16 95.8644 24.9352   1
  -2  -4  12 307.982 37.6216  -2
   2   4  16 307.982 37.6216   1
  -3  -4  12 325.752 37.4902  -2
   3   4  16 325.752 37.4902   1
  -4  -4  11 -5.2563 18.6250  -2
   4   4  16 -5.2563 18.6250   1
  -5  -4  10 3.35936 18.3254  -2
   5   4  16 3.35936 18.3254   1
  -6  -4   9 843.688 32.5236  -2
   6   4  16 843.688 32.5236   1
  -7  -4   8 79.4051 14.1081  -2
   7   4  16 79.4051 14.1081   1
  -8  -4   7 102.478 8.27907  -2
   8   4  16 102.478 8.27907   1
  -9  -4   6 158.622 10.4374  -2
   9   4  16 158.622 10.4374   1
 -10  -4   5 54.4647 8.36373  -2
  10   4  16 54.4647 8.36373   1
 -11  -4   4 375.371 18.5708  -2
  11   4  16 375.371 18.5708   1
 -12  -4   3 64.7573 12.7979  -2
  12   4  16 64.7573 12.7979   1
 -13  -4   2 118.088 13.9437  -2
  13   4  16 118.088 13.9437   1
 -14  -4   1 27.6092 16.8430  -2
  14   4  16 27.6092 16.8430   1
  15   4   0 111.044 21.9269  -2
  15   4  16 111.044 21.9269   1
   2  -5  16 65.1440 39.8843  -2
  -2   5  16 65.1440 39.8843   1
   1  -5  15 13.2457 21.4862  -2
  -1   5  16 13.2457 21.4862   1
   0  -5  14 30.8651 21.1288  -2
   0   5  16 30.8651 21.1288   1
  -1  -5  13 173.747 15.3820  -2
   1   5  16 173.747 15.3820   1
  -2  -5  12 40.9352 11.6154  -2
   2   5  16 40.9352 11.6154   1
  -3  -5  11 211.427 15.0180  -2
   3   5  16 211.427 15.0180   1
  -4  -5  10 103.670 13.4563  -2
   4   5  16 103.670 13.4563   1
  -5  -5   9 178.719 14.0823  -2
   5   5  16 178.719 14.0823   1
  -6  -5   8 251.814 16.2738  -2
   6   5  16 251.814 16.2738   1
  -7  -5   7 80.8034 23.3071  -2
   7   5  16 80.8034 23.3071   1
  -8  -5   6 484.498 47.1141  -2
   8   5  16 484.498 47.1141   1
   9   5  16 42.4618 5.70894   1
 -10  -5   5 89.2695 20.5745  -2
  10   5  16 89.2695 20.5745   1
 -11  -5   4 -4.5007 19.1744  -2
  11   5  16 -4.5007 19.1744   1
 -12  -5   3 53.2196 15.5766  -2
  12   5  16 53.2196 15.5766   1
 -13  -5   2 398.541 19.4701  -2
  13   5  16 398.541 19.4701   1
 -14  -5   1 111.608 15.3257  -2
  14   5  16 111.608 15.3257   1
  15   5   0 179.009 17.4311  -2
  15   5  16 179.009 17.4311   1
   2  -6  15 140.603 45.4709  -2
  -2   6  16 140.603 45.4709   1
  -1   6  16 23.9735 9.77048   1
   0   6  16 1.52822 6.97405   1
  -1  -6  13 30.1183 18.9565  -2
   1   6  16 30.1183 18.9565   1
  -2  -6  12 124.097 14.8456  -2
   2   6  16 124.097 14.8456   1
  -3  -6  11 166.570 14.1835  -2
   3   6  16 166.570 14.1835   1
  -4  -6  10 16.9992 12.0685  -2
   4   6  16 16.9992 12.0685   1
  -5  -6   9 88.3056 11.8717  -2
   5   6  16 88.3056 11.8717   1
  -6  -6   8 64.1647 11.7722  -2
   6   6  16 64.1647 11.7722   1
  -7  -6   7 117.955 11.7193  -2
   7   6  16 117.955 11.7193   1
  -8  -6   6 22.5371 6.74147  -2
   8   6  16 22.5371 6.74147   1
  -9  -6   5 156.842 9.73856  -2
   9   6  16 156.842 9.73856   1
 -10  -6   4 35.9935 10.5306  -2
  10   6  16 35.9935 10.5306   1
 -11  -6   3 364.130 18.9509  -2
  11   6  16 364.130 18.9509   1
 -12  -6   2 21.7724 15.5017  -2
  12   6  16 21.7724 15.5017   1
 -13  -6   1 197.618 18.8422  -2
  13   6  16 197.618 18.8422   1
  14   6   0 76.9223 22.5569  -2
  14   6  16 76.9223 22.5569   1
  15   6   1 -13.622 40.5470  -2
  15   6  16 -13.622 40.5470   1
   2  -7  15 29.3061 33.9459  -2
  -2   7  16 29.3061 33.9459   1
   1  -7  14 204.052 25.5160  -2
  -1   7  16 204.052 25.5160   1
   0  -7  13 11.8789 31.3881  -2
   0   7  16 11.8789 31.3881   1
  -1  -7  12 194.501 24.9340  -2
   1   7  16 194.501 24.9340   1
  -2  -7  11 28.4004 21.5504  -2
   2   7  16 28.4004 21.5504   1
  -3  -7  10 -40.092 26.9937  -2
   3   7  16 -40.092 26.9937   1
  -4  -7   9 60.3317 29.7726  -2
   4   7  16 60.3317 29.7726   1
   5   7  16 726.691 30.6058   1
   6   7  16 169.343 10.4349   1
   7   7  16 5.30920 5.57887   1
  -8  -7   6 362.760 14.7283  -2
   8   7  16 362.760 14.7283   1
  -9  -7   5 100.134 10.3150  -2
   9   7  16 100.134 10.3150   1
 -10  -7   4 535.944 20.1171  -2
  10   7  16 535.944 20.1171   1
 -11  -7   3 46.7457 14.9713  -2
  11   7  16 46.7457 14.9713   1
 -12  -7   2 159.907 13.8634  -2
  12   7  16 159.907 13.8634   1
 -13  -7   1 196.997 17.3822  -2
  13   7  16 196.997 17.3822   1
  14   7   0 453.615 21.3452  -2
  14   7  16 453.615 21.3452   1
   1  -8  14 147.462 43.7873  -2
  -1   8  16 147.462 43.7873   1
   0  -8  13 68.4468 27.2816  -2
   0   8  16 68.4468 27.2816   1
  -1  -8  12 9.76338 31.5561  -2
   1   8  16 9.76338 31.5561   1
  -2  -8  11 143.449 22.4995  -2
   2   8  16 143.449 22.4995   1
  -3  -8  10 32.1792 19.1080  -2
   3   8  16 32.1792 19.1080   1
  -4  -8   9 -11.683 18.0168  -2
   4   8  16 -11.683 18.0168   1
  -5  -8   8 655.570 36.3532  -2
   5   8  16 655.570 36.3532   1
  -6  -8   7 29.4161 18.0562  -2
   6   8  16 29.4161 18.0562   1
  -7  -8   6 -8.3773 19.8219  -2
   7   8  16 -8.3773 19.8219   1
  -8  -8   5 158.626 14.2338  -2
   8   8  16 158.626 14.2338   1
  -9  -8   4 921.164 27.8717  -2
   9   8  16 921.164 27.8717   1
 -10  -8   3 358.310 14.2867  -2
  10   8  16 358.310 14.2867   1
 -11  -8   2 35.9825 12.7067  -2
  11   8  16 35.9825 12.7067   1
 -12  -8   1 362.159 23.9175  -2
  12   8  16 362.159 23.9175   1
 -13  -8   1 148.730 28.5726  -2
  13   8  16 148.730 28.5726   1
  14   8  16 99.8955 11.7846   1
   1  -9  13 -21.024 25.0903  -2
  -1   9  16 -21.024 25.0903   1
   0  -9  12 79.6681 25.1556  -2
   0   9  16 79.6681 25.1556   1
  -1  -9  11 236.046 27.2631  -2
   1   9  16 236.046 27.2631   1
   2   9  16 104.861 12.3643   1
   3   9  16 347.863 23.2021   1
   4   9  16 -21.135 16.5046   1
  -5  -9   8 5.77503 24.1296  -2
   5   9  16 5.77503 24.1296   1
  -6  -9   7 107.746 33.1596  -2
   6   9  16 107.746 33.1596   1
  -7  -9   6 -7.6855 33.1397  -2
   7   9  16 -7.6855 33.1397   1
  -8  -9   5 50.9011 33.2987  -2
   8   9  16 50.9011 33.2987   1
  -9  -9   4 44.2294 11.4316  -2
   9   9  16 44.2294 11.4316   1
 -10  -9   3 794.218 34.0258  -2
  10   9  16 794.218 34.0258   1
 -11  -9   2 194.491 22.7011  -2
  11   9  16 194.491 22.7011   1
 -12  -9   1 57.1424 15.7007  -2
  12   9  16 57.1424 15.7007   1
  13   9   0 2.68666 24.8043  -2
  13   9  16 2.68666 24.8043   1
   0 -10  12 28.7901 33.7499  -2
   0  10  16 28.7901 33.7499   1
  -1 -10  11 163.285 21.7693  -2
   1  10  16 163.285 21.7693   1
  -2 -10  10 37.1781 16.9775  -2
   2  10  16 37.1781 16.9775   1
  -3 -10   9 106.385 24.9794  -2
   3  10  16 106.385 24.9794   1
  -4 -10   8 12.7326 17.8535  -2
   4  10  16 12.7326 17.8535   1
  -5 -10   7 78.4477 28.1219  -2
   5  10  16 78.4477 28.1219   1
  -6 -10   6 189.758 23.6531  -2
   6  10  16 189.758 23.6531   1
  -7 -10   5 66.3268 23.7199  -2
   7  10  16 66.3268 23.7199   1
  -8 -10   4 263.541 18.6809  -2
   8  10  16 263.541 18.6809   1
  -9 -10   3 102.985 20.2073  -2
   9  10  16 102.985 20.2073   1
  10  10  16 -3.9711 9.98733   1
 -11 -10   2 117.156 48.3619  -2
  11  10  16 117.156 48.3619   1
 -12 -10   1 205.425 33.1721  -2
  12  10  16 205.425 33.1721   1
   1  11  16 16.3373 9.47013   1
  -2 -11  10 353.047 47.9402  -2
   2  11  16 353.047 47.9402   1
  -3 -11   9 -9.0199 35.0847  -2
   3  11  16 -9.0199 35.0847   1
  -4 -11   8 98.9851 34.5671  -2
   4  11  16 98.9851 34.5671   1
  -5 -11   7 41.7677 31.6298  -2
   5  11  16 41.7677 31.6298   1
  -7 -11   5 663.685 53.1294  -2
   7  11  16 663.685 53.1294   1
  -8 -11   4 68.8822 29.7425  -2
   8  11  16 68.8822 29.7425   1
  -9 -11   3 76.1977 20.4905  -2
   9  11  16 76.1977 20.4905   1
 -10 -11   2 252.117 21.7957  -2
  10  11  16 252.117 21.7957   1
 -11 -11   1 325.273 24.5863  -2
  11  11  16 325.273 24.5863   1
  -2 -12   9 319.682 37.4918  -2
   2  12  16 319.682 37.4918   1
  -3 -12   8 23.9741 31.3254  -2
   3  12  16 23.9741 31.3254   1
  -4 -12   7 21.5370 27.7743  -2
   4  12  16 21.5370 27.7743   1
   6  12  16 7.88473 9.59596   1
   7  12  16 34.8252 10.7556   1
   8  12  16 27.5503 10.1023   1
   9  12  16 99.5569 12.2514   1
  10  12  16 136.272 15.0526   1
   5  13  16 18.5052 15.5894   1
  -6 -13   5 427.628 41.3732  -2
   6  13  16 427.628 41.3732   1
  -6   5  13 205.754 32.4223  -2
   6  -5  17 205.754 32.4223   1
   7  -5  17 1.93482 17.1243   1
   8  -5  17 4.20874 16.4709   1
   9  -5  17 54.1644 19.3297   1
  -4   4  15 28.8374 30.7962  -2
   4  -4  17 28.8374 30.7962   1
  -5   4  14 45.1972 15.7232  -2
   5  -4  17 45.1972 15.7232   1
  -6   4  13 120.096 15.7188  -2
   6  -4  17 120.096 15.7188   1
  -7   4  12 12.8785 15.4564  -2
   7  -4  17 12.8785 15.4564   1
  -8   4  11 137.276 19.8166  -2
   8  -4  17 137.276 19.8166   1
  -9   4  10 140.984 20.8666  -2
   9  -4  17 140.984 20.8666   1
 -10   4   9 151.623 25.1440  -2
  10  -4  17 151.623 25.1440   1
 -11   4   8 34.6284 19.8382  -2
  11  -4  17 34.6284 19.8382   1
  -3   3  15 2.48263 20.7210  -2
   3  -3  17 2.48263 20.7210   1
   4  -3  17 59.4737 15.6678   1
  -5   3  14 52.0976 22.4730  -2
   5  -3  17 52.0976 22.4730   1
  -6   3  13 20.8942 28.5866  -2
   6  -3  17 20.8942 28.5866   1
  -7   3  12 37.4662 26.8557  -2
   7  -3  17 37.4662 26.8557   1
  -8   3  11 213.984 21.2464  -2
   8  -3  17 213.984 21.2464   1
  -9   3  10 135.695 19.7162  -2
   9  -3  17 135.695 19.7162   1
 -10   3   9 64.7920 16.3640  -2
  10  -3  17 64.7920 16.3640   1
 -11   3   8 22.0447 13.1255  -2
  11  -3  17 22.0447 13.1255   1
 -12   3   7 2.22917 14.0192  -2
  12  -3  17 2.22917 14.0192   1
  -2   2  16 -38.169 27.6517  -2
   2  -2  17 -38.169 27.6517   1
  -3   2  15 32.4757 21.1111  -2
   3  -2  17 32.4757 21.1111   1
  -4   2  14 31.2696 13.3817  -2
   4  -2  17 31.2696 13.3817   1
  -5   2  13 -8.5847 16.8785  -2
   5  -2  17 -8.5847 16.8785   1
  -6   2  12 98.4252 20.1750  -2
   6  -2  17 98.4252 20.1750   1
  -7   2  11 210.312 23.6595  -2
   7  -2  17 210.312 23.6595   1
  -8   2  10 191.275 13.7673  -2
   8  -2  17 191.275 13.7673   1
  -9   2   9 251.379 32.7580  -2
   9  -2  17 251.379 32.7580   1
 -10   2   8 39.9389 22.6684  -2
  10  -2  17 39.9389 22.6684   1
 -11   2   8 90.2597 29.7603  -2
  11  -2  17 90.2597 29.7603   1
 -12   2   7 253.710 23.2655  -2
  12  -2  17 253.710 23.2655   1
 -13   2   6 376.325 26.4243  -2
  13  -2  17 376.325 26.4243   1
  -3   1  15 108.338 30.7804  -2
   3  -1  17 108.338 30.7804   1
  -4   1  14 42.9092 16.7232  -2
   4  -1  17 42.9092 16.7232   1
  -5   1  13 271.102 19.1579  -2
   5  -1  17 271.102 19.1579   1
  -6   1  12 386.424 20.1913  -2
   6  -1  17 386.424 20.1913   1
  -7   1  11 141.720 15.8878  -2
   7  -1  17 141.720 15.8878   1
  -8   1  10 179.845 15.2848  -2
   8  -1  17 179.845 15.2848   1
  -9   1   9 43.0826 11.0441  -2
   9  -1  17 43.0826 11.0441   1
 -10   1   8 14.5316 12.8835  -2
  10  -1  17 14.5316 12.8835   1
 -11   1   7 130.415 14.6883  -2
  11  -1  17 130.415 14.6883   1
 -12   1   6 205.342 18.7186  -2
  12  -1  17 205.342 18.7186   1
 -13   1   5 76.0351 22.1908  -2
  13  -1  17 76.0351 22.1908   1
 -14   1   4 219.618 28.1947  -2
  14  -1  17 219.618 28.1947   1
  -1   0  16 41.2782 19.2283  -2
   1   0  17 41.2782 19.2283   1
  -2   0  15 5.14152 19.8003  -2
   2   0  17 5.14152 19.8003   1
  -3   0  14 92.1841 20.6205  -2
   3   0  17 92.1841 20.6205   1
  -4   0  13 15.2593 12.0926  -2
   4   0  17 15.2593 12.0926   1
  -5   0  12 299.348 17.1680  -2
   5   0  17 299.348 17.1680   1
  -6   0  11 38.5905 15.7582  -2
   6   0  17 38.5905 15.7582   1
  -7   0  10 -3.3379 18.8019  -2
   7   0  17 -3.3379 18.8019   1
   8   0  17 305.445 11.2302   1
  -9   0   9 -3.6160 27.2263  -2
   9   0  17 -3.6160 27.2263   1
 -10   0   8 111.665 17.4897  -2
  10   0  17 111.665 17.4897   1
 -11   0   7 211.678 19.1195  -2
  11   0  17 211.678 19.1195   1
 -12   0   6 200.422 16.0314  -2
  12   0  17 200.422 16.0314   1
 -13   0   5 57.8821 15.0996  -2
  13   0  17 57.8821 15.0996   1
 -14   0   4 68.6765 14.5349  -2
  14   0  17 68.6765 14.5349   1
   0   1  17 66.9768 14.8756   1
  -1  -1  16 37.8361 30.2902  -2
   1   1  17 37.8361 30.2902   1
  -2  -1  15 74.0037 23.3734  -2
   2   1  17 74.0037 23.3734   1
  -3  -1  14 58.3194 21.4202  -2
   3   1  17 58.3194 21.4202   1
  -4  -1  13 30.9155 19.3622  -2
   4   1  17 30.9155 19.3622   1
  -5  -1  12 107.065 18.9671  -2
   5   1  17 107.065 18.9671   1
  -6  -1  11 139.676 11.3356  -2
   6   1  17 139.676 11.3356   1
  -7  -1  10 476.628 20.7541  -2
   7   1  17 476.628 20.7541   1
  -8  -1   9 76.5874 8.29102  -2
   8   1  17 76.5874 8.29102   1
  -9  -1   8 333.191 15.0035  -2
   9   1  17 333.191 15.0035   1
 -10  -1   7 85.3904 21.3084  -2
  10   1  17 85.3904 21.3084   1
 -11  -1   6 59.0420 16.3080  -2
  11   1  17 59.0420 16.3080   1
 -12  -1   5 115.705 18.3653  -2
  12   1  17 115.705 18.3653   1
 -13  -1   4 216.286 25.7601  -2
  13   1  17 216.286 25.7601   1
 -14  -1   4 32.2118 32.3782  -2
  14   1  17 32.2118 32.3782   1
   0  -2  16 15.5878 21.4858  -2
   0   2  17 15.5878 21.4858   1
  -1  -2  15 -2.5879 21.5941  -2
   1   2  17 -2.5879 21.5941   1
  -2  -2  14 66.9497 22.4744  -2
   2   2  17 66.9497 22.4744   1
  -3  -2  13 108.031 22.2202  -2
   3   2  17 108.031 22.2202   1
   4   2  17 160.646 14.5491   1
   5   2  17 52.5617 9.89130   1
   6   2  17 21.1863 8.66308   1
  -7  -2  10 126.913 19.5011  -2
   7   2  17 126.913 19.5011   1
  -8  -2   9 49.4253 18.7005  -2
   8   2  17 49.4253 18.7005   1
  -9  -2   8 146.648 10.6914  -2
   9   2  17 146.648 10.6914   1
 -10  -2   7 98.9601 14.9787  -2
  10   2  17 98.9601 14.9787   1
 -11  -2   6 121.499 14.8228  -2
  11   2  17 121.499 14.8228   1
 -12  -2   5 80.5462 14.1948  -2
  12   2  17 80.5462 14.1948   1
 -13  -2   4 104.782 14.1643  -2
  13   2  17 104.782 14.1643   1
 -14  -2   3 265.320 24.6303  -2
  14   2  17 265.320 24.6303   1
   0  -3  16 39.3414 23.4899  -2
   0   3  17 39.3414 23.4899   1
  -1  -3  15 92.9606 20.3943  -2
   1   3  17 92.9606 20.3943   1
  -2  -3  14 168.412 20.7570  -2
   2   3  17 168.412 20.7570   1
  -3  -3  13 24.3442 14.4145  -2
   3   3  17 24.3442 14.4145   1
  -4  -3  12 -4.1856 12.8907  -2
   4   3  17 -4.1856 12.8907   1
  -5  -3  11 15.7396 15.4821  -2
   5   3  17 15.7396 15.4821   1
  -6  -3  10 298.500 19.2731  -2
   6   3  17 298.500 19.2731   1
  -7  -3   9 57.5902 15.5526  -2
   7   3  17 57.5902 15.5526   1
  -8  -3   8 156.777 18.2679  -2
   8   3  17 156.777 18.2679   1
  -9  -3   7 662.349 23.3215  -2
   9   3  17 662.349 23.3215   1
 -10  -3   6 6.61289 13.6612  -2
  10   3  17 6.61289 13.6612   1
 -11  -3   5 370.730 39.2574  -2
  11   3  17 370.730 39.2574   1
  12   3  17 -1.9936 9.92715   1
 -13  -3   4 97.0273 21.1053  -2
  13   3  17 97.0273 21.1053   1
 -14  -3   3 103.679 20.8991  -2
  14   3  17 103.679 20.8991   1
   0  -4  15 6.53229 29.2128  -2
   0   4  17 6.53229 29.2128   1
  -1  -4  14 62.7877 27.8366  -2
   1   4  17 62.7877 27.8366   1
  -2  -4  13 -0.7355 35.2140  -2
   2   4  17 -0.7355 35.2140   1
   3   4  17 -6.6941 9.72671   1
  -4  -4  12 6.27658 18.2403  -2
   4   4  17 6.27658 18.2403   1
  -5  -4  11 39.4905 17.8534  -2
   5   4  17 39.4905 17.8534   1
  -6  -4  10 146.411 17.8334  -2
   6   4  17 146.411 17.8334   1
  -7  -4   9 36.9851 23.6944  -2
   7   4  17 36.9851 23.6944   1
  -8  -4   8 171.173 11.8499  -2
   8   4  17 171.173 11.8499   1
  -9  -4   7 6.56901 9.09570  -2
   9   4  17 6.56901 9.09570   1
 -10  -4   6 184.890 10.8727  -2
  10   4  17 184.890 10.8727   1
 -11  -4   5 43.8954 12.4688  -2
  11   4  17 43.8954 12.4688   1
 -12  -4   4 331.050 19.0903  -2
  12   4  17 331.050 19.0903   1
 -13  -4   3 93.5706 14.3361  -2
  13   4  17 93.5706 14.3361   1
 -14  -4   2 37.4285 15.5039  -2
  14   4  17 37.4285 15.5039   1
   0  -5  15 -17.013 34.3932  -2
   0   5  17 -17.013 34.3932   1
  -1  -5  14 66.0065 19.4557  -2
   1   5  17 66.0065 19.4557   1
  -2  -5  13 52.9767 16.2955  -2
   2   5  17 52.9767 16.2955   1
  -3  -5  12 39.7125 16.9677  -2
   3   5  17 39.7125 16.9677   1
  -4  -5  11 97.1103 17.4916  -2
   4   5  17 97.1103 17.4916   1
  -5  -5  10 127.652 18.4263  -2
   5   5  17 127.652 18.4263   1
  -6  -5   9 154.896 19.7516  -2
   6   5  17 154.896 19.7516   1
  -7  -5   8 111.408 21.9872  -2
   7   5  17 111.408 21.9872   1
  -8  -5   7 19.7125 33.3642  -2
   8   5  17 19.7125 33.3642   1
   9   5  17 41.7920 7.95894   1
 -10  -5   6 47.6843 18.5394  -2
  10   5  17 47.6843 18.5394   1
 -11  -5   5 245.131 23.8811  -2
  11   5  17 245.131 23.8811   1
 -12  -5   4 68.2599 16.3582  -2
  12   5  17 68.2599 16.3582   1
 -13  -5   3 154.109 16.3638  -2
  13   5  17 154.109 16.3638   1
 -14  -5   2 464.679 26.6706  -2
  14   5  17 464.679 26.6706   1
   0   6  17 5.21437 25.0060   1
   1   6  17 87.8726 27.5063   1
  -2  -6  13 122.756 43.3906  -2
   2   6  17 122.756 43.3906   1
  -3  -6  12 -11.119 15.4760  -2
   3   6  17 -11.119 15.4760   1
  -4  -6  11 -0.1303 16.1991  -2
   4   6  17 -0.1303 16.1991   1
  -5  -6  10 51.7245 13.4901  -2
   5   6  17 51.7245 13.4901   1
  -6  -6   9 27.0264 12.5338  -2
   6   6  17 27.0264 12.5338   1
  -7  -6   8 76.1484 11.9181  -2
   7   6  17 76.1484 11.9181   1
  -8  -6   7 344.483 13.9256  -2
   8   6  17 344.483 13.9256   1
  -9  -6   6 142.629 10.0820  -2
   9   6  17 142.629 10.0820   1
 -10  -6   5 320.936 15.5071  -2
  10   6  17 320.936 15.5071   1
 -11  -6   4 184.573 15.9069  -2
  11   6  17 184.573 15.9069   1
 -12  -6   3 97.5244 16.3540  -2
  12   6  17 97.5244 16.3540   1
 -13  -6   2 146.864 19.1022  -2
  13   6  17 146.864 19.1022   1
 -14  -6   1 40.8602 25.7747  -2
  14   6  17 40.8602 25.7747   1
   0  -7  14 206.790 27.8984  -2
   0   7  17 206.790 27.8984   1
  -1  -7  13 15.0204 24.5737  -2
   1   7  17 15.0204 24.5737   1
  -2  -7  12 111.412 39.4770  -2
   2   7  17 111.412 39.4770   1
  -3  -7  11 115.454 40.8387  -2
   3   7  17 115.454 40.8387   1
  -4  -7  10 126.263 41.5868  -2
   4   7  17 126.263 41.5868   1
  -5  -7   9 21.2836 11.1190  -2
   5   7  17 21.2836 11.1190   1
   6   7  17 18.9590 6.28667   1
   7   7  17 16.7056 7.04571   1
  -8  -7   7 46.7667 14.5256  -2
   8   7  17 46.7667 14.5256   1
  -9  -7   6 117.490 10.3655  -2
   9   7  17 117.490 10.3655   1
 -10  -7   5 139.279 11.1420  -2
  10   7  17 139.279 11.1420   1
 -11  -7   4 24.0487 16.2101  -2
  11   7  17 24.0487 16.2101   1
 -12  -7   3 190.709 15.6078  -2
  12   7  17 190.709 15.6078   1
 -13  -7   2 215.031 17.1080  -2
  13   7  17 215.031 17.1080   1
  -1  -8  13 186.709 28.5396  -2
   1   8  17 186.709 28.5396   1
  -2  -8  12 13.4591 22.9991  -2
   2   8  17 13.4591 22.9991   1
  -3  -8  11 229.267 24.6386  -2
   3   8  17 229.267 24.6386   1
  -4  -8  10 73.2367 20.4094  -2
   4   8  17 73.2367 20.4094   1
  -5  -8   9 1.79291 18.9315  -2
   5   8  17 1.79291 18.9315   1
  -6  -8   8 22.0645 20.1290  -2
   6   8  17 22.0645 20.1290   1
  -7  -8   7 73.9503 22.3297  -2
   7   8  17 73.9503 22.3297   1
  -8  -8   6 51.8009 36.9243  -2
   8   8  17 51.8009 36.9243   1
  -9  -8   5 138.874 13.3242  -2
   9   8  17 138.874 13.3242   1
 -10  -8   4 275.624 17.4670  -2
  10   8  17 275.624 17.4670   1
  11   8  17 -3.6980 12.2132   1
 -12  -8   2 49.1183 19.4564  -2
  12   8  17 49.1183 19.4564   1
  13   8  17 16.3809 9.82650   1
  -1  -9  12 101.724 27.5662  -2
   1   9  17 101.724 27.5662   1
  -2  -9  11 55.7693 31.9756  -2
   2   9  17 55.7693 31.9756   1
   3   9  17 14.3223 9.89190   1
   4   9  17 35.3230 10.7143   1
  -5  -9   9 106.462 41.8719  -2
   5   9  17 106.462 41.8719   1
  -6  -9   8 72.2981 25.7567  -2
   6   9  17 72.2981 25.7567   1
  -7  -9   7 37.1212 25.2245  -2
   7   9  17 37.1212 25.2245   1
  -8  -9   6 94.7915 25.8787  -2
   8   9  17 94.7915 25.8787   1
  -9  -9   5 51.0282 34.5872  -2
   9   9  17 51.0282 34.5872   1
 -10  -9   4 49.9355 23.9722  -2
  10   9  17 49.9355 23.9722   1
 -11  -9   3 91.8684 21.5710  -2
  11   9  17 91.8684 21.5710   1
 -12  -9   2 56.9502 24.0499  -2
  12   9  17 56.9502 24.0499   1
  -2 -10  11 221.817 35.1040  -2
   2  10  17 221.817 35.1040   1
  -3 -10  10 39.5635 19.8659  -2
   3  10  17 39.5635 19.8659   1
  -4 -10   9 4.36346 20.0738  -2
   4  10  17 4.36346 20.0738   1
  -5 -10   8 198.454 24.2843  -2
   5  10  17 198.454 24.2843   1
  -6 -10   7 110.528 24.5332  -2
   6  10  17 110.528 24.5332   1
  -7 -10   6 245.505 27.4033  -2
   7  10  17 245.505 27.4033   1
  -8 -10   5 41.6993 39.1082  -2
   8  10  17 41.6993 39.1082   1
   9  10  17 18.5543 13.0687   1
  10  10  17 35.1367 13.4401   1
  11  10  17 121.265 13.9862   1
   4  11  17 51.4962 11.1799   1
  -6 -11   7 146.010 32.3143  -2
   6  11  17 146.010 32.3143   1
  -7 -11   6 50.0856 21.9851  -2
   7  11  17 50.0856 21.9851   1
  -8 -11   5 76.4506 31.5247  -2
   8  11  17 76.4506 31.5247   1
  -9 -11   4 18.7582 16.1637  -2
   9  11  17 18.7582 16.1637   1
   7  -3  18 16.0404 13.0789   1
   8  -3  18 10.5678 13.0594   1
   9  -3  18 31.3987 13.6295   1
  -5   2  14 157.450 36.6953  -2
   5  -2  18 157.450 36.6953   1
  -6   2  13 -42.437 35.3473  -2
   6  -2  18 -42.437 35.3473   1
  -7   2  12 178.658 23.4262  -2
   7  -2  18 178.658 23.4262   1
  -8   2  11 104.587 42.6779  -2
   8  -2  18 104.587 42.6779   1
  -9   2  10 91.1510 25.9714  -2
   9  -2  18 91.1510 25.9714   1
 -10   2   9 100.363 42.6677  -2
  10  -2  18 100.363 42.6677   1
  11  -2  18 137.939 13.6630   1
   4  -1  18 -20.679 17.9933   1
  -5   1  14 108.333 40.3600  -2
   5  -1  18 108.333 40.3600   1
  -6   1  13 17.0533 34.4762  -2
   6  -1  18 17.0533 34.4762   1
  -7   1  12 -1.7191 23.0059  -2
   7  -1  18 -1.7191 23.0059   1
  -8   1  11 34.4995 15.3773  -2
   8  -1  18 34.4995 15.3773   1
  -9   1  10 266.006 19.2131  -2
   9  -1  18 266.006 19.2131   1
 -10   1   9 112.709 16.1252  -2
  10  -1  18 112.709 16.1252   1
 -11   1   8 158.024 21.1534  -2
  11  -1  18 158.024 21.1534   1
 -12   1   7 292.663 26.4737  -2
  12  -1  18 292.663 26.4737   1
  -3   0  15 93.6661 35.8564  -2
   3   0  18 93.6661 35.8564   1
  -4   0  14 17.7106 28.8934  -2
   4   0  18 17.7106 28.8934   1
  -5   0  13 -22.662 23.7678  -2
   5   0  18 -22.662 23.7678   1
  -6   0  12 48.4820 25.3000  -2
   6   0  18 48.4820 25.3000   1
  -7   0  11 -39.047 38.7793  -2
   7   0  18 -39.047 38.7793   1
   8   0  18 3.26199 9.33480   1
  -9   0  10 73.1246 40.2664  -2
   9   0  18 73.1246 40.2664   1
 -10   0   9 353.603 28.2754  -2
  10   0  18 353.603 28.2754   1
 -11   0   8 -0.4587 21.2317  -2
  11   0  18 -0.4587 21.2317   1
  -3  -1  15 57.1291 28.3314  -2
   3   1  18 57.1291 28.3314   1
  -4  -1  14 47.7193 21.4981  -2
   4   1  18 47.7193 21.4981   1
  -5  -1  13 134.233 19.9589  -2
   5   1  18 134.233 19.9589   1
  -6  -1  12 50.6672 18.2237  -2
   6   1  18 50.6672 18.2237   1
  -7  -1  11 55.1075 12.1757  -2
   7   1  18 55.1075 12.1757   1
  -8  -1  10 146.467 20.7578  -2
   8   1  18 146.467 20.7578   1
  -9  -1   9 13.8793 19.7537  -2
   9   1  18 13.8793 19.7537   1
 -10  -1   8 57.0667 14.6099  -2
  10   1  18 57.0667 14.6099   1
 -11  -1   7 14.8210 16.8857  -2
  11   1  18 14.8210 16.8857   1
 -12  -1   6 38.1480 22.7668  -2
  12   1  18 38.1480 22.7668   1
 -13  -1   5 38.2927 24.6170  -2
  13   1  18 38.2927 24.6170   1
  -2  -2  15 246.900 34.6843  -2
   2   2  18 246.900 34.6843   1
  -3  -2  14 26.8269 25.0460  -2
   3   2  18 26.8269 25.0460   1
  -4  -2  13 6.79642 38.8768  -2
   4   2  18 6.79642 38.8768   1
   5   2  18 134.146 15.4354   1
  -6  -2  12 59.0853 29.9640  -2
   6   2  18 59.0853 29.9640   1
  -7  -2  11 186.377 23.9996  -2
   7   2  18 186.377 23.9996   1
  -8  -2  10 96.1718 22.2794  -2
   8   2  18 96.1718 22.2794   1
  -9  -2   9 95.4500 23.4131  -2
   9   2  18 95.4500 23.4131   1
 -10  -2   8 85.8686 21.6522  -2
  10   2  18 85.8686 21.6522   1
 -11  -2   7 474.369 23.3325  -2
  11   2  18 474.369 23.3325   1
 -12  -2   6 88.8672 12.9355  -2
  12   2  18 88.8672 12.9355   1
 -13  -2   5 164.366 20.6260  -2
  13   2  18 164.366 20.6260   1
  -2  -3  15 36.5706 20.7670  -2
   2   3  18 36.5706 20.7670   1
  -3  -3  14 1.80542 18.1530  -2
   3   3  18 1.80542 18.1530   1
  -4  -3  13 86.6171 17.0776  -2
   4   3  18 86.6171 17.0776   1
  -5  -3  12 63.0088 18.7020  -2
   5   3  18 63.0088 18.7020   1
  -6  -3  11 133.615 19.2952  -2
   6   3  18 133.615 19.2952   1
  -7  -3  10 131.433 19.4614  -2
   7   3  18 131.433 19.4614   1
  -8  -3   9 421.713 26.1017  -2
   8   3  18 421.713 26.1017   1
  -9  -3   8 66.6489 13.4463  -2
   9   3  18 66.6489 13.4463   1
 -10  -3   7 104.284 16.2510  -2
  10   3  18 104.284 16.2510   1
 -11  -3   6 145.515 20.5457  -2
  11   3  18 145.515 20.5457   1
  12   3  18 7.58364 10.7950   1
  13   3  18 -2.2794 8.27588   1
   2   4  18 8.66331 17.6687   1
  -3  -4  14 107.181 48.6482  -2
   3   4  18 107.181 48.6482   1
  -4  -4  13 150.877 30.2544  -2
   4   4  18 150.877 30.2544   1
  -5  -4  12 117.513 30.9388  -2
   5   4  18 117.513 30.9388   1
  -6  -4  11 112.476 26.6594  -2
   6   4  18 112.476 26.6594   1
  -7  -4  10 165.265 28.0906  -2
   7   4  18 165.265 28.0906   1
  -8  -4   9 33.3318 19.3745  -2
   8   4  18 33.3318 19.3745   1
  -9  -4   8 17.0706 18.6287  -2
   9   4  18 17.0706 18.6287   1
 -10  -4   7 287.569 13.7237  -2
  10   4  18 287.569 13.7237   1
 -11  -4   6 121.207 15.0736  -2
  11   4  18 121.207 15.0736   1
 -12  -4   5 117.095 13.4062  -2
  12   4  18 117.095 13.4062   1
 -13  -4   4 115.729 16.7595  -2
  13   4  18 115.729 16.7595   1
  -2  -5  14 205.312 38.7115  -2
   2   5  18 205.312 38.7115   1
  -3  -5  13 198.042 39.4007  -2
   3   5  18 198.042 39.4007   1
  -4  -5  12 200.886 24.7861  -2
   4   5  18 200.886 24.7861   1
  -5  -5  11 57.2718 20.6657  -2
   5   5  18 57.2718 20.6657   1
  -6  -5  10 -5.4263 21.0896  -2
   6   5  18 -5.4263 21.0896   1
  -7  -5   9 53.9228 20.8122  -2
   7   5  18 53.9228 20.8122   1
  -8  -5   8 12.8100 25.8564  -2
   8   5  18 12.8100 25.8564   1
   9   5  18 60.0583 5.86644   1
  10   5  18 213.181 17.2638   1
 -11  -5   6 56.0008 24.7556  -2
  11   5  18 56.0008 24.7556   1
 -12  -5   5 94.9608 19.3160  -2
  12   5  18 94.9608 19.3160   1
  13   5  18 258.011 15.7715   1
   2   6  18 4.28581 23.4562   1
  -4  -6  12 314.973 45.8874  -2
   4   6  18 314.973 45.8874   1
  -5  -6  11 37.7321 24.9369  -2
   5   6  18 37.7321 24.9369   1
  -6  -6  10 101.487 14.1275  -2
   6   6  18 101.487 14.1275   1
  -7  -6   9 87.4340 13.2760  -2
   7   6  18 87.4340 13.2760   1
  -8  -6   8 196.791 18.9642  -2
   8   6  18 196.791 18.9642   1
  -9  -6   7 72.4387 18.4687  -2
   9   6  18 72.4387 18.4687   1
 -10  -6   6 184.481 15.8161  -2
  10   6  18 184.481 15.8161   1
 -11  -6   5 55.8277 16.7057  -2
  11   6  18 55.8277 16.7057   1
 -12  -6   4 113.957 47.6307  -2
  12   6  18 113.957 47.6307   1
  -3  -7  12 139.256 28.7060  -2
   3   7  18 139.256 28.7060   1
  -4  -7  11 5.89829 28.4326  -2
   4   7  18 5.89829 28.4326   1
  -5  -7  10 -0.2106 37.3175  -2
   5   7  18 -0.2106 37.3175   1
   6   7  18 94.4275 23.8806   1
   7   7  18 257.051 19.8434   1
  -8  -7   8 108.333 43.2373  -2
   8   7  18 108.333 43.2373   1
  -9  -7   7 369.200 53.5814  -2
   9   7  18 369.200 53.5814   1
 -10  -7   6 175.359 44.5696  -2
  10   7  18 175.359 44.5696   1
  12   7  18 7.02518 13.3478   1
   3   8  18 128.092 26.7740   1
  -4  -8  11 101.059 22.7803  -2
   4   8  18 101.059 22.7803   1
  -5  -8  10 151.539 24.1746  -2
   5   8  18 151.539 24.1746   1
  -6  -8   9 140.892 32.5473  -2
   6   8  18 140.892 32.5473   1
  -7  -8   8 165.359 26.4323  -2
   7   8  18 165.359 26.4323   1
  -8  -8   7 121.845 27.9370  -2
   8   8  18 121.845 27.9370   1
  -9  -8   6 10.4584 28.9725  -2
   9   8  18 10.4584 28.9725   1
 -10  -8   5 277.057 36.5897  -2
  10   8  18 277.057 36.5897   1
 -11  -8   4 48.7962 47.2772  -2
  11   8  18 48.7962 47.2772   1
   4   9  18 47.8604 12.1198   1
   5   9  18 34.5107 12.0350   1
   6   9  18 -1.1150 11.1546   1
  -7  -9   8 -17.059 27.1826  -2
   7   9  18 -17.059 27.1826   1
  -8  -9   7 134.814 28.2924  -2
   8   9  18 134.814 28.2924   1
  -9  -9   6 96.0082 26.5417  -2
   9   9  18 96.0082 26.5417   1
  10   9  18 43.6454 14.5973   1
   6   1  19 22.7217 32.5046   1
  -7  -1  12 43.9845 23.6144  -2
   7   1  19 43.9845 23.6144   1
  -8  -1  11 173.853 26.3419  -2
   8   1  19 173.853 26.3419   1
  -9  -1  10 66.6753 34.5177  -2
   9   1  19 66.6753 34.5177   1
 -10  -1   9 38.5267 37.9483  -2
  10   1  19 38.5267 37.9483   1
   6   2  19 40.2369 14.4313   1
   7   2  19 15.0627 13.9591   1
   8   2  19 11.3528 17.2997   1
  -9  -2  10 28.3968 42.9554  -2
   9   2  19 28.3968 42.9554   1
  10   2  19 107.113 17.8113   1
  -5  -3  13 252.796 28.2621  -2
   5   3  19 252.796 28.2621   1
  -6  -3  12 76.3232 21.4020  -2
   6   3  19 76.3232 21.4020   1
  -7  -3  11 112.230 22.5447  -2
   7   3  19 112.230 22.5447   1
  -8  -3  10 71.6939 24.1777  -2
   8   3  19 71.6939 24.1777   1
  -9  -3   9 56.7755 25.2386  -2
   9   3  19 56.7755 25.2386   1
 -10  -3   8 126.814 30.5264  -2
  10   3  19 126.814 30.5264   1
  11   3  19 69.3609 20.1087   1
   5   4  19 34.2589 14.0140   1
   6   4  19 -5.6081 12.7859   1
  -7  -4  11 320.844 27.5929  -2
   7   4  19 320.844 27.5929   1
  -8  -4  10 73.9861 22.2184  -2
   8   4  19 73.9861 22.2184   1
  -9  -4   9 193.020 28.4497  -2
   9   4  19 193.020 28.4497   1
 -10  -4   8 63.7515 19.0771  -2
  10   4  19 63.7515 19.0771   1
 -11  -4   7 227.473 27.1276  -2
  11   4  19 227.473 27.1276   1
  -7  -5  10 93.2783 31.4011  -2
   7   5  19 93.2783 31.4011   1
  -8  -5   9 147.029 36.7434  -2
   8   5  19 147.029 36.7434   1
   9   5  19 100.346 17.8987   1
  10   5  19 27.0433 13.7098   1
   6   6  19 101.716 28.9682   1
  -8  -6   9 59.0183 34.4517  -2
   8   6  19 59.0183 34.4517   1
  -9  -6   8 276.306 46.0757  -2
   9   6  19 276.306 46.0757   1
   8   7  19 78.5080 22.3280   1
   0   0   0    0.00    0.00   0
;
_shelx_hkl_checksum              28117
loop_
_space_group_symop_operation_xyz
'x, y, z'
'-x, -y, -z'
loop_
_atom_site_label
_atom_site_type_symbol
_atom_site_fract_x
_atom_site_fract_y
_atom_site_fract_z
_atom_site_U_iso_or_equiv
_atom_site_adp_type
_atom_site_occupancy
_atom_site_site_symmetry_order
_atom_site_calc_flag
_atom_site_refinement_flags_posn
_atom_site_refinement_flags_adp
Fe1 Fe 0.93114(8) 0.61204(7) 0.25412(6) 0.00466(17) Uani 1 1 d . .
N1 N 0.9384(5) 0.7439(4) 0.2731(4) 0.0091(12) Uani 1 1 d . .
N2 N 0.7934(4) 0.6299(4) 0.2535(4) 0.0057(11) Uani 1 1 d . U
N3 N 0.9160(5) 0.4736(4) 0.2537(4) 0.0080(12) Uani 1 1 d . .
N4 N 1.0762(5) 0.5983(4) 0.2354(4) 0.0069(11) Uani 1 1 d . .
C(A1 C 1.0177(5) 0.7882(5) 0.2815(5) 0.0072(13) Uani 1 1 d . U
C(A2 C 0.8565(5) 0.8028(5) 0.2973(5) 0.0066(13) Uani 1 1 d . U
C(A3 C 0.7528(5) 0.7162(5) 0.2437(5) 0.0082(13) Uani 1 1 d . U
C(A4 C 0.7420(5) 0.5658(5) 0.2289(5) 0.0078(13) Uani 1 1 d . .
C(A5 C 0.8239(5) 0.4264(5) 0.2728(5) 0.0055(13) Uani 1 1 d . U
C(A6 C 0.9788(6) 0.4075(5) 0.2714(5) 0.0085(14) Uani 1 1 d . .
C(A7 C 1.1318(6) 0.5192(5) 0.2173(5) 0.0090(14) Uani 1 1 d . .
C(A8 C 1.1483(5) 0.6733(4) 0.2152(5) 0.0051(12) Uani 1 1 d . U
C(B1 C 0.9815(6) 0.8712(5) 0.3224(5) 0.0104(14) Uani 1 1 d . .
C(B2 C 0.8841(5) 0.8802(5) 0.3325(5) 0.0080(14) Uani 1 1 d . .
C(B3 C 0.6826(5) 0.7092(5) 0.1993(5) 0.0076(13) Uani 1 1 d . U
C(B4 C 0.6772(5) 0.6188(5) 0.1906(5) 0.0095(14) Uani 1 1 d . .
C(B5 C 0.8258(6) 0.3259(5) 0.3125(5) 0.0107(14) Uani 1 1 d . .
C(B6 C 0.9194(5) 0.3145(5) 0.3117(5) 0.0080(13) Uani 1 1 d . U
C(B7 C 1.2415(5) 0.5467(5) 0.1785(5) 0.0089(14) Uani 1 1 d . .
C(B8 C 1.2527(5) 0.6406(5) 0.1749(5) 0.0060(12) Uani 1 1 d . U
C(M1 C 0.7739(5) 0.7926(5) 0.2768(5) 0.0099(14) Uani 1 1 d . U
C(M2 C 0.7484(5) 0.4686(5) 0.2481(5) 0.0086(14) Uani 1 1 d . .
C(M3 C 1.0842(5) 0.4272(4) 0.2451(5) 0.0046(12) Uani 1 1 d . U
C(M4 C 1.1211(5) 0.7612(5) 0.2419(5) 0.0080(13) Uani 1 1 d . .
Br1 Br 1.04599(6) 0.94942(5) 0.36770(6) 0.01749(17) Uani 1 1 d . .
Br2 Br 0.80201(6) 0.97422(5) 0.38996(6) 0.01468(16) Uani 1 1 d . .
Br3 Br 0.62018(6) 0.80674(5) 0.14820(6) 0.01810(17) Uani 1 1 d . .
Br4 Br 0.60443(6) 0.57782(5) 0.12680(6) 0.01448(15) Uani 1 1 d . .
Br5 Br 0.71663(6) 0.22989(5) 0.36867(6) 0.01611(16) Uani 1 1 d . .
Br6 Br 0.95099(6) 0.19667(5) 0.36645(6) 0.01792(17) Uani 1 1 d . .
Br7 Br 1.35502(6) 0.47411(5) 0.12709(6) 0.01552(16) Uani 1 1 d . .
Br8 Br 1.38355(6) 0.70730(5) 0.12324(6) 0.01642(16) Uani 1 1 d . .
C1 C 0.6999(5) 0.8708(5) 0.2907(5) 0.0076(13) Uani 1 1 d . U
C2 C 0.7240(6) 0.9551(5) 0.2202(6) 0.0135(15) Uani 1 1 d . .
C3 C 0.6586(6) 1.0270(5) 0.2339(5) 0.0121(15) Uani 1 1 d . .
C4 C 0.5660(6) 1.0153(5) 0.3212(5) 0.0121(14) Uani 1 1 d . U
C5 C 0.5398(6) 0.9331(5) 0.3920(6) 0.0141(15) Uani 1 1 d . .
C6 C 0.6062(5) 0.8604(5) 0.3756(5) 0.0113(14) Uani 1 1 d . .
C7 C 0.6740(6) 0.4065(5) 0.2375(5) 0.0109(14) Uani 1 1 d . .
C8 C 0.7037(6) 0.3709(5) 0.1524(5) 0.0122(15) Uani 1 1 d . .
C9 C 0.6390(7) 0.3144(5) 0.1358(6) 0.0179(17) Uani 1 1 d . .
C10 C 0.5365(6) 0.2953(5) 0.2091(6) 0.0191(17) Uani 1 1 d . .
C11 C 0.5017(6) 0.3290(6) 0.2962(6) 0.0210(18) Uani 1 1 d . .
C12 C 0.5713(6) 0.3825(5) 0.3084(5) 0.0138(15) Uani 1 1 d . .
C13 C 1.1443(5) 0.3444(5) 0.2575(5) 0.0081(13) Uani 1 1 d . .
C14 C 1.1880(6) 0.2898(5) 0.1869(6) 0.0148(15) Uani 1 1 d . .
C15 C 1.2384(6) 0.2094(5) 0.2027(6) 0.0168(16) Uani 1 1 d . .
C16 C 1.2444(6) 0.1830(5) 0.2907(6) 0.0160(16) Uani 1 1 d . .
C17 C 1.2027(6) 0.2356(5) 0.3632(5) 0.0138(15) Uani 1 1 d . .
C18 C 1.1535(6) 0.3150(5) 0.3448(6) 0.0136(15) Uani 1 1 d . .
C19 C 1.2063(5) 0.8307(5) 0.2248(5) 0.0092(14) Uani 1 1 d . .
C20 C 1.2517(5) 0.8995(5) 0.1366(5) 0.0082(13) Uani 1 1 d . U
C21 C 1.3353(6) 0.9612(5) 0.1143(6) 0.0179(16) Uani 1 1 d . .
C22 C 1.3749(6) 0.9562(5) 0.1829(6) 0.0165(16) Uani 1 1 d . U
C23 C 1.3312(6) 0.8902(5) 0.2706(6) 0.0162(16) Uani 1 1 d . .
C24 C 1.2475(6) 0.8282(5) 0.2913(5) 0.0109(14) Uani 1 1 d . .
F1 F 0.8126(3) 0.9664(3) 0.1350(3) 0.0174(9) Uani 1 1 d . .
F2 F 0.6828(4) 1.1077(3) 0.1639(3) 0.0215(10) Uani 1 1 d . .
F3 F 0.5028(4) 1.0863(3) 0.3360(4) 0.0232(11) Uani 1 1 d . U
F4 F 0.4505(3) 0.9232(3) 0.4771(3) 0.0192(10) Uani 1 1 d . .
F5 F 0.5786(3) 0.7802(3) 0.4469(3) 0.0164(9) Uani 1 1 d . .
F6 F 0.8024(4) 0.3944(3) 0.0774(3) 0.0197(10) Uani 1 1 d . .
F7 F 0.6723(4) 0.2826(3) 0.0530(4) 0.0272(11) Uani 1 1 d . .
F8 F 0.4700(4) 0.2418(3) 0.1941(4) 0.0315(12) Uani 1 1 d . U
F9 F 0.4031(4) 0.3077(4) 0.3658(4) 0.0307(12) Uani 1 1 d . .
F10 F 0.5362(3) 0.4145(3) 0.3940(3) 0.0196(10) Uani 1 1 d . .
F11 F 1.1852(4) 0.3148(3) 0.0989(3) 0.0186(10) Uani 1 1 d . .
F12 F 1.2815(4) 0.1585(3) 0.1312(4) 0.0279(11) Uani 1 1 d . .
F13 F 1.2907(4) 0.1035(3) 0.3077(4) 0.0259(11) Uani 1 1 d . U
F14 F 1.2073(4) 0.2096(3) 0.4500(3) 0.0217(10) Uani 1 1 d . .
F15 F 1.1092(4) 0.3630(3) 0.4186(3) 0.0178(10) Uani 1 1 d . .
F16 F 1.2152(4) 0.9054(3) 0.0685(3) 0.0188(10) Uani 1 1 d . .
F17 F 1.3809(4) 1.0236(3) 0.0262(3) 0.0226(11) Uani 1 1 d . .
F18 F 1.4571(3) 1.0154(3) 0.1616(4) 0.0245(11) Uani 1 1 d . U
F19 F 1.3679(4) 0.8869(3) 0.3380(4) 0.0245(11) Uani 1 1 d . .
F20 F 1.2065(4) 0.7649(3) 0.3782(3) 0.0189(9) Uani 1 1 d . .
N5 N 0.9856(4) 0.6557(4) 0.1067(4) 0.0080(12) Uani 1 1 d . .
N6 N 1.0290(5) 0.7522(4) -0.0393(4) 0.0112(12) Uani 1 1 d . .
C25 C 1.0237(6) 0.7425(5) 0.0526(5) 0.0132(15) Uani 1 1 d . .
H25 H 1.0446 0.7915 0.0753 0.016 Uiso 1 1 calc R U
C26 C 0.9929(5) 0.6671(5) -0.0437(5) 0.0118(14) Uani 1 1 d . .
H26 H 0.9868 0.6523 -0.0988 0.014 Uiso 1 1 calc R U
C27 C 0.9672(5) 0.6069(5) 0.0465(5) 0.0081(13) Uani 1 1 d . U
H27 H 0.9409 0.5420 0.0647 0.010 Uiso 1 1 calc R U
C28 C 1.0587(7) 0.8406(5) -0.1160(6) 0.0226(16) Uani 1 1 d . U
H28A H 1.0905 0.8249 -0.1829 0.027 Uiso 1 1 calc R U
H28B H 1.1116 0.8799 -0.1113 0.027 Uiso 1 1 calc R U
C29 C 0.9667(7) 0.8970(6) -0.1050(6) 0.0282(18) Uani 1 1 d . U
H29A H 0.9896 0.9554 -0.1575 0.042 Uiso 1 1 calc R U
H29B H 0.9147 0.8587 -0.1109 0.042 Uiso 1 1 calc R U
H29C H 0.9358 0.9137 -0.0394 0.042 Uiso 1 1 calc R U
N7 N 0.8676(4) 0.5620(4) 0.4015(4) 0.0083(12) Uani 1 1 d . .
N8 N 0.7462(5) 0.4881(4) 0.5495(4) 0.0129(13) Uani 1 1 d . .
C30 C 0.7661(5) 0.5512(5) 0.4634(5) 0.0106(14) Uani 1 1 d . .
H30 H 0.7146 0.5835 0.4491 0.013 Uiso 1 1 calc R U
C31 C 0.8397(6) 0.4574(5) 0.5420(6) 0.0136(15) Uani 1 1 d . .
H31 H 0.8505 0.4125 0.5908 0.016 Uiso 1 1 calc R U
C32 C 0.9138(6) 0.5039(5) 0.4509(5) 0.0103(14) Uani 1 1 d . .
H32 H 0.9864 0.4972 0.4253 0.012 Uiso 1 1 calc R U
C33 C 0.6426(6) 0.4484(6) 0.6290(6) 0.0193(16) Uani 1 1 d . .
H33A H 0.5963 0.5007 0.6438 0.023 Uiso 1 1 calc R U
H33B H 0.6486 0.4193 0.6905 0.023 Uiso 1 1 calc R U
C34 C 0.5948(7) 0.3753(6) 0.6010(7) 0.028(2) Uani 1 1 d . .
H34A H 0.5261 0.3510 0.6561 0.042 Uiso 1 1 calc R U
H34B H 0.5873 0.4042 0.5410 0.042 Uiso 1 1 calc R U
H34C H 0.6396 0.3227 0.5876 0.042 Uiso 1 1 calc R U
loop_
_atom_site_aniso_label
_atom_site_aniso_U_11
_atom_site_aniso_U_22
_atom_site_aniso_U_33
_atom_site_aniso_U_23
_atom_site_aniso_U_13
_atom_site_aniso_U_12
Fe1 0.0050(5) 0.0030(4) 0.0081(4) -0.0010(4) -0.0048(4) 0.0006(3)
N1 0.013(3) 0.008(3) 0.008(3) 0.002(2) -0.007(2) 0.001(2)
N2 0.0047(18) 0.0039(17) 0.0071(18) -0.0014(14) -0.0012(14) -0.0003(14)
N3 0.011(3) 0.006(3) 0.012(3) -0.003(2) -0.008(2) 0.003(2)
N4 0.010(3) 0.005(3) 0.012(3) -0.004(2) -0.010(2) 0.004(2)
C(A1 0.009(2) 0.007(2) 0.008(2) -0.0020(15) -0.0062(16) -0.0008(16)
C(A2 0.007(2) 0.005(2) 0.008(2) -0.0004(15) -0.0043(15) -0.0004(16)
C(A3 0.008(2) 0.008(2) 0.009(2) -0.0003(15) -0.0047(16) -0.0025(16)
C(A4 0.004(3) 0.009(3) 0.010(3) -0.003(3) -0.002(3) -0.002(3)
C(A5 0.004(2) 0.0041(19) 0.0069(19) -0.0011(15) -0.0017(15) 0.0001(15)
C(A6 0.015(4) 0.004(3) 0.010(3) -0.004(3) -0.007(3) 0.003(3)
C(A7 0.013(4) 0.010(3) 0.011(3) -0.005(3) -0.011(3) 0.004(3)
C(A8 0.0046(19) 0.0058(18) 0.0056(18) -0.0019(15) -0.0025(14) -0.0019(15)
C(B1 0.014(4) 0.006(3) 0.012(3) 0.000(3) -0.008(3) -0.002(3)
C(B2 0.011(4) 0.005(3) 0.010(3) -0.002(2) -0.007(3) 0.005(3)
C(B3 0.006(2) 0.008(2) 0.008(2) 0.0000(15) -0.0036(15) 0.0021(16)
C(B4 0.005(3) 0.009(3) 0.018(4) -0.001(3) -0.008(3) -0.001(3)
C(B5 0.011(4) 0.006(3) 0.014(3) 0.000(3) -0.006(3) -0.002(3)
C(B6 0.008(2) 0.007(2) 0.009(2) -0.0021(15) -0.0035(16) 0.0031(16)
C(B7 0.009(4) 0.007(3) 0.012(3) -0.001(3) -0.007(3) 0.003(3)
C(B8 0.0044(19) 0.0079(19) 0.0060(18) -0.0013(15) -0.0026(14) 0.0001(15)
C(M1 0.0094(16) 0.0091(16) 0.0104(16) -0.0019(10) -0.0040(10) 0.0017(10)
C(M2 0.003(3) 0.012(3) 0.011(3) -0.004(3) -0.002(3) 0.000(3)
C(M3 0.0041(15) 0.0049(15) 0.0057(15) -0.0008(9) -0.0030(10) 0.0010(9)
C(M4 0.006(3) 0.011(3) 0.005(3) -0.002(3) -0.001(3) 0.000(3)
Br1 0.0180(4) 0.0133(3) 0.0334(4) -0.0152(3) -0.0183(4) 0.0057(3)
Br2 0.0161(4) 0.0103(3) 0.0248(4) -0.0100(3) -0.0131(3) 0.0061(3)
Br3 0.0243(4) 0.0095(3) 0.0323(4) -0.0041(3) -0.0235(4) 0.0055(3)
Br4 0.0176(4) 0.0111(3) 0.0232(4) -0.0037(3) -0.0167(3) 0.0013(3)
Br5 0.0115(4) 0.0076(3) 0.0284(4) 0.0017(3) -0.0105(3) -0.0025(3)
Br6 0.0163(4) 0.0069(3) 0.0319(4) 0.0034(3) -0.0152(3) -0.0009(3)
Br7 0.0087(4) 0.0122(3) 0.0280(4) -0.0092(3) -0.0084(3) 0.0035(3)
Br8 0.0112(4) 0.0149(3) 0.0247(4) -0.0042(3) -0.0094(3) 0.0001(3)
C1 0.0072(16) 0.0080(16) 0.0081(16) -0.0019(10) -0.0038(10) 0.0007(10)
C2 0.004(3) 0.018(4) 0.018(4) -0.009(3) -0.002(3) 0.000(3)
C3 0.014(4) 0.002(3) 0.020(4) -0.002(3) -0.008(3) 0.002(3)
C4 0.0120(17) 0.0118(17) 0.0130(17) -0.0032(10) -0.0059(11) 0.0016(10)
C5 0.010(4) 0.014(4) 0.022(4) -0.013(3) -0.006(3) 0.002(3)
C6 0.007(3) 0.006(3) 0.019(4) -0.003(3) -0.004(3) -0.002(3)
C7 0.012(4) 0.003(3) 0.020(4) -0.002(3) -0.010(3) 0.000(3)
C8 0.009(4) 0.010(3) 0.016(4) 0.003(3) -0.007(3) -0.003(3)
C9 0.037(5) 0.009(3) 0.018(4) -0.004(3) -0.021(4) 0.004(3)
C10 0.023(4) 0.005(3) 0.040(5) 0.003(3) -0.026(4) -0.004(3)
C11 0.013(4) 0.021(4) 0.030(5) 0.005(3) -0.015(4) -0.001(3)
C12 0.023(4) 0.007(3) 0.015(4) 0.002(3) -0.014(3) 0.004(3)
C13 0.005(3) 0.005(3) 0.015(3) 0.003(3) -0.007(3) -0.001(2)
C14 0.011(4) 0.014(4) 0.019(4) -0.004(3) -0.007(3) -0.001(3)
C15 0.021(4) 0.010(3) 0.020(4) -0.007(3) -0.008(3) 0.006(3)
C16 0.014(4) 0.006(3) 0.027(4) -0.004(3) -0.008(3) 0.006(3)
C17 0.016(4) 0.014(4) 0.015(4) 0.002(3) -0.013(3) -0.001(3)
C18 0.015(4) 0.008(3) 0.023(4) -0.006(3) -0.012(3) 0.001(3)
C19 0.007(3) 0.003(3) 0.019(4) -0.002(3) -0.008(3) 0.000(3)
C20 0.011(3) 0.006(3) 0.011(3) -0.005(2) -0.005(2) 0.002(2)
C21 0.015(4) 0.014(4) 0.018(4) -0.009(3) 0.000(3) 0.008(3)
C22 0.0159(18) 0.0160(18) 0.0175(18) -0.0051(10) -0.0068(11) 0.0003(10)
C23 0.016(4) 0.018(4) 0.024(4) -0.011(3) -0.015(3) 0.005(3)
C24 0.011(4) 0.010(3) 0.012(4) -0.005(3) -0.005(3) 0.002(3)
F1 0.016(2) 0.013(2) 0.016(2) -0.0013(17) -0.0024(19) 0.0042(17)
F2 0.025(3) 0.013(2) 0.024(2) 0.0017(18) -0.011(2) 0.0070(19)
F3 0.021(2) 0.017(2) 0.036(2) -0.0104(18) -0.0150(19) 0.0151(18)
F4 0.011(2) 0.020(2) 0.023(2) -0.0104(19) -0.0017(19) 0.0017(18)
F5 0.016(2) 0.009(2) 0.018(2) 0.0001(17) -0.0035(19) 0.0009(17)
F6 0.019(2) 0.020(2) 0.021(2) -0.0075(19) -0.008(2) 0.0041(19)
F7 0.047(3) 0.018(2) 0.032(3) -0.010(2) -0.029(3) 0.000(2)
F8 0.037(3) 0.025(2) 0.046(3) -0.004(2) -0.032(2) -0.009(2)
F9 0.017(3) 0.033(3) 0.041(3) 0.006(2) -0.017(2) -0.014(2)
F10 0.012(2) 0.028(2) 0.021(2) -0.0033(19) -0.010(2) -0.0015(19)
F11 0.026(3) 0.018(2) 0.018(2) -0.0083(18) -0.015(2) 0.0079(19)
F12 0.036(3) 0.020(2) 0.030(3) -0.017(2) -0.013(2) 0.017(2)
F13 0.025(2) 0.014(2) 0.036(2) -0.0012(18) -0.013(2) 0.0131(18)
F14 0.024(3) 0.021(2) 0.019(2) 0.0049(19) -0.013(2) 0.0046(19)
F15 0.024(3) 0.020(2) 0.015(2) -0.0060(18) -0.0137(19) 0.0061(19)
F16 0.022(2) 0.015(2) 0.020(2) 0.0012(18) -0.012(2) 0.0011(19)
F17 0.025(3) 0.010(2) 0.020(2) 0.0033(18) -0.002(2) -0.0037(19)
F18 0.012(2) 0.022(2) 0.038(2) -0.0086(19) -0.0084(19) -0.0086(18)
F19 0.025(3) 0.028(3) 0.035(3) -0.011(2) -0.024(2) 0.001(2)
F20 0.024(3) 0.018(2) 0.019(2) 0.0008(18) -0.015(2) -0.0043(19)
N5 0.011(3) 0.008(3) 0.010(3) -0.003(2) -0.008(2) 0.003(2)
N6 0.011(3) 0.009(3) 0.009(3) 0.002(2) -0.002(2) 0.002(2)
C25 0.020(4) 0.009(3) 0.010(3) -0.004(3) -0.005(3) -0.002(3)
C26 0.011(4) 0.015(3) 0.013(3) -0.006(3) -0.007(3) 0.001(3)
C27 0.0080(16) 0.0079(16) 0.0084(16) -0.0021(10) -0.0036(10) -0.0002(10)
C28 0.032(4) 0.014(3) 0.019(3) 0.006(3) -0.012(3) -0.002(3)
C29 0.034(3) 0.019(3) 0.025(3) 0.007(2) -0.013(3) 0.006(3)
N7 0.008(3) 0.006(3) 0.012(3) -0.003(2) -0.006(2) -0.001(2)
N8 0.012(3) 0.014(3) 0.013(3) 0.001(2) -0.006(3) -0.003(2)
C30 0.006(3) 0.012(3) 0.011(3) -0.003(3) -0.002(3) 0.006(3)
C31 0.019(4) 0.007(3) 0.018(4) -0.006(3) -0.011(3) 0.004(3)
C32 0.015(4) 0.006(3) 0.011(3) -0.002(3) -0.006(3) 0.002(3)
C33 0.013(4) 0.031(4) 0.010(3) 0.003(3) -0.003(3) -0.003(3)
C34 0.011(4) 0.031(5) 0.032(5) -0.002(4) -0.003(4) -0.013(3)
loop_
_atom_type_symbol
_atom_type_description
_atom_type_scat_dispersion_real
_atom_type_scat_dispersion_imag
_atom_type_scat_source
C C 0.0033 0.0016 'International Tables Vol C Tables 4.2.6.8 and 6.1.1.4'
H H 0.0000 0.0000 'International Tables Vol C Tables 4.2.6.8 and 6.1.1.4'
N N 0.0061 0.0033 'International Tables Vol C Tables 4.2.6.8 and 6.1.1.4'
F F 0.0171 0.0103 'International Tables Vol C Tables 4.2.6.8 and 6.1.1.4'
Fe Fe 0.3463 0.8444 'International Tables Vol C Tables 4.2.6.8 and 6.1.1.4'
Br Br -0.2901 2.4595 'International Tables Vol C Tables 4.2.6.8 and 6.1.1.4'
loop_
_geom_angle_atom_site_label_1
_geom_angle_atom_site_label_2
_geom_angle_atom_site_label_3
_geom_angle
N1 Fe1 N4 90.8(2)
N1 Fe1 N5 92.7(2)
N4 Fe1 N5 89.5(2)
N1 Fe1 N7 90.4(2)
N4 Fe1 N7 93.9(2)
N5 Fe1 N7 175.4(2)
N1 Fe1 N2 90.3(2)
N4 Fe1 N2 172.5(2)
N5 Fe1 N2 83.1(2)
N7 Fe1 N2 93.4(2)
N1 Fe1 N3 172.8(2)
N4 Fe1 N3 89.7(2)
N5 Fe1 N3 94.5(2)
N7 Fe1 N3 82.4(2)
N2 Fe1 N3 90.2(2)
C(A1 N1 C(A2 107.0(5)
C(A1 N1 Fe1 126.6(5)
C(A2 N1 Fe1 125.6(5)
C(A3 N2 C(A4 107.7(6)
C(A3 N2 Fe1 124.7(5)
C(A4 N2 Fe1 124.3(4)
C(A6 N3 C(A5 108.4(5)
C(A6 N3 Fe1 123.9(5)
C(A5 N3 Fe1 123.7(4)
C(A7 N4 C(A8 106.4(6)
C(A7 N4 Fe1 127.0(5)
C(A8 N4 Fe1 125.1(4)
N1 C(A1 C(M4 123.1(6)
N1 C(A1 C(B1 109.3(6)
C(M4 C(A1 C(B1 127.0(6)
C(M1 C(A2 N1 123.2(6)
C(M1 C(A2 C(B2 128.5(6)
N1 C(A2 C(B2 107.7(6)
N2 C(A3 C(M1 123.4(6)
N2 C(A3 C(B3 108.1(6)
C(M1 C(A3 C(B3 128.4(6)
C(M2 C(A4 N2 123.6(6)
C(M2 C(A4 C(B4 128.5(6)
N2 C(A4 C(B4 107.7(6)
N3 C(A5 C(M2 124.3(6)
N3 C(A5 C(B5 108.2(6)
C(M2 C(A5 C(B5 127.2(6)
N3 C(A6 C(M3 124.4(6)
N3 C(A6 C(B6 107.9(6)
C(M3 C(A6 C(B6 127.5(6)
N4 C(A7 C(M3 122.9(6)
N4 C(A7 C(B7 109.4(6)
C(M3 C(A7 C(B7 127.3(6)
N4 C(A8 C(M4 124.0(6)
N4 C(A8 C(B8 108.9(5)
C(M4 C(A8 C(B8 126.6(6)
C(B2 C(B1 C(A1 107.5(6)
C(B2 C(B1 Br1 123.1(5)
C(A1 C(B1 Br1 129.1(5)
C(B1 C(B2 C(A2 108.0(6)
C(B1 C(B2 Br2 123.0(5)
C(A2 C(B2 Br2 128.9(5)
C(B4 C(B3 C(A3 107.4(6)
C(B4 C(B3 Br3 123.4(5)
C(A3 C(B3 Br3 128.9(5)
C(B3 C(B4 C(A4 108.5(6)
C(B3 C(B4 Br4 122.7(5)
C(A4 C(B4 Br4 128.5(5)
C(B6 C(B5 C(A5 107.3(6)
C(B6 C(B5 Br5 124.3(5)
C(A5 C(B5 Br5 128.0(5)
C(B5 C(B6 C(A6 107.9(6)
C(B5 C(B6 Br6 121.4(5)
C(A6 C(B6 Br6 130.4(5)
C(B8 C(B7 C(A7 108.1(6)
C(B8 C(B7 Br7 122.9(5)
C(A7 C(B7 Br7 128.8(5)
C(B7 C(B8 C(A8 107.0(6)
C(B7 C(B8 Br8 122.3(5)
C(A8 C(B8 Br8 130.7(5)
C(A2 C(M1 C(A3 125.0(6)
C(A2 C(M1 C1 117.9(6)
C(A3 C(M1 C1 117.1(6)
C(A4 C(M2 C(A5 123.1(6)
C(A4 C(M2 C7 118.2(6)
C(A5 C(M2 C7 118.6(6)
C(A7 C(M3 C(A6 123.4(6)
C(A7 C(M3 C13 119.1(6)
C(A6 C(M3 C13 117.2(6)
C(A8 C(M4 C(A1 123.7(6)
C(A8 C(M4 C19 117.9(6)
C(A1 C(M4 C19 118.4(6)
C6 C1 C2 117.5(6)
C6 C1 C(M1 120.8(6)
C2 C1 C(M1 121.7(6)
F1 C2 C3 118.9(7)
F1 C2 C1 119.2(6)
C3 C2 C1 121.9(7)
F2 C3 C2 120.9(7)
F2 C3 C4 119.8(6)
C2 C3 C4 119.3(7)
F3 C4 C5 120.1(6)
F3 C4 C3 119.5(6)
C5 C4 C3 120.4(7)
F4 C5 C4 119.8(6)
F4 C5 C6 120.9(7)
C4 C5 C6 119.3(7)
F5 C6 C1 120.2(6)
F5 C6 C5 118.1(6)
C1 C6 C5 121.7(7)
C8 C7 C12 115.4(7)
C8 C7 C(M2 120.8(6)
C12 C7 C(M2 123.7(6)
F6 C8 C9 116.5(7)
F6 C8 C7 119.0(6)
C9 C8 C7 124.5(7)
F7 C9 C8 121.5(8)
F7 C9 C10 121.6(7)
C8 C9 C10 116.8(7)
F8 C10 C11 120.0(8)
F8 C10 C9 118.4(7)
C11 C10 C9 121.5(7)
F9 C11 C12 121.9(8)
F9 C11 C10 119.9(7)
C12 C11 C10 118.2(8)
F10 C12 C11 117.4(7)
F10 C12 C7 119.1(7)
C11 C12 C7 123.5(7)
C14 C13 C18 116.2(6)
C14 C13 C(M3 123.0(6)
C18 C13 C(M3 120.7(6)
F11 C14 C13 120.1(6)
F11 C14 C15 117.9(7)
C13 C14 C15 121.9(7)
F12 C15 C16 120.4(6)
F12 C15 C14 120.2(7)
C16 C15 C14 119.4(7)
F13 C16 C15 119.7(7)
F13 C16 C17 119.4(7)
C15 C16 C17 120.9(6)
F14 C17 C16 121.2(6)
F14 C17 C18 120.7(7)
C16 C17 C18 118.1(7)
F15 C18 C17 117.1(6)
F15 C18 C13 119.4(6)
C17 C18 C13 123.5(7)
C24 C19 C20 116.8(6)
C24 C19 C(M4 123.1(6)
C20 C19 C(M4 120.1(6)
F16 C20 C21 118.0(6)
F16 C20 C19 119.7(6)
C21 C20 C19 122.3(7)
F17 C21 C20 120.9(7)
F17 C21 C22 119.8(7)
C20 C21 C22 119.3(7)
F18 C22 C23 120.5(7)
F18 C22 C21 119.9(7)
C23 C22 C21 119.7(7)
F19 C23 C22 119.7(7)
F19 C23 C24 120.1(7)
C22 C23 C24 120.2(7)
F20 C24 C19 119.9(6)
F20 C24 C23 118.3(6)
C19 C24 C23 121.8(7)
C25 N5 C27 106.3(6)
C25 N5 Fe1 127.2(5)
C27 N5 Fe1 124.8(5)
C25 N6 C26 107.3(6)
C25 N6 C28 126.0(6)
C26 N6 C28 126.4(6)
N5 C25 N6 110.9(6)
N5 C25 H25 124.6
N6 C25 H25 124.6
N6 C26 C27 106.7(6)
N6 C26 H26 126.6
C27 C26 H26 126.6
C26 C27 N5 108.8(6)
C26 C27 H27 125.6
N5 C27 H27 125.6
N6 C28 C29 111.9(7)
N6 C28 H28A 109.2
C29 C28 H28A 109.2
N6 C28 H28B 109.2
C29 C28 H28B 109.2
H28A C28 H28B 107.9
C28 C29 H29A 109.5
C28 C29 H29B 109.5
H29A C29 H29B 109.5
C28 C29 H29C 109.5
H29A C29 H29C 109.5
H29B C29 H29C 109.5
C30 N7 C32 106.0(6)
C30 N7 Fe1 125.6(5)
C32 N7 Fe1 125.0(5)
C30 N8 C31 107.4(6)
C30 N8 C33 126.0(6)
C31 N8 C33 126.0(6)
N7 C30 N8 110.7(6)
N7 C30 H30 124.7
N8 C30 H30 124.7
C32 C31 N8 106.3(6)
C32 C31 H31 126.9
N8 C31 H31 126.9
C31 C32 N7 109.7(7)
C31 C32 H32 125.2
N7 C32 H32 125.2
N8 C33 C34 112.3(7)
N8 C33 H33A 109.1
C34 C33 H33A 109.1
N8 C33 H33B 109.1
C34 C33 H33B 109.1
H33A C33 H33B 107.9
C33 C34 H34A 109.5
C33 C34 H34B 109.5
H34A C34 H34B 109.5
C33 C34 H34C 109.5
H34A C34 H34C 109.5
H34B C34 H34C 109.5
loop_
_geom_bond_atom_site_label_1
_geom_bond_atom_site_label_2
_geom_bond_distance
Fe1 N1 1.986(6)
Fe1 N4 1.987(6)
Fe1 N5 1.993(5)
Fe1 N7 1.994(6)
Fe1 N2 1.996(6)
Fe1 N3 2.007(6)
N1 C(A1 1.379(9)
N1 C(A2 1.398(8)
N2 C(A3 1.374(9)
N2 C(A4 1.392(9)
N3 C(A6 1.372(9)
N3 C(A5 1.378(9)
N4 C(A7 1.383(9)
N4 C(A8 1.395(8)
C(A1 C(M4 1.416(10)
C(A1 C(B1 1.443(9)
C(A2 C(M1 1.371(10)
C(A2 C(B2 1.459(9)
C(A3 C(M1 1.386(9)
C(A3 C(B3 1.458(9)
C(A4 C(M2 1.380(9)
C(A4 C(B4 1.442(9)
C(A5 C(M2 1.394(9)
C(A5 C(B5 1.456(9)
C(A6 C(M3 1.400(9)
C(A6 C(B6 1.459(9)
C(A7 C(M3 1.393(9)
C(A7 C(B7 1.444(10)
C(A8 C(M4 1.402(9)
C(A8 C(B8 1.459(9)
C(B1 C(B2 1.346(10)
C(B1 Br1 1.874(7)
C(B2 Br2 1.871(6)
C(B3 C(B4 1.339(10)
C(B3 Br3 1.879(6)
C(B4 Br4 1.882(7)
C(B5 C(B6 1.348(10)
C(B5 Br5 1.868(7)
C(B6 Br6 1.877(7)
C(B7 C(B8 1.349(9)
C(B7 Br7 1.875(7)
C(B8 Br8 1.873(7)
C(M1 C1 1.517(9)
C(M2 C7 1.484(10)
C(M3 C13 1.492(9)
C(M4 C19 1.488(10)
C1 C6 1.378(10)
C1 C2 1.381(10)
C2 F1 1.340(8)
C2 C3 1.371(10)
C3 F2 1.340(8)
C3 C4 1.387(10)
C4 F3 1.343(8)
C4 C5 1.360(10)
C5 F4 1.345(8)
C5 C6 1.389(10)
C6 F5 1.343(8)
C7 C8 1.381(10)
C7 C12 1.385(11)
C8 F6 1.362(8)
C8 C9 1.378(10)
C9 F7 1.316(9)
C9 C10 1.387(12)
C10 F8 1.357(9)
C10 C11 1.386(12)
C11 F9 1.334(9)
C11 C12 1.369(11)
C12 F10 1.353(9)
C13 C14 1.379(10)
C13 C18 1.381(10)
C14 F11 1.339(9)
C14 C15 1.393(10)
C15 F12 1.350(8)
C15 C16 1.364(11)
C16 F13 1.353(8)
C16 C17 1.376(11)
C17 F14 1.336(8)
C17 C18 1.381(10)
C18 F15 1.350(8)
C19 C24 1.380(10)
C19 C20 1.387(10)
C20 F16 1.348(8)
C20 C21 1.375(10)
C21 F17 1.341(9)
C21 C22 1.388(11)
C22 F18 1.341(9)
C22 C23 1.361(11)
C23 F19 1.344(8)
C23 C24 1.385(11)
C24 F20 1.333(8)
N5 C25 1.320(9)
N5 C27 1.375(9)
N6 C25 1.352(9)
N6 C26 1.361(9)
N6 C28 1.465(9)
C25 H25 0.9500
C26 C27 1.365(10)
C26 H26 0.9500
C27 H27 0.9500
C28 C29 1.504(11)
C28 H28A 0.9900
C28 H28B 0.9900
C29 H29A 0.9800
C29 H29B 0.9800
C29 H29C 0.9800
N7 C30 1.331(9)
N7 C32 1.372(9)
N8 C30 1.354(9)
N8 C31 1.371(9)
N8 C33 1.470(9)
C30 H30 0.9500
C31 C32 1.362(10)
C31 H31 0.9500
C32 H32 0.9500
C33 C34 1.490(11)
C33 H33A 0.9900
C33 H33B 0.9900
C34 H34A 0.9800
C34 H34B 0.9800
C34 H34C 0.9800
