#------------------------------------------------------------------------------
#$Date: 2019-11-23 14:13:41 +0200 (Sat, 23 Nov 2019) $
#$Revision: 233572 $
#$URL: file:///home/coder/svn-repositories/cod/cif/4/34/90/4349085.cif $
#------------------------------------------------------------------------------
#
# This file is available in the Crystallography Open Database (COD),
# http://www.crystallography.net/
#
# All data on this site have been placed in the public domain by the
# contributors.
#
data_4349085
loop_
_publ_author_name
'Gallagher, Audrey T.'
'Kelty, Margaret L.'
'Park, Jesse G.'
'Anderson, John S.'
'Mason, Jarad A.'
'Walsh, James P. S.'
'Collins, Shenell L.'
'Harris, T. David'
_publ_section_title
;
 Dioxygen binding at a four-coordinate cobaltous porphyrin site in a
 metal--organic framework: structural, EPR, and O2 adsorption analysis
;
_journal_issue                   4
_journal_name_full               'Inorganic Chemistry Frontiers'
_journal_page_first              536
_journal_paper_doi               10.1039/C5QI00275C
_journal_volume                  3
_journal_year                    2016
_chemical_formula_moiety         '0.04(C576 H288 Co12 N48 O256 Zr48)'
_chemical_formula_sum            'C24 H12 Co0.5 N2 O10.67 Zr2'
_chemical_formula_weight         710.93
_chemical_name_systematic        PCN224Co
_space_group_crystal_system      cubic
_space_group_IT_number           229
_space_group_name_Hall           '-I 4 2 3'
_space_group_name_H-M_alt        'I m -3 m'
_atom_sites_solution_hydrogens   geom
_atom_sites_solution_primary     direct
_audit_creation_date             2015-09-21
_audit_creation_method
;
Olex2 1.2
(compiled 2015.01.26 svn.r3150 for OlexSys, GUI svn.r4998)
;
_audit_update_record
;
2015-11-30 deposited with the CCDC.
2016-01-22 downloaded from the CCDC.
;
_cell_angle_alpha                90
_cell_angle_beta                 90
_cell_angle_gamma                90
_cell_formula_units_Z            24
_cell_length_a                   38.5873(13)
_cell_length_b                   38.5873(13)
_cell_length_c                   38.5873(13)
_cell_measurement_reflns_used    9783
_cell_measurement_temperature    100.01
_cell_measurement_theta_max      66.219
_cell_measurement_theta_min      3.240
_cell_volume                     57456(3)
_computing_cell_refinement       'SAINT V7.23A (Bruker, 2005)'
_computing_data_collection       'APEX2 V2.1-4 (Bruker, 2007)'
_computing_data_reduction        'Bruker SAINT'
_computing_molecular_graphics    'Olex2 (Dolomanov et al., 2009)'
_computing_publication_material  'Olex2 (Dolomanov et al., 2009)'
_computing_structure_refinement  'XL (Sheldrick, 2008)'
_computing_structure_solution    'ShelXS (Sheldrick, 2008)'
_diffrn_ambient_temperature      100.01
_diffrn_detector_area_resol_mean 8
_diffrn_measured_fraction_theta_full 0.996
_diffrn_measured_fraction_theta_max 0.996
_diffrn_measurement_device_type  'Bruker Kappa APEX CCD area detector'
_diffrn_measurement_method       '\w and \f scans'
_diffrn_radiation_monochromator  'Quazar optics'
_diffrn_radiation_type           CuK\a
_diffrn_radiation_wavelength     1.54178
_diffrn_reflns_av_R_equivalents  0.0799
_diffrn_reflns_av_unetI/netI     0.0236
_diffrn_reflns_Laue_measured_fraction_full 0.996
_diffrn_reflns_Laue_measured_fraction_max 0.996
_diffrn_reflns_limit_h_max       44
_diffrn_reflns_limit_h_min       -45
_diffrn_reflns_limit_k_max       44
_diffrn_reflns_limit_k_min       -42
_diffrn_reflns_limit_l_max       43
_diffrn_reflns_limit_l_min       -39
_diffrn_reflns_number            132590
_diffrn_reflns_point_group_measured_fraction_full 0.996
_diffrn_reflns_point_group_measured_fraction_max 0.996
_diffrn_reflns_theta_full        66.589
_diffrn_reflns_theta_max         66.589
_diffrn_reflns_theta_min         2.805
_diffrn_source                   microsource
_exptl_absorpt_coefficient_mu    2.592
_exptl_absorpt_correction_T_max  0.3180
_exptl_absorpt_correction_T_min  0.2324
_exptl_absorpt_correction_type   multi-scan
_exptl_absorpt_process_details
;
SADABS-2012/1 (Bruker,2012) was used for absorption correction.
wR2(int) was 0.0775 before and 0.0707 after correction.
The Ratio of minimum to maximum transmission is 0.7308.
The \l/2 correction factor is 0.0015.
;
_exptl_crystal_colour            'dark red'
_exptl_crystal_colour_modifier   dark
_exptl_crystal_colour_primary    red
_exptl_crystal_density_diffrn    0.493
_exptl_crystal_description       block
_exptl_crystal_F_000             8372
_exptl_crystal_size_max          0.318
_exptl_crystal_size_mid          0.283
_exptl_crystal_size_min          0.249
_refine_diff_density_max         1.812
_refine_diff_density_min         -0.714
_refine_diff_density_rms         0.085
_refine_ls_extinction_method     none
_refine_ls_goodness_of_fit_ref   1.117
_refine_ls_hydrogen_treatment    constr
_refine_ls_matrix_type           full
_refine_ls_number_parameters     104
_refine_ls_number_reflns         4730
_refine_ls_number_restraints     0
_refine_ls_restrained_S_all      1.117
_refine_ls_R_factor_all          0.0974
_refine_ls_R_factor_gt           0.0861
_refine_ls_shift/su_max          0.001
_refine_ls_shift/su_mean         0.000
_refine_ls_structure_factor_coef Fsqd
_refine_ls_weighting_details
'w=1/[\s^2^(Fo^2^)+(0.1840P)^2^+69.8290P] where P=(Fo^2^+2Fc^2^)/3'
_refine_ls_weighting_scheme      calc
_refine_ls_wR_factor_gt          0.2598
_refine_ls_wR_factor_ref         0.2743
_reflns_Friedel_coverage         0.000
_reflns_number_gt                3748
_reflns_number_total             4730
_reflns_threshold_expression     'I > 2\s(I)'
_iucr_refine_instructions_details
;

     PCN224Co.res created by SHELXL-2014/7

TITL PCN224Co in Im-3m #229
REM reset to Im-3m #229
CELL 1.54178 38.5873 38.5873 38.5873 90 90 90
ZERR 24 0.0013 0.0013 0.0013 0 0 0
LATT 2
SYMM -Y,+X,+Z
SYMM -X,-Y,+Z
SYMM +Y,-X,+Z
SYMM +X,-Z,+Y
SYMM +X,-Y,-Z
SYMM +X,+Z,-Y
SYMM +Z,+Y,-X
SYMM -X,+Y,-Z
SYMM -Z,+Y,+X
SYMM +Z,+X,+Y
SYMM +Y,+Z,+X
SYMM -Y,-Z,+X
SYMM +Z,-X,-Y
SYMM -Y,+Z,-X
SYMM -Z,-X,+Y
SYMM -Z,+X,-Y
SYMM +Y,-Z,-X
SYMM +Y,+X,-Z
SYMM -Y,-X,-Z
SYMM -X,+Z,+Y
SYMM -X,-Z,-Y
SYMM +Z,-Y,+X
SYMM -Z,-Y,-X
SFAC C H Co N O Zr
UNIT 576 288 12 48 256 48
 
L.S. 4 0 0
PLAN  20
TEMP -173.14
BOND
MORE -1
CONF
BOND $H
fmap 2 53
acta
REM <olex2.extras>
REM <HklSrc "%.\\PCN224Co-mask.hkl">
REM </olex2.extras>
 
WGHT    0.184000   69.829002
FVAR       0.01340
CO1   3    0.250000    0.500000    0.000000    10.12500    0.21359    0.01952 =
         0.01952    0.00000    0.00000    0.00000
O1    5    0.217379    0.217379    0.217379    10.16667    0.04994    0.04994 =
         0.04994    0.04177    0.04177    0.04177
O2    5    0.240685    0.303208    0.240685    10.50000    0.10255    0.11303 =
         0.10255    0.07677    0.07658    0.07677
N1    4    0.250588    0.449794    0.000000    10.50000    0.21489    0.02718 =
         0.03758    0.00000    0.00000    0.00473
C1    1    0.252482    0.391843    0.017188    11.00000    0.26647    0.01427 =
         0.04518    0.00463    0.00184   -0.00138
AFIX  43
H1    2    0.253069    0.372084    0.031863    11.00000   -1.20000
AFIX   0
C2    1    0.250000    0.409632    0.090368    10.50000    0.19798    0.02754 =
         0.02754    0.00131    0.00439    0.00439
C3    1    0.250000    0.359266    0.140734    10.50000    0.14064    0.04916 =
         0.04916    0.02215    0.02933    0.02933
C4    1    0.251429    0.427285    0.027911    11.00000    0.20599    0.03103 =
         0.03312    0.01248    0.00637    0.00015
C5    1    0.250000    0.437460    0.062540    10.50000    0.21040    0.02241 =
         0.02241    0.00767   -0.00018   -0.00018
C6    1    0.219878    0.366287    0.123509    11.00000    0.16699    0.07193 =
         0.06324    0.03566    0.01621    0.03175
AFIX  43
H6    2    0.199388    0.353826    0.129080    11.00000   -1.20000
AFIX   0
C7    1    0.219046    0.392166    0.097271    11.00000    0.16436    0.06427 =
         0.07008    0.03316    0.00055    0.00923
AFIX  43
H7    2    0.198352    0.397346    0.084981    11.00000   -1.20000
AFIX   0
ZR1   6    0.213363    0.276208    0.213363    10.25000    0.05745    0.06892 =
         0.05745    0.03609    0.02525    0.03609
ZR2   6    0.203914    0.268223    0.203914    10.25000    0.05610    0.06280 =
         0.05610    0.02990    0.02141    0.02990
O3    5    0.222501    0.315139    0.172124    11.00000    0.10683    0.09688 =
         0.08979    0.05534    0.05876    0.06310
O4    5    0.197237    0.248982    0.152087    11.00000    0.39914    0.18988 =
         0.17913    0.11187   -0.09194   -0.04916
C8    1    0.250000    0.331068    0.168932    10.50000    0.11406    0.07812 =
         0.07812    0.04553    0.04510    0.04510
HKLF 4
 
REM  PCN224Co in Im-3m #229
REM R1 =  0.0861 for    3748 Fo > 4sig(Fo)  and  0.0974 for all    4730 data
REM    104 parameters refined using      0 restraints
 
END  
     
WGHT      0.1842     69.3586 

REM Highest difference peak  1.812,  deepest hole -0.714,  1-sigma level  0.085
Q1    1   0.2500  0.2999  0.2001  10.50000  0.05    1.14
Q2    1   0.1803  0.2616  0.1803  10.50000  0.05    0.97
Q3    1   0.1804  0.2211  0.1804  10.50000  0.05    0.95
Q4    1   0.2214  0.2839  0.2214  10.50000  0.05    0.86
Q5    1   0.2247  0.5000  0.0000  10.25000  0.05    0.70
Q6    1   0.1562  0.2449  0.1562  10.50000  0.05    0.47
Q7    1   0.2015  0.2435  0.1600  11.00000  0.05    0.37
Q8    1   0.1986  0.1986  0.1378  10.50000  0.05    0.35
Q9    1   0.2436  0.2436  0.1411  10.50000  0.05    0.26
Q10   1   0.2221  0.2547  0.1257  11.00000  0.05    0.24
Q11   1   0.2196  0.3239  0.1816  11.00000  0.05    0.24
Q12   1   0.2618  0.2984  0.1579  11.00000  0.05    0.23
Q13   1   0.0000  0.2575  0.0000  10.12500  0.05    0.22
Q14   1   0.2171  0.2822  0.1548  11.00000  0.05    0.22
Q15   1   0.2277  0.4289  0.0193  11.00000  0.05    0.21
Q16   1   0.2571  0.4197  0.0212  11.00000  0.05    0.20
Q17   1   0.2559  0.4053  0.0188  11.00000  0.05    0.19
Q18   1   0.2884  0.4080  0.0000  10.50000  0.05    0.18
Q19   1   0.1805  0.3992  0.0995  11.00000  0.05    0.17
Q20   1   0.2171  0.3820  0.0000  10.50000  0.05    0.17

REM The information below was added by Olex2.
REM
REM R1 = 0.0861 for 3748 Fo > 4sig(Fo) and 0.0974 for all 4730 data
REM n/a parameters refined using n/a restraints
REM Highest difference peak 1.81, deepest hole -0.71
REM Mean Shift 0, Max Shift -0.001.

REM +++ Tabular Listing of Refinement Information +++
REM R1_all = 0.0974
REM R1_gt = 0.0861
REM wR_ref = 0.2743
REM GOOF = 1.117
REM Shift_max = -0.001
REM Shift_mean = 0
REM Reflections_all = 4730
REM Reflections_gt = 3748
REM Parameters = n/a
REM Hole = -0.71
REM Peak = 1.81
REM Flack = n/a

;
_cod_data_source_file            c5qi00275c2.cif
_cod_data_source_block           PCN224Co
_cod_original_cell_volume        57456(6)
_cod_original_formula_sum        'C24 H12 Co0.50 N2 O10.67 Zr2'
_cod_database_code               4349085
_shelx_space_group_comment
;
The symmetry employed for this shelxl refinement is uniquely defined
by the following loop, which should always be used as a source of
symmetry information in preference to the above space-group names.
They are only intended as comments.
;
_olex2_refinement_description
;
1. Fixed Uiso
 At 1.2 times of:
  All C(H) groups
2. Others
 Fixed Sof: Zr1(0.25) Zr2(0.25)
3.a Aromatic/amide H refined with riding coordinates:
 C1(H1), C6(H6), C7(H7)
;
_shelx_shelxl_version_number     2014/7
_olex2_submission_special_instructions 'No special instructions were received'
loop_
_space_group_symop_operation_xyz
'x, y, z'
'-y, x, z'
'-x, -y, z'
'y, -x, z'
'x, -z, y'
'x, -y, -z'
'x, z, -y'
'z, y, -x'
'-x, y, -z'
'-z, y, x'
'z, x, y'
'y, z, x'
'-y, -z, x'
'z, -x, -y'
'-y, z, -x'
'-z, -x, y'
'-z, x, -y'
'y, -z, -x'
'y, x, -z'
'-y, -x, -z'
'-x, z, y'
'-x, -z, -y'
'z, -y, x'
'-z, -y, -x'
'x+1/2, y+1/2, z+1/2'
'-y+1/2, x+1/2, z+1/2'
'-x+1/2, -y+1/2, z+1/2'
'y+1/2, -x+1/2, z+1/2'
'x+1/2, -z+1/2, y+1/2'
'x+1/2, -y+1/2, -z+1/2'
'x+1/2, z+1/2, -y+1/2'
'z+1/2, y+1/2, -x+1/2'
'-x+1/2, y+1/2, -z+1/2'
'-z+1/2, y+1/2, x+1/2'
'z+1/2, x+1/2, y+1/2'
'y+1/2, z+1/2, x+1/2'
'-y+1/2, -z+1/2, x+1/2'
'z+1/2, -x+1/2, -y+1/2'
'-y+1/2, z+1/2, -x+1/2'
'-z+1/2, -x+1/2, y+1/2'
'-z+1/2, x+1/2, -y+1/2'
'y+1/2, -z+1/2, -x+1/2'
'y+1/2, x+1/2, -z+1/2'
'-y+1/2, -x+1/2, -z+1/2'
'-x+1/2, z+1/2, y+1/2'
'-x+1/2, -z+1/2, -y+1/2'
'z+1/2, -y+1/2, x+1/2'
'-z+1/2, -y+1/2, -x+1/2'
'-x, -y, -z'
'y, -x, -z'
'x, y, -z'
'-y, x, -z'
'-x, z, -y'
'-x, y, z'
'-x, -z, y'
'-z, -y, x'
'x, -y, z'
'z, -y, -x'
'-z, -x, -y'
'-y, -z, -x'
'y, z, -x'
'-z, x, y'
'y, -z, x'
'z, x, -y'
'z, -x, y'
'-y, z, x'
'-y, -x, z'
'y, x, z'
'x, -z, -y'
'x, z, y'
'-z, y, -x'
'z, y, x'
'-x+1/2, -y+1/2, -z+1/2'
'y+1/2, -x+1/2, -z+1/2'
'x+1/2, y+1/2, -z+1/2'
'-y+1/2, x+1/2, -z+1/2'
'-x+1/2, z+1/2, -y+1/2'
'-x+1/2, y+1/2, z+1/2'
'-x+1/2, -z+1/2, y+1/2'
'-z+1/2, -y+1/2, x+1/2'
'x+1/2, -y+1/2, z+1/2'
'z+1/2, -y+1/2, -x+1/2'
'-z+1/2, -x+1/2, -y+1/2'
'-y+1/2, -z+1/2, -x+1/2'
'y+1/2, z+1/2, -x+1/2'
'-z+1/2, x+1/2, y+1/2'
'y+1/2, -z+1/2, x+1/2'
'z+1/2, x+1/2, -y+1/2'
'z+1/2, -x+1/2, y+1/2'
'-y+1/2, z+1/2, x+1/2'
'-y+1/2, -x+1/2, z+1/2'
'y+1/2, x+1/2, z+1/2'
'x+1/2, -z+1/2, -y+1/2'
'x+1/2, z+1/2, y+1/2'
'-z+1/2, y+1/2, -x+1/2'
'z+1/2, y+1/2, x+1/2'
loop_
_atom_site_label
_atom_site_type_symbol
_atom_site_fract_x
_atom_site_fract_y
_atom_site_fract_z
_atom_site_U_iso_or_equiv
_atom_site_adp_type
_atom_site_occupancy
_atom_site_site_symmetry_order
_atom_site_calc_flag
_atom_site_refinement_flags_posn
_atom_site_refinement_flags_adp
_atom_site_refinement_flags_occupancy
Co1 Co 0.2500 0.5000 0.0000 0.0842(9) Uani 1 8 d S T P
O1 O 0.21738(12) 0.21738(12) 0.21738(12) 0.0499(18) Uani 1 6 d S T P
O2 O 0.24068(14) 0.30321(17) 0.24068(14) 0.106(3) Uani 1 2 d S T P
N1 N 0.2506(2) 0.44979(13) 0.0000 0.093(2) Uani 1 2 d S T P
C1 C 0.2525(2) 0.39184(9) 0.01719(12) 0.109(3) Uani 1 1 d . . .
H1 H 0.2531 0.3721 0.0319 0.130 Uiso 1 1 calc R . .
C2 C 0.2500 0.40963(10) 0.09037(10) 0.084(3) Uani 1 2 d S T P
C3 C 0.2500 0.35927(10) 0.14073(10) 0.080(2) Uani 1 2 d S T P
C4 C 0.25143(19) 0.42728(10) 0.02791(10) 0.090(2) Uani 1 1 d . . .
C5 C 0.2500 0.43746(9) 0.06254(9) 0.085(3) Uani 1 2 d S T P
C6 C 0.2199(2) 0.36629(15) 0.12351(14) 0.101(2) Uani 1 1 d . . .
H6 H 0.1994 0.3538 0.1291 0.121 Uiso 1 1 calc R . .
C7 C 0.2190(2) 0.39217(14) 0.09727(15) 0.100(2) Uani 1 1 d . . .
H7 H 0.1984 0.3973 0.0850 0.119 Uiso 1 1 calc R . .
Zr1 Zr 0.21336(4) 0.27621(8) 0.21336(4) 0.0613(8) Uani 0.5 2 d S T P
Zr2 Zr 0.20391(4) 0.26822(8) 0.20391(4) 0.0583(7) Uani 0.5 2 d S T P
O3 O 0.22250(11) 0.31514(11) 0.17212(10) 0.0978(15) Uani 1 1 d . . .
O4 O 0.1972(3) 0.2490(2) 0.1521(2) 0.256(5) Uani 1 1 d . . .
C8 C 0.2500 0.33107(12) 0.16893(12) 0.090(3) Uani 1 2 d S T P
loop_
_atom_site_aniso_label
_atom_site_aniso_U_11
_atom_site_aniso_U_22
_atom_site_aniso_U_33
_atom_site_aniso_U_23
_atom_site_aniso_U_13
_atom_site_aniso_U_12
Co1 0.214(3) 0.0195(5) 0.0195(5) 0.000 0.000 0.000
O1 0.0499(18) 0.0499(18) 0.0499(18) 0.042(2) 0.042(2) 0.042(2)
O2 0.103(3) 0.113(4) 0.103(3) 0.077(3) 0.077(4) 0.077(3)
N1 0.215(8) 0.027(2) 0.038(3) 0.000 0.000 0.005(3)
C1 0.266(8) 0.0143(16) 0.045(2) 0.0046(16) 0.002(3) -0.001(3)
C2 0.198(9) 0.0275(16) 0.0275(16) 0.001(2) 0.004(2) 0.004(2)
C3 0.141(7) 0.049(2) 0.049(2) 0.022(3) 0.029(3) 0.029(3)
C4 0.206(7) 0.0310(19) 0.033(2) 0.0125(17) 0.006(3) 0.000(3)
C5 0.210(9) 0.0224(15) 0.0224(15) 0.008(2) 0.000(2) 0.000(2)
C6 0.167(6) 0.072(3) 0.063(3) 0.036(3) 0.016(3) 0.032(4)
C7 0.164(6) 0.064(3) 0.070(3) 0.033(3) 0.001(3) 0.009(3)
Zr1 0.0575(9) 0.0689(15) 0.0575(9) 0.0361(9) 0.0252(9) 0.0361(9)
Zr2 0.0561(8) 0.0628(12) 0.0561(8) 0.0299(8) 0.0214(8) 0.0299(8)
O3 0.107(3) 0.097(3) 0.090(2) 0.055(2) 0.059(2) 0.063(2)
O4 0.399(14) 0.190(7) 0.179(7) 0.112(6) -0.092(8) -0.049(7)
C8 0.114(7) 0.078(3) 0.078(3) 0.046(4) 0.045(4) 0.045(4)
loop_
_atom_type_symbol
_atom_type_description
_atom_type_scat_dispersion_real
_atom_type_scat_dispersion_imag
_atom_type_scat_source
C C 0.0181 0.0091 'International Tables Vol C Tables 4.2.6.8 and 6.1.1.4'
H H 0.0000 0.0000 'International Tables Vol C Tables 4.2.6.8 and 6.1.1.4'
Co Co -2.3653 3.6143 'International Tables Vol C Tables 4.2.6.8 and 6.1.1.4'
N N 0.0311 0.0180 'International Tables Vol C Tables 4.2.6.8 and 6.1.1.4'
O O 0.0492 0.0322 'International Tables Vol C Tables 4.2.6.8 and 6.1.1.4'
Zr Zr -0.1862 2.2449 'International Tables Vol C Tables 4.2.6.8 and 6.1.1.4'
loop_
_geom_angle_atom_site_label_1
_geom_angle_atom_site_label_2
_geom_angle_atom_site_label_3
_geom_angle
_geom_angle_site_symmetry_1
_geom_angle_site_symmetry_3
N1 Co1 N1 90.008(6) 79_554 6_565
N1 Co1 N1 90.008(6) 77 .
N1 Co1 N1 178.7(5) 6_565 .
N1 Co1 N1 178.7(5) 79_554 77
N1 Co1 N1 90.008(6) 6_565 77
N1 Co1 N1 90.008(6) 79_554 .
Zr1 O1 Zr1 97.5(2) 11 .
Zr1 O1 Zr1 97.5(2) 12 11
Zr1 O1 Zr1 97.5(2) 12 .
Zr2 O1 Zr1 107.1(2) 12 11
Zr2 O1 Zr1 107.1(2) 12 .
Zr2 O1 Zr1 107.1(2) 11 .
Zr2 O1 Zr1 15.02(9) 11 11
Zr2 O1 Zr1 15.02(9) 12 12
Zr2 O1 Zr1 107.1(2) . 11
Zr2 O1 Zr1 107.1(2) 11 12
Zr2 O1 Zr1 107.1(2) . 12
Zr2 O1 Zr1 15.02(9) . .
Zr2 O1 Zr2 113.76(18) 12 11
Zr2 O1 Zr2 113.76(18) 11 .
Zr2 O1 Zr2 113.76(18) 12 .
Zr1 O2 Zr1 98.2(3) . 83
Zr1 O2 Zr1 98.2(3) . 84
Zr1 O2 Zr1 118.6(3) 84 83
Zr1 O2 Zr2 98.7(3) 84 .
Zr1 O2 Zr2 114.8(3) 84 83
Zr1 O2 Zr2 15.72(10) 83 83
Zr1 O2 Zr2 114.8(3) 83 84
Zr1 O2 Zr2 1.01(16) . .
Zr1 O2 Zr2 113.8(3) . 84
Zr1 O2 Zr2 98.7(3) 83 .
Zr1 O2 Zr2 15.72(10) 84 84
Zr1 O2 Zr2 113.8(3) . 83
Zr2 O2 Zr2 107.0(3) 84 83
Zr2 O2 Zr2 114.3(3) 83 .
Zr2 O2 Zr2 114.3(3) 84 .
C4 N1 Co1 128.9(2) . .
C4 N1 Co1 128.9(2) 51 .
C4 N1 C4 102.2(5) 51 .
C1 C1 H1 126.6 51 .
C1 C1 C4 106.8(2) 51 .
C4 C1 H1 126.6 . .
C7 C2 C5 118.4(3) . .
C7 C2 C5 118.4(3) 46 .
C7 C2 C7 123.2(6) . 46
C6 C3 C6 122.1(7) 46 .
C6 C3 C8 119.0(3) . .
C6 C3 C8 119.0(3) 46 .
N1 C4 C1 112.1(4) . .
N1 C4 C5 124.6(4) . .
C5 C4 C1 123.2(4) . .
C4 C5 C2 118.6(2) . .
C4 C5 C2 118.6(2) 46 .
C4 C5 C4 122.8(5) . 46
C3 C6 H6 119.8 . .
C3 C6 C7 120.3(7) . .
C7 C6 H6 119.8 . .
C2 C7 C6 117.1(7) . .
C2 C7 H7 121.5 . .
C6 C7 H7 121.5 . .
O1 Zr1 Zr1 93.60(15) . 84
O1 Zr1 Zr1 93.60(15) . 83
O1 Zr1 Zr2 98.53(17) . 84
O1 Zr1 O4 71.5(2) . .
O1 Zr1 O4 71.5(2) . 72
O2 Zr1 O1 68.7(2) 83 .
O2 Zr1 O1 119.4(2) . .
O2 Zr1 O1 68.7(2) 84 .
O2 Zr1 O2 81.8(3) . 84
O2 Zr1 O2 81.8(3) . 83
O2 Zr1 O2 117.6(3) 84 83
O2 Zr1 Zr1 43.20(9) . 84
O2 Zr1 Zr1 43.20(9) . 83
O2 Zr1 Zr1 103.6(2) 84 83
O2 Zr1 Zr1 38.6(3) 84 84
O2 Zr1 Zr1 103.6(2) 83 84
O2 Zr1 Zr1 38.6(3) 83 83
O2 Zr1 Zr2 36.46(8) . 84
O2 Zr1 Zr2 101.0(3) 83 84
O2 Zr1 Zr2 45.4(3) 84 84
O2 Zr1 O3 155.6(2) 84 .
O2 Zr1 O3 86.3(2) . .
O2 Zr1 O3 155.6(2) 83 72
O2 Zr1 O3 86.3(2) . 72
O2 Zr1 O3 81.37(13) 84 72
O2 Zr1 O3 81.37(13) 83 .
O2 Zr1 O4 151.2(3) . 72
O2 Zr1 O4 125.9(4) 84 .
O2 Zr1 O4 151.2(3) . .
O2 Zr1 O4 78.1(4) 83 .
O2 Zr1 O4 125.9(4) 83 72
O2 Zr1 O4 78.1(4) 84 72
Zr1 Zr1 Zr1 72.95(14) 83 84
Zr1 Zr1 Zr2 6.78(7) 84 84
Zr1 Zr1 Zr2 68.17(8) 83 84
Zr2 Zr1 O1 64.7(6) . .
Zr2 Zr1 O2 175.9(7) . .
Zr2 Zr1 O2 100.2(4) . 84
Zr2 Zr1 O2 100.2(4) . 83
Zr2 Zr1 Zr1 138.7(3) . 84
Zr2 Zr1 Zr1 138.7(3) . 83
Zr2 Zr1 Zr2 145.3(2) . 84
Zr2 Zr1 O3 90.5(4) . 72
Zr2 Zr1 O3 90.5(4) . .
Zr2 Zr1 O4 27.9(3) . 72
Zr2 Zr1 O4 27.9(3) . .
O3 Zr1 O1 135.44(15) . .
O3 Zr1 O1 135.44(15) 72 .
O3 Zr1 Zr1 81.35(13) 72 84
O3 Zr1 Zr1 81.36(13) . 83
O3 Zr1 Zr1 125.9(2) . 84
O3 Zr1 Zr1 125.9(2) 72 83
O3 Zr1 Zr2 81.13(16) 72 84
O3 Zr1 Zr2 119.59(18) . 84
O3 Zr1 O3 76.65(18) . 72
O3 Zr1 O4 70.5(2) . .
O3 Zr1 O4 104.0(3) 72 .
O3 Zr1 O4 70.5(2) 72 72
O3 Zr1 O4 104.0(3) . 72
O4 Zr1 Zr1 114.1(3) 72 84
O4 Zr1 Zr1 114.1(3) . 83
O4 Zr1 Zr1 163.5(2) . 84
O4 Zr1 Zr1 163.5(2) 72 83
O4 Zr1 Zr2 169.73(19) . 84
O4 Zr1 Zr2 120.0(3) 72 84
O4 Zr1 O4 55.2(6) 72 .
O1 Zr2 O2 103.4(3) . .
O1 Zr2 O2 68.95(19) . 84
O1 Zr2 O2 68.95(19) . 83
O1 Zr2 Zr1 84.6(2) . 84
O1 Zr2 Zr1 84.6(2) . 83
O1 Zr2 Zr2 33.12(9) . 12
O1 Zr2 O3 142.33(10) . .
O1 Zr2 O3 142.33(10) . 72
O1 Zr2 O4 86.4(3) . .
O1 Zr2 O4 86.4(3) . 72
O2 Zr2 O2 102.8(3) 84 83
O2 Zr2 O2 65.6(3) 84 .
O2 Zr2 O2 65.6(3) 83 .
O2 Zr2 Zr1 85.9(2) 83 84
O2 Zr2 Zr1 29.7(2) 84 84
O2 Zr2 Zr1 35.94(7) . 83
O2 Zr2 Zr1 35.94(7) . 84
O2 Zr2 Zr1 29.7(2) 83 83
O2 Zr2 Zr1 85.9(2) 84 83
O2 Zr2 Zr2 88.85(10) . 12
O2 Zr2 Zr2 88.72(11) 84 12
O2 Zr2 Zr2 36.49(17) 83 12
O2 Zr2 O3 133.3(3) 83 72
O2 Zr2 O3 75.62(14) 83 .
O2 Zr2 O3 133.3(3) 84 .
O2 Zr2 O3 75.61(14) 84 72
Zr1 Zr2 O1 100.3(6) . .
Zr1 Zr2 O2 64.1(3) . 84
Zr1 Zr2 O2 64.1(3) . 83
Zr1 Zr2 O2 3.1(5) . .
Zr1 Zr2 Zr1 34.5(2) . 83
Zr1 Zr2 Zr1 34.5(2) . 84
Zr1 Zr2 Zr1 61.39(11) 83 84
Zr1 Zr2 Zr2 58.51(6) 83 12
Zr1 Zr2 Zr2 86.2(5) . 12
Zr1 Zr2 Zr2 89.31(8) 84 12
Zr1 Zr2 O3 74.4(4) . .
Zr1 Zr2 O3 74.4(4) . 72
Zr1 Zr2 O4 144.6(3) . .
Zr1 Zr2 O4 144.6(3) . 72
O3 Zr2 O2 71.99(17) 72 .
O3 Zr2 O2 71.99(17) . .
O3 Zr2 Zr1 70.08(14) . 83
O3 Zr2 Zr1 70.07(14) 72 84
O3 Zr2 Zr1 105.60(16) 72 83
O3 Zr2 Zr1 105.60(16) . 84
O3 Zr2 Zr2 158.92(14) 72 12
O3 Zr2 Zr2 109.63(9) . 12
O3 Zr2 O3 73.35(18) . 72
O4 Zr2 O2 147.4(4) . 84
O4 Zr2 O2 86.9(4) 72 84
O4 Zr2 O2 86.9(4) . 83
O4 Zr2 O2 144.0(3) 72 .
O4 Zr2 O2 144.0(3) . .
O4 Zr2 O2 147.4(4) 72 83
O4 Zr2 Zr1 113.6(4) 72 84
O4 Zr2 Zr1 170.0(3) 72 83
O4 Zr2 Zr1 170.0(3) . 84
O4 Zr2 Zr1 113.6(4) . 83
O4 Zr2 Zr2 80.8(3) . 12
O4 Zr2 Zr2 114.4(2) 72 12
O4 Zr2 O3 119.9(3) 72 .
O4 Zr2 O3 79.2(3) . .
O4 Zr2 O3 79.2(3) 72 72
O4 Zr2 O3 119.9(3) . 72
O4 Zr2 O4 70.0(7) 72 .
Zr1 O3 Zr2 15.13(9) . .
C8 O3 Zr1 123.1(4) . .
C8 O3 Zr2 135.6(4) . .
Zr2 O4 Zr1 7.52(9) . .
O3 C8 C3 115.0(3) . .
O3 C8 C3 115.0(3) 46 .
O3 C8 O3 129.9(6) 46 .
loop_
_geom_bond_atom_site_label_1
_geom_bond_atom_site_label_2
_geom_bond_distance
_geom_bond_site_symmetry_2
Co1 N1 1.937(5) 79_554
Co1 N1 1.937(5) 77
Co1 N1 1.937(5) 6_565
Co1 N1 1.937(5) .
O1 Zr1 2.281(5) .
O1 Zr1 2.280(5) 12
O1 Zr1 2.280(5) 11
O1 Zr2 2.095(4) .
O1 Zr2 2.095(4) 12
O1 Zr2 2.095(4) 11
O2 Zr1 1.819(10) .
O2 Zr1 1.994(3) 84
O2 Zr1 1.994(3) 83
O2 Zr2 2.183(4) 84
O2 Zr2 2.418(9) .
O2 Zr2 2.183(4) 83
N1 C4 1.384(5) .
N1 C4 1.384(5) 51
C1 C1 1.326(9) 51
C1 H1 0.9500 .
C1 C4 1.429(5) .
C2 C5 1.519(7) .
C2 C7 1.397(7) 46
C2 C7 1.397(7) .
C3 C6 1.366(8) 46
C3 C6 1.366(8) .
C3 C8 1.539(8) .
C4 C5 1.394(5) .
C5 C4 1.394(5) 46
C6 H6 0.9500 .
C6 C7 1.422(7) .
C7 H7 0.9500 .
Zr1 O2 1.994(3) 83
Zr1 O2 1.994(3) 84
Zr1 Zr1 2.884(4) 84
Zr1 Zr1 2.884(4) 83
Zr1 Zr2 3.359(3) 84
Zr1 Zr2 0.601(3) .
Zr1 O3 2.217(4) .
Zr1 O3 2.217(4) 72
Zr1 O4 2.661(10) 72
Zr1 O4 2.661(10) .
Zr2 O2 2.183(4) 83
Zr2 O2 2.183(4) 84
Zr2 Zr1 3.359(3) 84
Zr2 Zr1 3.359(3) 83
Zr2 Zr2 3.509(5) 12
Zr2 O3 2.301(4) .
Zr2 O3 2.301(4) 72
Zr2 O4 2.149(10) 72
Zr2 O4 2.149(10) .
O3 C8 1.232(5) .
C8 O3 1.232(5) 46
loop_
_geom_torsion_atom_site_label_1
_geom_torsion_atom_site_label_2
_geom_torsion_atom_site_label_3
_geom_torsion_atom_site_label_4
_geom_torsion
_geom_torsion_site_symmetry_1
_geom_torsion_site_symmetry_4
Co1 N1 C4 C1 -178.6(6) . .
Co1 N1 C4 C5 3.9(12) . .
O1 Zr1 Zr2 O2 -60.35(18) . 83
O1 Zr1 Zr2 O2 180.0(6) . .
O1 Zr1 Zr2 O2 60.35(18) . 84
O1 Zr1 Zr2 Zr1 64.3(6) . 84
O1 Zr1 Zr2 Zr1 -64.3(6) . 83
O1 Zr1 Zr2 Zr2 -30.073(18) . 12
O1 Zr1 Zr2 O3 141.67(9) . 72
O1 Zr1 Zr2 O3 -141.67(9) . .
O1 Zr1 Zr2 O4 -98.4(10) . .
O1 Zr1 Zr2 O4 98.4(10) . 72
O2 Zr1 Zr2 O1 -60.35(18) 84 .
O2 Zr1 Zr2 O1 60.35(18) 83 .
O2 Zr1 Zr2 O2 119.64(19) 84 .
O2 Zr1 Zr2 O2 120.7(4) 83 84
O2 Zr1 Zr2 O2 -120.7(4) 84 83
O2 Zr1 Zr2 O2 -119.65(18) 83 .
O2 Zr1 Zr2 Zr1 -124.6(7) 84 83
O2 Zr1 Zr2 Zr1 124.6(7) 83 84
O2 Zr1 Zr2 Zr1 3.9(4) 84 84
O2 Zr1 Zr2 Zr1 -3.9(4) 83 83
O2 Zr1 Zr2 Zr2 30.28(16) 83 12
O2 Zr1 Zr2 Zr2 -90.4(2) 84 12
O2 Zr1 Zr2 O3 -81.32(17) 83 .
O2 Zr1 Zr2 O3 81.32(17) 84 72
O2 Zr1 Zr2 O3 -158.0(2) 83 72
O2 Zr1 Zr2 O3 158.0(2) 84 .
O2 Zr1 Zr2 O4 38.0(11) 84 72
O2 Zr1 Zr2 O4 -158.7(9) 84 .
O2 Zr1 Zr2 O4 -38.0(11) 83 .
O2 Zr1 Zr2 O4 158.7(9) 83 72
N1 C4 C5 C2 178.0(6) . .
N1 C4 C5 C4 -2.0(6) . 46
C1 C1 C4 N1 0.3(7) 51 .
C1 C1 C4 C5 177.9(5) 51 .
C1 C4 C5 C2 0.8(8) . .
C1 C4 C5 C4 -179.2(8) . 46
C3 C6 C7 C2 -0.2(8) . .
C4 N1 C4 C1 -0.4(11) 51 .
C4 N1 C4 C5 -178.0(3) 51 .
C5 C2 C7 C6 -179.9(4) . .
C6 C3 C6 C7 0.1(4) 46 .
C6 C3 C8 O3 4.7(3) 46 46
C6 C3 C8 O3 -175.3(3) . 46
C6 C3 C8 O3 -175.3(3) 46 .
C6 C3 C8 O3 4.7(3) . .
C7 C2 C5 C4 -79.0(4) . .
C7 C2 C5 C4 101.0(4) . 46
C7 C2 C5 C4 -79.0(4) 46 46
C7 C2 C5 C4 101.0(4) 46 .
C7 C2 C7 C6 0.1(4) 46 .
Zr1 O2 Zr1 O1 -60.29(13) 84 .
Zr1 O2 Zr1 O1 60.29(13) 83 .
Zr1 O2 Zr1 O2 120.07(4) 83 84
Zr1 O2 Zr1 O2 -120.07(4) 84 83
Zr1 O2 Zr1 O2 0.5(2) 83 83
Zr1 O2 Zr1 O2 -0.5(2) 84 84
Zr1 O2 Zr1 Zr1 120.6(3) 83 84
Zr1 O2 Zr1 Zr1 -120.6(3) 84 83
Zr1 O2 Zr1 Zr2 121.8(3) 83 84
Zr1 O2 Zr1 Zr2 1.23(12) 84 84
Zr1 O2 Zr1 O3 -158.13(15) 83 72
Zr1 O2 Zr1 O3 81.29(17) 84 72
Zr1 O2 Zr1 O3 -81.29(17) 83 .
Zr1 O2 Zr1 O3 158.13(15) 84 .
Zr1 O2 Zr1 O4 -166.1(5) 84 .
Zr1 O2 Zr1 O4 166.1(5) 83 72
Zr1 O2 Zr1 O4 -45.5(6) 83 .
Zr1 O2 Zr1 O4 45.5(6) 84 72
Zr1 Zr1 Zr2 O1 64.3(6) 83 .
Zr1 Zr1 Zr2 O1 -64.3(6) 84 .
Zr1 Zr1 Zr2 O2 -3.9(4) 84 84
Zr1 Zr1 Zr2 O2 3.9(4) 83 83
Zr1 Zr1 Zr2 O2 115.7(6) 84 .
Zr1 Zr1 Zr2 O2 124.6(7) 83 84
Zr1 Zr1 Zr2 O2 -115.7(6) 83 .
Zr1 Zr1 Zr2 O2 -124.6(7) 84 83
Zr1 Zr1 Zr2 Zr1 128.5(11) 83 84
Zr1 Zr1 Zr2 Zr1 -128.5(11) 84 83
Zr1 Zr1 Zr2 Zr2 -94.3(6) 84 12
Zr1 Zr1 Zr2 Zr2 34.2(6) 83 12
Zr1 Zr1 Zr2 O3 154.1(6) 84 .
Zr1 Zr1 Zr2 O3 77.4(5) 84 72
Zr1 Zr1 Zr2 O3 -77.4(5) 83 .
Zr1 Zr1 Zr2 O3 -154.1(6) 83 72
Zr1 Zr1 Zr2 O4 162.6(5) 83 72
Zr1 Zr1 Zr2 O4 -34.1(15) 83 .
Zr1 Zr1 Zr2 O4 34.1(15) 84 72
Zr1 Zr1 Zr2 O4 -162.7(5) 84 .
Zr1 O3 C8 C3 -174.76(16) . .
Zr1 O3 C8 O3 5.24(16) . 46
Zr2 O2 Zr1 O1 61.52(15) 83 .
Zr2 O2 Zr1 O1 180.0(6) . .
Zr2 O2 Zr1 O1 -61.52(15) 84 .
Zr2 O2 Zr1 O2 121.30(12) 83 84
Zr2 O2 Zr1 O2 -121.30(12) 84 83
Zr2 O2 Zr1 O2 1.7(2) 83 83
Zr2 O2 Zr1 O2 -120.22(9) . 84
Zr2 O2 Zr1 O2 120.22(11) . 83
Zr2 O2 Zr1 O2 -1.7(2) 84 84
Zr2 O2 Zr1 Zr1 -121.8(3) 84 83
Zr2 O2 Zr1 Zr1 -119.71(15) . 84
Zr2 O2 Zr1 Zr1 -1.23(12) 84 84
Zr2 O2 Zr1 Zr1 1.23(12) 83 83
Zr2 O2 Zr1 Zr1 119.71(14) . 83
Zr2 O2 Zr1 Zr1 121.8(3) 83 84
Zr2 O2 Zr1 Zr2 -118.48(16) . 84
Zr2 O2 Zr1 Zr2 123.0(3) 83 84
Zr2 O2 Zr1 O3 -38.42(9) . 72
Zr2 O2 Zr1 O3 -80.06(16) 83 .
Zr2 O2 Zr1 O3 38.42(10) . .
Zr2 O2 Zr1 O3 80.06(16) 84 72
Zr2 O2 Zr1 O3 156.90(19) 84 .
Zr2 O2 Zr1 O3 -156.90(19) 83 72
Zr2 O2 Zr1 O4 -44.3(6) 83 .
Zr2 O2 Zr1 O4 44.3(6) 84 72
Zr2 O2 Zr1 O4 74.2(6) . .
Zr2 O2 Zr1 O4 -74.2(6) . 72
Zr2 O2 Zr1 O4 167.3(5) 83 72
Zr2 O2 Zr1 O4 -167.3(5) 84 .
Zr2 Zr1 Zr2 O1 -66.7(9) 84 .
Zr2 Zr1 Zr2 O2 -6.3(7) 84 84
Zr2 Zr1 Zr2 O2 -127.0(10) 84 83
Zr2 Zr1 Zr2 O2 113.3(9) 84 .
Zr2 Zr1 Zr2 Zr1 -2.4(3) 84 84
Zr2 Zr1 Zr2 Zr1 -130.9(14) 84 83
Zr2 Zr1 Zr2 Zr2 -96.7(9) 84 12
Zr2 Zr1 Zr2 O3 75.0(8) 84 72
Zr2 Zr1 Zr2 O3 151.7(9) 84 .
Zr2 Zr1 Zr2 O4 31.7(18) 84 72
Zr2 Zr1 Zr2 O4 -165.0(4) 84 .
Zr2 O3 C8 C3 174.0(3) . .
Zr2 O3 C8 O3 -6.0(3) . 46
O3 Zr1 Zr2 O1 141.67(9) . .
O3 Zr1 Zr2 O1 -141.67(9) 72 .
O3 Zr1 Zr2 O2 38.33(10) 72 .
O3 Zr1 Zr2 O2 -158.0(2) . 84
O3 Zr1 Zr2 O2 -38.33(9) . .
O3 Zr1 Zr2 O2 -81.32(17) 72 84
O3 Zr1 Zr2 O2 81.32(17) . 83
O3 Zr1 Zr2 O2 158.0(2) 72 83
O3 Zr1 Zr2 Zr1 77.4(5) . 83
O3 Zr1 Zr2 Zr1 -77.4(5) 72 84
O3 Zr1 Zr2 Zr1 154.1(6) 72 83
O3 Zr1 Zr2 Zr1 -154.1(6) . 84
O3 Zr1 Zr2 Zr2 -171.74(10) 72 12
O3 Zr1 Zr2 Zr2 111.60(8) . 12
O3 Zr1 Zr2 O3 -76.66(18) . 72
O3 Zr1 Zr2 O3 76.66(18) 72 .
O3 Zr1 Zr2 O4 -43.3(10) 72 72
O3 Zr1 Zr2 O4 119.9(9) 72 .
O3 Zr1 Zr2 O4 -120.0(9) . 72
O3 Zr1 Zr2 O4 43.3(10) . .
O4 Zr1 Zr2 O1 98.4(10) . .
O4 Zr1 Zr2 O1 -98.4(10) 72 .
O4 Zr1 Zr2 O2 158.7(9) . 84
O4 Zr1 Zr2 O2 38.0(11) . 83
O4 Zr1 Zr2 O2 -38.0(11) 72 84
O4 Zr1 Zr2 O2 81.6(10) 72 .
O4 Zr1 Zr2 O2 -158.7(9) 72 83
O4 Zr1 Zr2 O2 -81.6(10) . .
O4 Zr1 Zr2 Zr1 -34.1(15) 72 84
O4 Zr1 Zr2 Zr1 34.1(15) . 83
O4 Zr1 Zr2 Zr1 162.7(5) . 84
O4 Zr1 Zr2 Zr1 -162.6(5) 72 83
O4 Zr1 Zr2 Zr2 -128.4(10) 72 12
O4 Zr1 Zr2 Zr2 68.3(10) . 12
O4 Zr1 Zr2 O3 120.0(10) 72 .
O4 Zr1 Zr2 O3 -119.9(9) . 72
O4 Zr1 Zr2 O3 43.3(10) 72 72
O4 Zr1 Zr2 O3 -43.3(10) . .
O4 Zr1 Zr2 O4 -163(2) . 72
O4 Zr1 Zr2 O4 163(2) 72 .
C8 C3 C6 C7 -179.9(4) . .
loop_
_refln_index_h
_refln_index_k
_refln_index_l
_refln_F_squared_meas
_refln_F_squared_sigma
0 2 2 846.34 35.79
0 3 3 25.64 0.11
0 4 2 50.28 0.52
0 4 4 46.78 0.87
0 5 1 8.19 0.13
0 5 3 0.55 0.06
0 5 5 47.59 0.52
0 6 0 244.21 30.58
0 6 2 30.66 0.22
0 6 4 4.34 0.02
0 6 6 9.23 0.28
0 7 1 2.54 0.03
0 7 3 1.13 0.07
0 7 5 26.62 0.23
0 7 7 56.06 0.92
0 8 0 114.37 7.48
0 8 2 64 1.75
0 8 4 27.88 0.36
0 8 6 18.67 0.07
0 8 8 4.15 0.67
0 9 1 13.53 0.43
0 9 3 2.14 0.04
0 9 5 4.89 0.11
0 9 7 9.28 0.16
0 9 9 68.66 1.15
0 10 0 70.14 3.77
0 10 2 158.05 3.7
0 10 4 73.04 1.22
0 10 6 88.14 1.12
0 10 8 23.39 0.25
0 10 10 11.25 0.36
0 11 1 1.7 0.05
0 11 3 16.04 0.26
0 11 5 14.86 0.33
0 11 7 9.91 0.15
0 11 9 4.62 0.07
0 11 11 19.03 0.19
0 12 0 8.85 0.21
0 12 2 156.36 2.81
0 12 4 13.36 0.12
0 12 6 34.44 0.47
0 12 8 2.16 0.06
0 12 10 11.45 0.12
0 12 12 127.31 2.39
0 13 1 3.8 0.16
0 13 3 3.47 0.11
0 13 5 38.31 0.64
0 13 7 11.8 0.17
0 13 9 0.75 0.03
0 13 11 5.83 0.15
0 13 13 42.74 0.78
0 14 0 54.02 2.31
0 14 2 121.43 1.7
0 14 4 70.97 1.07
0 14 6 32.63 0.47
0 14 8 8.24 0.22
0 14 10 5.54 0.07
0 14 12 93.83 1.28
0 14 14 49.63 0.91
0 15 1 0.99 0.18
0 15 3 39.83 0.53
0 15 5 19.73 0.31
0 15 7 35.07 0.4
0 15 9 0.08 0.04
0 15 11 56.93 0.83
0 15 13 64.96 0.9
0 15 15 46.93 1.07
0 16 0 4.99 0.22
0 16 2 76.74 1.09
0 16 4 0.8 0.04
0 16 6 25.5 0.49
0 16 8 10.02 0.11
0 16 10 62.54 0.83
0 16 12 68.06 1.07
0 16 14 25.83 0.42
0 16 16 72.97 1.83
0 17 1 13.83 0.22
0 17 3 12.31 0.21
0 17 5 91.34 1.16
0 17 7 4.19 0.1
0 17 9 1.19 0.05
0 17 11 28.06 0.35
0 17 13 46.13 0.63
0 17 15 91.32 1.32
0 17 17 41.69 1.08
0 18 0 16.57 0.66
0 18 2 16.27 0.2
0 18 4 25.69 0.43
0 18 6 0.38 0.04
0 18 8 2.49 0.05
0 18 10 31.89 0.51
0 18 12 21.03 0.31
0 18 14 23.46 0.36
0 18 16 16.38 0.27
0 18 18 39.77 0.83
0 19 1 0.5 0.05
0 19 3 43.27 0.46
0 19 5 8.07 0.14
0 19 7 11.66 0.15
0 19 9 2.64 0.06
0 19 11 2.24 0.1
0 19 13 39.51 0.49
0 19 15 31.97 0.47
0 19 17 56.58 0.72
0 19 19 11.87 0.25
0 20 0 5.98 0.25
0 20 2 3.77 0.1
0 20 4 11.25 0.21
0 20 6 1.02 0.05
0 20 8 18.48 0.3
0 20 10 3.61 0.11
0 20 12 27.87 0.45
0 20 14 3.16 0.1
0 20 16 16.01 0.24
0 20 18 4.51 0.07
0 20 20 31.68 0.51
0 21 1 2.63 0.06
0 21 3 1.99 0.06
0 21 5 8.66 0.15
0 21 7 0.17 0.06
0 21 9 3.9 0.08
0 21 11 5.66 0.1
0 21 13 2.52 0.08
0 21 15 14.52 0.19
0 21 17 6.94 0.13
0 21 19 26.23 0.3
0 21 21 0.3 0.05
0 22 0 4.37 0.14
0 22 2 0.63 0.05
0 22 4 4.76 0.09
0 22 6 7.11 0.13
0 22 8 0.04 0.05
0 22 10 6.08 0.12
0 22 12 0.84 0.07
0 22 14 0.54 0.05
0 22 16 0.17 0.04
0 22 18 4.38 0.08
0 22 20 0.03 0.04
0 22 22 2.28 0.13
0 23 1 0.01 0.05
0 23 3 0.01 0.05
0 23 5 0.12 0.06
0 23 7 5.44 0.09
0 23 9 0.09 0.06
0 23 11 0.2 0.05
0 23 13 0.13 0.05
0 23 15 0.75 0.03
0 23 17 1.63 0.04
0 23 19 0.02 0.03
0 23 21 1.99 0.05
0 23 23 4.87 0.13
0 24 0 14.77 0.35
0 24 2 4.98 0.08
0 24 4 11.75 0.15
0 24 6 0.03 0.05
0 24 8 4.9 0.09
0 24 10 0.13 0.05
0 24 12 0.09 0.03
0 24 14 4.66 0.09
0 24 16 0.75 0.03
0 24 18 3.54 0.07
0 24 20 0.51 0.04
0 24 22 9.61 0.16
0 24 24 0.25 0.07
0 25 1 0.5 0.08
0 25 3 5.93 0.07
0 25 5 0.49 0.06
0 25 7 4.11 0.06
0 25 9 0.05 0.04
0 25 11 0.01 0.03
0 25 13 2.82 0.06
0 25 15 1.6 0.05
0 25 17 5.03 0.09
0 25 19 3.91 0.08
0 25 21 6.27 0.12
0 25 23 0 0.04
0 25 25 2.16 0.1
0 26 0 21.42 0.45
0 26 2 11.25 0.17
0 26 4 0.02 0.06
0 26 6 6.9 0.1
0 26 8 0.24 0.03
0 26 10 0 0.03
0 26 12 1.51 0.04
0 26 14 2.81 0.06
0 26 16 9.5 0.13
0 26 18 14.13 0.17
0 26 20 12.68 0.19
0 26 22 4.45 0.09
0 26 24 5.87 0.11
0 26 26 0.43 0.06
0 27 1 1.17 0.05
0 27 3 0.13 0.03
0 27 5 12.09 0.12
0 27 7 0.56 0.03
0 27 9 1.11 0.04
0 27 11 0.03 0.03
0 27 13 0.89 0.03
0 27 15 9.92 0.14
0 27 17 14.7 0.19
0 27 19 13.3 0.2
0 27 21 5.87 0.13
0 27 23 3.59 0.09
0 27 25 0.16 0.04
0 27 27 0.46 0.06
0 28 0 20.31 0.47
0 28 2 0.57 0.03
0 28 4 10.02 0.13
0 28 6 0.14 0.03
0 28 8 4.13 0.09
0 28 10 1.06 0.04
0 28 12 0.12 0.03
0 28 14 3.67 0.07
0 28 16 6.53 0.1
0 28 18 13.24 0.19
0 28 20 9.98 0.16
0 28 22 7.62 0.14
0 28 24 1.23 0.05
0 28 26 0.39 0.04
0 28 28 5.16 0.15
0 29 1 0.94 0.04
0 29 3 3.53 0.07
0 29 5 0.23 0.03
0 29 7 3.3 0.06
0 29 9 0.81 0.04
0 29 11 0.03 0.03
0 29 13 3.2 0.07
0 29 15 6.95 0.12
0 29 17 17.4 0.24
0 29 19 11.94 0.2
0 29 21 7.86 0.15
0 29 23 1.7 0.06
0 29 25 0.04 0.04
0 29 27 3.4 0.09
0 29 29 6.42 0.19
0 30 0 4.4 0.21
0 30 2 0.84 0.04
0 30 4 3.3 0.07
0 30 6 0.26 0.04
0 30 8 0.17 0.04
0 30 10 0.01 0.04
0 30 12 0.29 0.04
0 30 14 2.29 0.07
0 30 16 12.58 0.21
0 30 18 9.82 0.17
0 30 20 11.76 0.21
0 30 22 5.83 0.13
0 30 24 0.81 0.05
0 30 26 2.3 0.08
0 30 28 6.26 0.13
0 30 30 10.61 0.3
0 31 1 1.53 0.04
0 31 3 0.46 0.04
0 31 5 2.15 0.06
0 31 7 3.82 0.07
0 31 9 0.49 0.04
0 31 11 0.02 0.04
0 31 13 1.15 0.05
0 31 15 11.26 0.2
0 31 17 5.92 0.17
0 31 19 11.98 0.19
0 31 21 5.09 0.1
0 31 23 1.51 0.05
0 31 25 1.34 0.05
0 31 27 3.7 0.1
0 31 29 10.01 0.18
0 31 31 7.19 0.22
0 32 0 0.02 0.09
0 32 2 2.98 0.07
0 32 4 0.23 0.04
0 32 6 0.67 0.04
0 32 8 0.61 0.05
0 32 10 1.83 0.06
0 32 12 0.84 0.05
0 32 14 2.87 0.09
0 32 16 1.03 0.06
0 32 18 10.65 0.17
0 32 20 4.99 0.1
0 32 22 3.72 0.09
0 32 24 0.49 0.04
0 32 26 2.49 0.08
0 32 28 10.6 0.18
0 32 30 8.63 0.19
0 32 32 15.74 0.64
0 33 1 0 0.05
0 33 3 3.17 0.09
0 33 5 3.72 0.09
0 33 7 1.51 0.06
0 33 9 2.91 0.06
0 33 11 0.5 0.04
0 33 13 2.93 0.09
0 33 15 0.37 0.05
0 33 17 7.78 0.14
0 33 19 3.51 0.1
0 33 21 4.65 0.1
0 33 23 0.01 0.04
0 33 25 0.15 0.04
0 33 27 4.56 0.15
0 33 29 5.35 0.13
0 33 31 9.96 0.29
0 34 0 8.27 0.28
0 34 2 4.39 0.15
0 34 4 5.29 0.11
0 34 6 1.23 0.05
0 34 8 0.37 0.05
0 34 10 0.19 0.05
0 34 12 0.48 0.05
0 34 14 0.46 0.05
0 34 16 4.37 0.12
0 34 18 2.89 0.07
0 34 20 4.8 0.1
0 34 22 0.1 0.04
0 34 24 0.01 0.04
0 34 26 3.46 0.08
0 34 28 5.35 0.12
0 34 30 8.45 0.28
0 35 1 1.05 0.07
0 35 3 0.04 0.05
0 35 5 1.89 0.05
0 35 7 1.12 0.06
0 35 9 0.74 0.05
0 35 11 0.01 0.05
0 35 13 1.79 0.1
0 35 15 2.07 0.09
0 35 17 0.24 0.05
0 35 19 1.33 0.05
0 35 21 0.02 0.04
0 35 23 0.22 0.04
0 35 25 0.98 0.04
0 35 27 1.84 0.11
0 35 29 4.32 0.15
0 36 0 0.24 0.12
0 36 2 2.15 0.1
0 36 4 0.12 0.05
0 36 6 0.03 0.05
0 36 8 1.81 0.07
0 36 10 1.1 0.06
0 36 12 6.31 0.14
0 36 14 0.02 0.06
0 36 16 1.35 0.06
0 36 18 0.05 0.05
0 36 20 0.07 0.04
0 36 22 0.05 0.04
0 36 24 0.94 0.05
0 36 26 1.06 0.04
0 36 28 3.07 0.2
0 37 1 0.62 0.06
0 37 3 0.79 0.05
0 37 5 0.4 0.06
0 37 7 0.6 0.05
0 37 9 0.01 0.05
0 37 11 1.76 0.06
0 37 13 0.02 0.06
0 37 15 1.19 0.06
0 37 17 0.02 0.05
0 37 19 0.22 0.04
0 37 21 0.01 0.04
0 37 23 0.3 0.04
0 37 25 0.06 0.03
0 37 27 1.16 0.12
0 38 0 2.59 0.2
0 38 2 0.25 0.05
0 38 4 3.92 0.11
0 38 6 0.01 0.06
0 38 8 0.6 0.05
0 38 10 0.62 0.06
0 38 12 0.05 0.06
0 38 14 1.7 0.06
0 38 16 0.11 0.05
0 38 18 0.83 0.05
0 38 20 0.03 0.04
0 38 22 0.15 0.03
0 38 24 0.01 0.04
0 39 1 0.18 0.05
0 39 3 0.48 0.05
0 39 5 0.96 0.06
0 39 7 0.02 0.05
0 39 9 1.36 0.06
0 39 11 0.24 0.06
0 39 13 1.62 0.06
0 39 15 0.31 0.05
0 39 17 1.36 0.06
0 39 19 0.05 0.05
0 39 21 0.18 0.05
0 39 23 0.01 0.06
0 40 0 0.3 0.12
0 40 2 0.06 0.05
0 40 4 0.69 0.06
0 40 6 0.12 0.06
0 40 8 0.42 0.06
0 40 10 0 0.05
0 40 12 0.81 0.05
0 40 14 0.55 0.05
0 40 16 1.8 0.07
0 40 18 0.22 0.06
0 40 20 0.56 0.05
0 40 22 0 0.07
0 41 1 0.04 0.05
0 41 3 0.36 0.06
0 41 5 0 0.06
0 41 7 0.89 0.06
0 41 9 0.18 0.05
0 41 11 0.6 0.06
0 41 13 0.39 0.05
0 41 15 0.93 0.05
0 41 17 0.08 0.05
0 41 19 0.23 0.04
0 42 0 0.22 0.09
0 42 2 0.02 0.05
0 42 4 0.11 0.05
0 42 6 0 0.05
0 42 8 0.45 0.05
0 42 10 0.13 0.07
0 42 12 0.12 0.05
0 42 14 0.15 0.05
0 42 16 0.05 0.06
0 42 18 0.27 0.07
0 43 1 0.28 0.05
0 43 3 0 0.05
0 43 5 0.15 0.05
0 43 7 0.01 0.05
0 43 9 0.04 0.05
0 43 11 0.06 0.05
0 43 13 0.22 0.05
0 43 15 0.05 0.07
0 44 0 2.37 0.28
0 44 2 0.21 0.05
0 44 4 1.15 0.08
0 44 6 0.26 0.05
0 44 8 0.27 0.05
0 44 10 0.01 0.05
0 44 12 0.41 0.14
0 45 1 0.35 0.06
0 45 3 0.33 0.06
0 45 5 0.01 0.07
0 45 7 0.01 0.09
1 2 1 137.17 1.11
1 3 2 2.57 0.22
1 4 1 105.12 1.5
1 4 3 5.02 0.06
1 5 2 8.64 0.14
1 5 4 6.82 0.03
1 6 1 71.46 0.79
1 6 3 6.15 0.05
1 6 5 2.28 0.03
1 7 2 2.38 0.04
1 7 4 2.7 0.01
1 7 6 2.33 0.03
1 8 1 34.34 0.6
1 8 3 14.52 0.11
1 8 5 1.9 0.02
1 8 7 5.75 0.05
1 9 2 10.38 0.09
1 9 4 5.07 0.06
1 9 6 2.72 0.03
1 9 8 0.43 0.02
1 10 1 16.54 0.3
1 10 3 17.23 0.18
1 10 5 0.73 0.02
1 10 7 3.01 0.05
1 10 9 1.75 0.04
1 11 2 2.29 0.06
1 11 4 3.33 0.02
1 11 6 1.55 0.02
1 11 8 3.62 0.04
1 11 10 4.76 0.06
1 12 1 9.17 0.19
1 12 3 12.52 0.13
1 12 5 0.01 0.02
1 12 7 0.52 0.02
1 12 9 0.36 0.02
1 12 11 2.18 0.03
1 13 2 4 0.08
1 13 4 2.81 0.05
1 13 6 3.34 0.03
1 13 8 1.87 0.02
1 13 10 1.12 0.02
1 13 12 0.78 0.03
1 14 1 3.98 0.09
1 14 3 10.93 0.12
1 14 5 0 0.02
1 14 7 0.56 0.03
1 14 9 0.3 0.02
1 14 11 0.66 0.03
1 14 13 0.71 0.03
1 15 2 0.97 0.05
1 15 4 0.22 0.02
1 15 6 0.06 0.02
1 15 8 0.46 0.02
1 15 10 0.95 0.03
1 15 12 1.01 0.03
1 15 14 1.33 0.03
1 16 1 1.78 0.06
1 16 3 8.89 0.09
1 16 5 0.04 0.02
1 16 7 0.34 0.03
1 16 9 0.33 0.02
1 16 11 0.31 0.03
1 16 13 0.79 0.04
1 16 15 1.06 0.04
1 17 2 13.04 0.11
1 17 4 8.66 0.09
1 17 6 6.58 0.07
1 17 8 2.26 0.04
1 17 10 0.59 0.03
1 17 12 0.24 0.03
1 17 14 0.04 0.04
1 17 16 0.04 0.04
1 18 1 1.29 0.05
1 18 3 4.34 0.07
1 18 5 0.02 0.04
1 18 7 0.02 0.03
1 18 9 0.01 0.03
1 18 11 0.05 0.03
1 18 13 0.76 0.04
1 18 15 0.36 0.04
1 18 17 0.12 0.05
1 19 2 0.5 0.03
1 19 4 0.02 0.03
1 19 6 0.03 0.03
1 19 8 0.18 0.03
1 19 10 0.31 0.04
1 19 12 0.41 0.04
1 19 14 0.19 0.04
1 19 16 0.07 0.04
1 19 18 0.28 0.04
1 20 1 1.19 0.05
1 20 3 0.93 0.04
1 20 5 0.78 0.04
1 20 7 0.63 0.04
1 20 9 0.81 0.04
1 20 11 0.27 0.04
1 20 13 1.02 0.04
1 20 15 0.07 0.03
1 20 17 0.01 0.05
1 20 19 0.29 0.02
1 21 2 2.18 0.04
1 21 4 0.59 0.04
1 21 6 0.11 0.04
1 21 8 0 0.04
1 21 10 0.01 0.04
1 21 12 0.07 0.04
1 21 14 0.01 0.04
1 21 16 0.11 0.03
1 21 18 0.06 0.02
1 21 20 0 0.02
1 22 1 1.5 0.06
1 22 3 0.08 0.04
1 22 5 2.73 0.05
1 22 7 1.94 0.05
1 22 9 2 0.04
1 22 11 1.04 0.04
1 22 13 0.98 0.05
1 22 15 0.05 0.03
1 22 17 0.03 0.02
1 22 19 0.2 0.02
1 22 21 0.02 0.03
1 23 2 0.01 0.04
1 23 4 0.21 0.04
1 23 6 0.16 0.04
1 23 8 0.35 0.04
1 23 10 0.43 0.04
1 23 12 0.19 0.04
1 23 14 0 0.02
1 23 16 0.04 0.02
1 23 18 0.07 0.02
1 23 20 0.05 0.02
1 23 22 0 0.03
1 24 1 1.9 0.06
1 24 3 1 0.04
1 24 5 3.9 0.05
1 24 7 3.59 0.05
1 24 9 3.6 0.05
1 24 11 1.21 0.04
1 24 13 0.75 0.02
1 24 15 0.01 0.03
1 24 17 0.07 0.02
1 24 19 0.35 0.03
1 24 21 0.05 0.03
1 24 23 0.03 0.03
1 25 2 0.32 0.05
1 25 4 0.32 0.04
1 25 6 0.18 0.04
1 25 8 0.25 0.04
1 25 10 0.13 0.02
1 25 12 0.02 0.02
1 25 14 0.06 0.02
1 25 16 0.24 0.02
1 25 18 0.27 0.03
1 25 20 0.26 0.03
1 25 22 0.15 0.03
1 25 24 0.01 0.03
1 26 1 1 0.07
1 26 3 0.4 0.04
1 26 5 1.46 0.04
1 26 7 1.46 0.04
1 26 9 1.44 0.03
1 26 11 0.21 0.02
1 26 13 0.12 0.02
1 26 15 0.06 0.02
1 26 17 0.17 0.02
1 26 19 0.58 0.03
1 26 21 0.12 0.03
1 26 23 0.06 0.03
1 26 25 0 0.04
1 27 2 0.91 0.03
1 27 4 0.85 0.03
1 27 6 0.89 0.03
1 27 8 0.76 0.03
1 27 10 0.44 0.02
1 27 12 0.36 0.02
1 27 14 0.06 0.03
1 27 16 0.03 0.03
1 27 18 0.09 0.03
1 27 20 0.05 0.03
1 27 22 0.05 0.03
1 27 24 0.01 0.03
1 27 26 0 0.03
1 28 1 0.36 0.03
1 28 3 0 0.02
1 28 5 0.19 0.02
1 28 7 0.05 0.02
1 28 9 0.1 0.02
1 28 11 0.01 0.02
1 28 13 0 0.02
1 28 15 0.18 0.03
1 28 17 0.16 0.03
1 28 19 0.31 0.03
1 28 21 0.06 0.03
1 28 23 0.02 0.03
1 28 25 0 0.03
1 28 27 0 0.03
1 29 2 0.79 0.02
1 29 4 0.54 0.02
1 29 6 0.77 0.03
1 29 8 0.67 0.02
1 29 10 0.49 0.02
1 29 12 0.32 0.03
1 29 14 0.49 0.03
1 29 16 0.72 0.03
1 29 18 0.64 0.03
1 29 20 0.37 0.03
1 29 22 0.23 0.03
1 29 24 0.13 0.03
1 29 26 0.07 0.03
1 29 28 0.06 0.03
1 30 1 0.35 0.04
1 30 3 0.04 0.02
1 30 5 0.04 0.02
1 30 7 0 0.03
1 30 9 0.04 0.03
1 30 11 0.02 0.03
1 30 13 0.06 0.03
1 30 15 0.37 0.03
1 30 17 0.22 0.03
1 30 19 0.25 0.03
1 30 21 0.04 0.03
1 30 23 0.03 0.03
1 30 25 0 0.03
1 30 27 0.01 0.03
1 30 29 0.08 0.03
1 31 2 1.43 0.03
1 31 4 1.13 0.03
1 31 6 0.41 0.03
1 31 8 0.16 0.03
1 31 10 0.04 0.03
1 31 12 0 0.03
1 31 14 0.08 0.03
1 31 16 0.13 0.03
1 31 18 0.11 0.03
1 31 20 0.05 0.03
1 31 22 0.01 0.03
1 31 24 0 0.03
1 31 26 0.02 0.03
1 31 28 0.04 0.03
1 31 30 0.02 0.03
1 32 1 0.26 0.04
1 32 3 0.05 0.03
1 32 5 0 0.03
1 32 7 0 0.03
1 32 9 0.03 0.03
1 32 11 0.05 0.03
1 32 13 0.15 0.03
1 32 15 0.3 0.03
1 32 17 0.16 0.04
1 32 19 0.15 0.03
1 32 21 0.01 0.03
1 32 23 0.01 0.03
1 32 25 0 0.03
1 32 27 0.03 0.03
1 32 29 0.09 0.03
1 32 31 0.01 0.03
1 33 2 0.02 0.03
1 33 4 0.12 0.03
1 33 6 0.15 0.03
1 33 8 0.21 0.03
1 33 10 0.51 0.03
1 33 12 0.57 0.03
1 33 14 0.43 0.03
1 33 16 0.3 0.03
1 33 18 0.13 0.03
1 33 20 0.02 0.03
1 33 22 0.01 0.03
1 33 24 0 0.03
1 33 26 0.01 0.03
1 33 28 0.02 0.03
1 33 30 0.01 0.03
1 34 1 0.04 0.05
1 34 3 0.05 0.03
1 34 5 0.08 0.04
1 34 7 0.2 0.04
1 34 9 0.16 0.03
1 34 11 0.3 0.03
1 34 13 0.17 0.03
1 34 15 0.18 0.03
1 34 17 0.02 0.03
1 34 19 0 0.03
1 34 21 0.01 0.03
1 34 23 0.01 0.03
1 34 25 0.02 0.03
1 34 27 0.06 0.03
1 34 29 0.1 0.03
1 35 2 0.87 0.04
1 35 4 0.66 0.04
1 35 6 0.45 0.03
1 35 8 0.19 0.04
1 35 10 0.03 0.04
1 35 12 0.01 0.04
1 35 14 0.03 0.03
1 35 16 0.08 0.03
1 35 18 0.16 0.03
1 35 20 0.15 0.03
1 35 22 0.08 0.03
1 35 24 0.06 0.03
1 35 26 0.03 0.03
1 35 28 0.02 0.03
1 36 1 0 0.05
1 36 3 0.08 0.04
1 36 5 0.12 0.04
1 36 7 0.34 0.04
1 36 9 0.39 0.04
1 36 11 0.42 0.04
1 36 13 0.17 0.04
1 36 15 0.07 0.04
1 36 17 0 0.03
1 36 19 0.01 0.03
1 36 21 0.02 0.03
1 36 23 0.01 0.04
1 36 25 0.01 0.02
1 36 27 0.01 0.03
1 37 2 0.55 0.04
1 37 4 0.49 0.04
1 37 6 0.75 0.04
1 37 8 1.01 0.04
1 37 10 0.93 0.04
1 37 12 0.67 0.04
1 37 14 0.34 0.04
1 37 16 0.08 0.04
1 37 18 0.01 0.03
1 37 20 0 0.03
1 37 22 0 0.03
1 37 24 0 0.03
1 37 26 0 0.03
1 38 1 0.03 0.05
1 38 3 0 0.04
1 38 5 0 0.04
1 38 7 0.03 0.04
1 38 9 0.04 0.04
1 38 11 0.12 0.04
1 38 13 0.06 0.04
1 38 15 0 0.04
1 38 17 0 0.04
1 38 19 0 0.03
1 38 21 0.01 0.03
1 38 23 0.01 0.02
1 38 25 0.01 0.05
1 39 2 0.15 0.04
1 39 4 0.08 0.04
1 39 6 0.01 0.04
1 39 8 0.01 0.04
1 39 10 0.05 0.04
1 39 12 0.04 0.04
1 39 14 0 0.04
1 39 16 0.01 0.03
1 39 18 0.02 0.03
1 39 20 0.04 0.03
1 39 22 0.05 0.03
1 39 24 0.03 0.07
1 40 1 0.01 0.05
1 40 3 0.01 0.04
1 40 5 0 0.04
1 40 7 0.01 0.04
1 40 9 0.02 0.04
1 40 11 0.07 0.04
1 40 13 0.03 0.04
1 40 15 0 0.03
1 40 17 0.01 0.03
1 40 19 0.01 0.03
1 40 21 0.02 0.03
1 41 2 0.07 0.03
1 41 4 0.13 0.04
1 41 6 0.18 0.04
1 41 8 0.29 0.04
1 41 10 0.36 0.04
1 41 12 0.27 0.04
1 41 14 0.06 0.03
1 41 16 0.01 0.03
1 41 18 0 0.03
1 41 20 0.02 0.05
1 42 1 0 0.05
1 42 3 0.01 0.03
1 42 5 0.01 0.04
1 42 7 0.04 0.04
1 42 9 0.09 0.04
1 42 11 0.09 0.04
1 42 13 0.01 0.04
1 42 15 0.01 0.03
1 42 17 0.07 0.04
1 43 2 0.25 0.03
1 43 4 0.22 0.03
1 43 6 0.13 0.03
1 43 8 0.06 0.03
1 43 10 0.05 0.04
1 43 12 0.06 0.04
1 43 14 0.13 0.04
1 44 1 0 0.06
1 44 3 0.01 0.04
1 44 5 0 0.03
1 44 7 0.01 0.03
1 44 9 0.02 0.04
1 44 11 0.01 0.04
1 44 13 0 0.1
1 45 2 0.33 0.04
1 45 4 0.28 0.04
1 45 6 0.33 0.04
1 45 8 0.34 0.09
2 3 3 14.41 0.16
2 4 2 321.73 3.92
2 4 4 79.09 0.74
2 5 3 0.19 0.03
2 5 5 22.03 0.25
2 6 2 5.05 0.23
2 6 4 4.03 0.04
2 6 6 2.46 0.06
2 7 3 1.53 0.01
2 7 5 19.55 0.15
2 7 7 66.45 0.84
2 8 2 12.45 0.28
2 8 4 74.66 0.92
2 8 6 18.6 0.12
2 8 8 1.41 0.13
2 9 3 0.43 0.02
2 9 5 1.09 0.03
2 9 7 9.62 0.11
2 9 9 58.81 0.63
2 10 2 0.07 0.03
2 10 4 34.24 0.44
2 10 6 15.99 0.18
2 10 8 3.51 0.05
2 10 10 40.48 0.58
2 11 3 10.01 0.2
2 11 5 4.75 0.09
2 11 7 7.28 0.11
2 11 9 2.39 0.05
2 11 11 13.35 0.14
2 12 2 83.25 1.27
2 12 4 75.34 0.73
2 12 6 49.44 0.49
2 12 8 10.99 0.14
2 12 10 3.02 0.03
2 12 12 40.21 0.51
2 13 3 3.89 0.1
2 13 5 29.89 0.28
2 13 7 13.66 0.13
2 13 9 1.43 0.02
2 13 11 3.71 0.06
2 13 13 29.96 0.46
2 14 2 22.53 0.24
2 14 4 81.07 0.78
2 14 6 7.34 0.07
2 14 8 0.08 0.02
2 14 10 23.22 0.19
2 14 12 88.33 0.88
2 14 14 112.41 1.61
2 15 3 41.15 0.5
2 15 5 16.37 0.2
2 15 7 38.02 0.33
2 15 9 0.19 0.02
2 15 11 41.22 0.34
2 15 13 46.99 0.44
2 15 15 33.59 0.48
2 16 2 60.94 1.09
2 16 4 32.59 0.29
2 16 6 46.31 0.58
2 16 8 0.96 0.03
2 16 10 31.58 0.34
2 16 12 22.26 0.25
2 16 14 29.79 0.3
2 16 16 45.83 0.77
2 17 3 11.99 0.15
2 17 5 77.56 0.62
2 17 7 4.29 0.08
2 17 9 0.45 0.03
2 17 11 20.79 0.21
2 17 13 35.75 0.39
2 17 15 73.76 0.73
2 17 17 30.43 0.46
2 18 2 2.59 0.11
2 18 4 16.74 0.17
2 18 6 10.34 0.12
2 18 8 10.49 0.11
2 18 10 44.01 0.5
2 18 12 16.3 0.19
2 18 14 43.67 0.47
2 18 16 14.77 0.17
2 18 18 47.28 0.64
2 19 3 42.77 0.36
2 19 5 5.42 0.08
2 19 7 11.13 0.11
2 19 9 2.07 0.04
2 19 11 1.48 0.04
2 19 13 34.61 0.32
2 19 15 26.78 0.26
2 19 17 47.53 0.41
2 19 19 8.87 0.14
2 20 2 2.91 0.1
2 20 4 0.14 0.04
2 20 6 0.12 0.04
2 20 8 7.31 0.1
2 20 10 0.37 0.04
2 20 12 9.6 0.12
2 20 14 3.15 0.06
2 20 16 8.24 0.13
2 20 18 3.04 0.05
2 20 20 19.48 0.24
2 21 3 1.7 0.04
2 21 5 5.5 0.08
2 21 7 0.01 0.04
2 21 9 3.4 0.05
2 21 11 4.46 0.06
2 21 13 2.1 0.05
2 21 15 13.08 0.12
2 21 17 4.97 0.07
2 21 19 21.42 0.17
2 21 21 0.04 0.03
2 22 2 8.66 0.15
2 22 4 3.1 0.06
2 22 6 9.17 0.11
2 22 8 0.02 0.04
2 22 10 4.7 0.08
2 22 12 0.01 0.04
2 22 14 1.7 0.05
2 22 16 0.4 0.04
2 22 18 5.16 0.07
2 22 20 0.15 0.02
2 22 22 2.95 0.1
2 23 3 0.09 0.04
2 23 5 1.13 0.04
2 23 7 3.01 0.05
2 23 9 0.33 0.04
2 23 11 0.16 0.04
2 23 13 0.29 0.04
2 23 15 0.54 0.03
2 23 17 1.05 0.03
2 23 19 0.11 0.02
2 23 21 1.48 0.03
2 23 23 5.46 0.11
2 24 2 11.67 0.14
2 24 4 8.5 0.09
2 24 6 0.02 0.04
2 24 8 2.31 0.05
2 24 10 0.02 0.03
2 24 12 0.38 0.02
2 24 14 3.67 0.07
2 24 16 1.5 0.03
2 24 18 2.93 0.05
2 24 20 1.11 0.03
2 24 22 7.94 0.1
2 24 24 0.07 0.04
2 25 3 4.06 0.05
2 25 5 0.65 0.04
2 25 7 2.72 0.05
2 25 9 0.05 0.03
2 25 11 0.07 0.02
2 25 13 2.33 0.03
2 25 15 1.19 0.03
2 25 17 4.68 0.06
2 25 19 3.68 0.05
2 25 21 5.64 0.07
2 25 23 0.01 0.03
2 25 25 1.83 0.05
2 26 2 20.71 0.28
2 26 4 0.09 0.04
2 26 6 11.18 0.1
2 26 8 0.67 0.03
2 26 10 0.8 0.02
2 26 12 0.57 0.02
2 26 14 0.43 0.02
2 26 16 6.15 0.07
2 26 18 7.69 0.08
2 26 20 9.74 0.11
2 26 22 1.91 0.04
2 26 24 3.56 0.06
2 26 26 0.05 0.04
2 27 3 0.52 0.03
2 27 5 9.97 0.08
2 27 7 0.11 0.03
2 27 9 0.49 0.02
2 27 11 0.08 0.02
2 27 13 0.54 0.02
2 27 15 7.17 0.08
2 27 17 11.18 0.11
2 27 19 10.41 0.11
2 27 21 4.22 0.06
2 27 23 2.62 0.05
2 27 25 0.05 0.03
2 27 27 0.55 0.04
2 28 2 0.91 0.05
2 28 4 0.94 0.03
2 28 6 2.11 0.04
2 28 8 0.01 0.02
2 28 10 0.05 0.02
2 28 12 1.05 0.03
2 28 14 5.94 0.07
2 28 16 9.59 0.09
2 28 18 13.29 0.14
2 28 20 12.13 0.13
2 28 22 6.94 0.1
2 28 24 1.36 0.04
2 28 26 0.18 0.03
2 28 28 2.85 0.08
2 29 3 3.78 0.05
2 29 5 0.59 0.03
2 29 7 3.93 0.05
2 29 9 1.14 0.03
2 29 11 0.02 0.02
2 29 13 2.2 0.03
2 29 15 4.96 0.07
2 29 17 14.42 0.16
2 29 19 10.4 0.13
2 29 21 6.53 0.09
2 29 23 1.45 0.04
2 29 25 0.03 0.03
2 29 27 2.91 0.06
2 29 29 5.19 0.12
2 30 2 2.82 0.07
2 30 4 0.05 0.03
2 30 6 1.61 0.03
2 30 8 1.99 0.03
2 30 10 1.12 0.03
2 30 12 0.03 0.03
2 30 14 0.39 0.03
2 30 16 8.8 0.11
2 30 18 5.58 0.08
2 30 20 8.89 0.11
2 30 22 3.03 0.06
2 30 24 0.21 0.03
2 30 26 2.78 0.06
2 30 28 5.73 0.08
2 30 30 12.74 0.21
2 31 3 0.44 0.03
2 31 5 2.45 0.05
2 31 7 3.96 0.05
2 31 9 0.59 0.03
2 31 11 0.02 0.03
2 31 13 0.64 0.03
2 31 15 8.84 0.12
2 31 17 4.53 0.11
2 31 19 10.22 0.12
2 31 21 4.03 0.07
2 31 23 1.31 0.03
2 31 25 1.11 0.03
2 31 27 2.85 0.06
2 31 29 8.06 0.11
2 31 31 5.55 0.16
2 32 2 5.02 0.09
2 32 4 1.41 0.03
2 32 6 0.03 0.03
2 32 8 0.05 0.03
2 32 10 0.64 0.03
2 32 12 0.1 0.03
2 32 14 3.35 0.07
2 32 16 1.52 0.04
2 32 18 9.31 0.12
2 32 20 4.73 0.07
2 32 22 2.97 0.06
2 32 24 0.37 0.03
2 32 26 1.43 0.03
2 32 28 6.88 0.1
2 32 30 7.45 0.11
2 32 32 11.55 0.34
2 33 3 1.89 0.04
2 33 5 2.14 0.05
2 33 7 0.54 0.03
2 33 9 1.82 0.04
2 33 11 0.28 0.03
2 33 13 2.5 0.07
2 33 15 0.11 0.03
2 33 17 5.61 0.08
2 33 19 2.18 0.06
2 33 21 3.18 0.06
2 33 23 0.03 0.03
2 33 25 0.13 0.03
2 33 27 3.58 0.09
2 33 29 4.3 0.09
2 33 31 8.49 0.18
2 34 2 0.24 0.05
2 34 4 0.8 0.04
2 34 6 0.05 0.03
2 34 8 2.27 0.05
2 34 10 2.19 0.04
2 34 12 0.03 0.03
2 34 14 2.37 0.07
2 34 16 1.97 0.06
2 34 18 0.8 0.03
2 34 20 2.67 0.05
2 34 22 0.01 0.03
2 34 24 0 0.03
2 34 26 2.44 0.05
2 34 28 3.39 0.07
2 34 30 7.39 0.18
2 35 3 0.01 0.04
2 35 5 1.16 0.04
2 35 7 0.62 0.04
2 35 9 0.42 0.04
2 35 11 0.02 0.04
2 35 13 1.61 0.04
2 35 15 1.78 0.04
2 35 17 0.11 0.03
2 35 19 1.01 0.03
2 35 21 0.01 0.03
2 35 23 0.34 0.03
2 35 25 0.5 0.03
2 35 27 0.89 0.03
2 35 29 2.84 0.09
2 36 2 7.6 0.16
2 36 4 1.21 0.04
2 36 6 2.19 0.05
2 36 8 0.01 0.04
2 36 10 0.01 0.04
2 36 12 1.78 0.05
2 36 14 0.56 0.04
2 36 16 0.12 0.03
2 36 18 0.52 0.03
2 36 20 0.05 0.03
2 36 22 0.34 0.03
2 36 24 0.29 0.03
2 36 26 0.34 0.03
2 36 28 1.68 0.07
2 37 3 0.93 0.04
2 37 5 0.23 0.04
2 37 7 0.98 0.04
2 37 9 0.04 0.04
2 37 11 1.94 0.05
2 37 13 0.02 0.04
2 37 15 1.04 0.04
2 37 17 0.05 0.04
2 37 19 0.1 0.03
2 37 21 0.05 0.03
2 37 23 0.09 0.03
2 37 25 0 0.02
2 37 27 0.6 0.06
2 38 2 0.89 0.06
2 38 4 0.56 0.04
2 38 6 1.04 0.05
2 38 8 0.02 0.04
2 38 10 2.23 0.06
2 38 12 0.31 0.04
2 38 14 2.38 0.06
2 38 16 0.2 0.04
2 38 18 1.18 0.04
2 38 20 0.09 0.03
2 38 22 0.22 0.03
2 38 24 0 0.03
2 39 3 0.61 0.04
2 39 5 0.73 0.04
2 39 7 0.05 0.04
2 39 9 0.97 0.04
2 39 11 0.1 0.04
2 39 13 1.05 0.04
2 39 15 0.16 0.04
2 39 17 1.07 0.04
2 39 19 0.02 0.03
2 39 21 0.11 0.03
2 39 23 0.03 0.04
2 40 2 0.64 0.06
2 40 4 0.02 0.04
2 40 6 0.99 0.05
2 40 8 0.01 0.04
2 40 10 0.24 0.04
2 40 12 0.06 0.04
2 40 14 0.04 0.03
2 40 16 0.87 0.04
2 40 18 0.08 0.03
2 40 20 0.38 0.03
2 40 22 0 0.07
2 41 3 0.13 0.04
2 41 5 0.09 0.04
2 41 7 0.34 0.04
2 41 9 0.01 0.04
2 41 11 0.22 0.04
2 41 13 0.14 0.03
2 41 15 0.84 0.04
2 41 17 0.15 0.03
2 41 19 0.44 0.04
2 42 2 0.62 0.06
2 42 4 0.06 0.03
2 42 6 0.35 0.04
2 42 8 0.01 0.04
2 42 10 0.06 0.04
2 42 12 0.03 0.04
2 42 14 0.67 0.04
2 42 16 0.44 0.04
2 42 18 0.9 0.11
2 43 3 0.01 0.03
2 43 5 0.1 0.03
2 43 7 0.01 0.03
2 43 9 0.02 0.04
2 43 11 0.05 0.04
2 43 13 0.17 0.04
2 43 15 0.07 0.05
2 44 2 0.41 0.07
2 44 4 0.01 0.03
2 44 6 0.25 0.04
2 44 8 0.17 0.04
2 44 10 0.85 0.04
2 44 12 0.03 0.05
2 45 3 0.33 0.04
2 45 5 0.01 0.04
2 45 7 0.01 0.06
3 4 3 3.87 0.06
3 5 4 4.67 0.02
3 6 3 1.26 0.05
3 6 5 7.21 0.04
3 7 4 5.94 0.04
3 7 6 16.06 0.15
3 8 3 0.66 0.02
3 8 5 6.65 0.03
3 8 7 23.03 0.21
3 9 4 0.67 0.01
3 9 6 3.93 0.07
3 9 8 19.52 0.21
3 10 3 5.12 0.05
3 10 5 8.8 0.07
3 10 7 14.01 0.12
3 10 9 23.46 0.23
3 11 4 3.12 0.04
3 11 6 1.01 0.02
3 11 8 0.1 0.05
3 11 10 3.79 0.06
3 12 3 4.85 0.11
3 12 5 7.48 0.11
3 12 7 6.76 0.1
3 12 9 9.6 0.1
3 12 11 2.84 0.05
3 13 4 1.58 0.05
3 13 6 0.01 0.02
3 13 8 0.14 0.02
3 13 10 1.25 0.03
3 13 12 3.8 0.06
3 14 3 4.45 0.09
3 14 5 4.17 0.08
3 14 7 4.44 0.07
3 14 9 3.67 0.05
3 14 11 0.07 0.02
3 14 13 2.63 0.03
3 15 4 33.29 0.31
3 15 6 16.9 0.16
3 15 8 4.81 0.06
3 15 10 1.59 0.03
3 15 12 0.19 0.03
3 15 14 0.42 0.03
3 16 3 5.34 0.12
3 16 5 3.29 0.06
3 16 7 1.28 0.06
3 16 9 1.56 0.04
3 16 11 0.15 0.03
3 16 13 0.31 0.03
3 16 15 0.57 0.04
3 17 4 7.12 0.11
3 17 6 1.51 0.04
3 17 8 0.28 0.03
3 17 10 2.32 0.03
3 17 12 2.11 0.04
3 17 14 2.77 0.06
3 17 16 4.59 0.11
3 18 3 1.83 0.05
3 18 5 0.63 0.03
3 18 7 0.57 0.04
3 18 9 0.24 0.03
3 18 11 0.73 0.04
3 18 13 0.01 0.04
3 18 15 0.01 0.04
3 18 17 3.69 0.08
3 19 4 28.52 0.22
3 19 6 10.21 0.12
3 19 8 4.47 0.08
3 19 10 1.59 0.05
3 19 12 0.34 0.04
3 19 14 0.17 0.04
3 19 16 0.17 0.03
3 19 18 0.12 0.04
3 20 3 0.66 0.05
3 20 5 3.38 0.09
3 20 7 7.72 0.11
3 20 9 6.17 0.09
3 20 11 5.01 0.09
3 20 13 0.64 0.04
3 20 15 0.04 0.04
3 20 17 1.65 0.05
3 20 19 0.56 0.02
3 21 4 0.15 0.04
3 21 6 0.89 0.04
3 21 8 1.39 0.04
3 21 10 0.95 0.04
3 21 12 1.16 0.04
3 21 14 0.38 0.04
3 21 16 0.03 0.03
3 21 18 0.04 0.02
3 21 20 0.33 0.02
3 22 3 8.78 0.17
3 22 5 17.28 0.19
3 22 7 19.29 0.21
3 22 9 13.83 0.13
3 22 11 11.52 0.11
3 22 13 1.64 0.05
3 22 15 0 0.03
3 22 17 1.76 0.04
3 22 19 0.56 0.02
3 22 21 1.03 0.03
3 23 4 0.56 0.04
3 23 6 1.18 0.04
3 23 8 1.93 0.05
3 23 10 1.9 0.05
3 23 12 0.31 0.04
3 23 14 0.04 0.02
3 23 16 0.53 0.02
3 23 18 1.02 0.03
3 23 20 0.65 0.03
3 23 22 0 0.03
3 24 3 14.02 0.18
3 24 5 19.45 0.18
3 24 7 23.98 0.21
3 24 9 17.7 0.16
3 24 11 9.28 0.09
3 24 13 1.57 0.03
3 24 15 0.02 0.03
3 24 17 1.63 0.03
3 24 19 1.03 0.03
3 24 21 0.95 0.03
3 24 23 0.12 0.03
3 25 4 3.37 0.05
3 25 6 4.79 0.08
3 25 8 5.8 0.09
3 25 10 3.97 0.05
3 25 12 1.36 0.03
3 25 14 0.08 0.02
3 25 16 0.21 0.02
3 25 18 0.71 0.03
3 25 20 0.98 0.03
3 25 22 0.45 0.03
3 25 24 0.02 0.03
3 26 3 7.22 0.14
3 26 5 10.25 0.1
3 26 7 13.87 0.12
3 26 9 8.16 0.08
3 26 11 2.85 0.04
3 26 13 0.26 0.02
3 26 15 0.02 0.02
3 26 17 1.86 0.03
3 26 19 2.12 0.04
3 26 21 1.53 0.03
3 26 23 0.28 0.03
3 26 25 0.04 0.03
3 27 4 0.88 0.02
3 27 6 0.09 0.03
3 27 8 0.11 0.03
3 27 10 0.35 0.02
3 27 12 0.27 0.02
3 27 14 0.88 0.03
3 27 16 2.85 0.05
3 27 18 3.57 0.06
3 27 20 2.49 0.05
3 27 22 1.83 0.04
3 27 24 0.75 0.03
3 27 26 0.14 0.03
3 28 3 1.48 0.04
3 28 5 3.17 0.04
3 28 7 2.55 0.04
3 28 9 0.82 0.03
3 28 11 0.29 0.02
3 28 13 0.1 0.03
3 28 15 0.77 0.03
3 28 17 2.43 0.05
3 28 19 1.83 0.05
3 28 21 1.66 0.04
3 28 23 0.28 0.03
3 28 25 0.02 0.03
3 28 27 0.09 0.03
3 29 4 3.58 0.05
3 29 6 1.66 0.03
3 29 8 0.61 0.03
3 29 10 0.29 0.03
3 29 12 0.08 0.02
3 29 14 0.15 0.03
3 29 16 1.15 0.03
3 29 18 1.61 0.04
3 29 20 1.14 0.03
3 29 22 0.52 0.03
3 29 24 0.19 0.03
3 29 26 0.02 0.03
3 29 28 0 0.03
3 30 3 0.73 0.04
3 30 5 0.31 0.03
3 30 7 0.17 0.03
3 30 9 0.04 0.03
3 30 11 0 0.03
3 30 13 0.63 0.03
3 30 15 1.66 0.04
3 30 17 2.3 0.06
3 30 19 1.18 0.04
3 30 21 0.84 0.03
3 30 23 0.18 0.03
3 30 25 0 0.03
3 30 27 0.15 0.03
3 30 29 0.04 0.03
3 31 4 0.19 0.03
3 31 6 0.05 0.03
3 31 8 0.31 0.03
3 31 10 0.54 0.03
3 31 12 1.12 0.03
3 31 14 2.25 0.06
3 31 16 2.08 0.05
3 31 18 1.6 0.05
3 31 20 1 0.03
3 31 22 0.33 0.03
3 31 24 0.05 0.03
3 31 26 0 0.03
3 31 28 0.02 0.03
3 31 30 0 0.03
3 32 3 0.25 0.04
3 32 5 0.11 0.03
3 32 7 0.07 0.03
3 32 9 0.04 0.03
3 32 11 0.35 0.03
3 32 13 1.4 0.03
3 32 15 1.1 0.04
3 32 17 1.13 0.03
3 32 19 0.41 0.03
3 32 21 0.11 0.03
3 32 23 0.01 0.03
3 32 25 0.02 0.03
3 32 27 0.25 0.03
3 32 29 0.15 0.03
3 32 31 0.03 0.02
3 33 4 0.53 0.04
3 33 6 0.36 0.04
3 33 8 0.09 0.03
3 33 10 0.25 0.03
3 33 12 0.67 0.03
3 33 14 0.49 0.03
3 33 16 0.34 0.03
3 33 18 0.11 0.03
3 33 20 0 0.03
3 33 22 0.01 0.03
3 33 24 0.03 0.03
3 33 26 0.12 0.03
3 33 28 0.17 0.03
3 33 30 0.07 0.02
3 34 3 0.12 0.05
3 34 5 0.52 0.04
3 34 7 0.91 0.04
3 34 9 1.7 0.05
3 34 11 1.82 0.05
3 34 13 1.53 0.05
3 34 15 0.88 0.04
3 34 17 0.36 0.03
3 34 19 0 0.03
3 34 21 0 0.03
3 34 23 0.02 0.03
3 34 25 0.08 0.03
3 34 27 0.21 0.03
3 34 29 0.11 0.02
3 35 4 0.1 0.03
3 35 6 0.3 0.04
3 35 8 0.93 0.04
3 35 10 2.15 0.04
3 35 12 1.91 0.04
3 35 14 1.06 0.04
3 35 16 0.24 0.03
3 35 18 0 0.03
3 35 20 0.04 0.03
3 35 22 0.06 0.03
3 35 24 0.09 0.03
3 35 26 0.09 0.03
3 35 28 0.1 0.03
3 36 3 0.14 0.05
3 36 5 0.39 0.04
3 36 7 1.23 0.04
3 36 9 2.43 0.06
3 36 11 2.03 0.06
3 36 13 1.16 0.04
3 36 15 0.33 0.03
3 36 17 0.01 0.03
3 36 19 0.06 0.03
3 36 21 0.07 0.03
3 36 23 0.11 0.03
3 36 25 0.11 0.03
3 36 27 0.11 0.03
3 37 4 0.71 0.04
3 37 6 0.01 0.04
3 37 8 0.26 0.04
3 37 10 0.61 0.04
3 37 12 0.51 0.04
3 37 14 0.21 0.04
3 37 16 0.02 0.04
3 37 18 0.19 0.03
3 37 20 0.35 0.03
3 37 22 0.37 0.03
3 37 24 0.25 0.03
3 37 26 0.13 0.04
3 38 3 0.01 0.05
3 38 5 0.22 0.04
3 38 7 0.59 0.04
3 38 9 0.94 0.04
3 38 11 1.1 0.04
3 38 13 0.61 0.04
3 38 15 0.02 0.04
3 38 17 0.03 0.04
3 38 19 0.15 0.03
3 38 21 0.21 0.03
3 38 23 0.2 0.03
3 38 25 0.12 0.05
3 39 4 1.12 0.04
3 39 6 2.06 0.05
3 39 8 2.97 0.07
3 39 10 3.46 0.07
3 39 12 2.35 0.06
3 39 14 0.88 0.04
3 39 16 0.14 0.03
3 39 18 0 0.03
3 39 20 0.14 0.03
3 39 22 0.24 0.03
3 39 24 0.13 0.1
3 40 3 0 0.05
3 40 5 0.15 0.04
3 40 7 0.37 0.04
3 40 9 0.57 0.04
3 40 11 0.67 0.04
3 40 13 0.27 0.04
3 40 15 0 0.03
3 40 17 0.14 0.03
3 40 19 0.4 0.03
3 40 21 0.45 0.03
3 41 4 0 0.04
3 41 6 0.04 0.04
3 41 8 0.18 0.04
3 41 10 0.46 0.04
3 41 12 0.2 0.04
3 41 14 0.01 0.03
3 41 16 0.21 0.03
3 41 18 0.54 0.04
3 41 20 0.81 0.07
3 42 3 0.03 0.05
3 42 5 0.06 0.04
3 42 7 0.25 0.04
3 42 9 0.52 0.04
3 42 11 0.35 0.04
3 42 13 0.03 0.04
3 42 15 0.05 0.03
3 42 17 0.41 0.04
3 43 4 0.05 0.03
3 43 6 0.2 0.04
3 43 8 0.41 0.05
3 43 10 0.46 0.04
3 43 12 0.28 0.04
3 43 14 0.05 0.04
3 44 3 0.01 0.05
3 44 5 0 0.03
3 44 7 0.05 0.04
3 44 9 0.09 0.04
3 44 11 0.06 0.04
3 45 4 0.31 0.04
3 45 6 0.1 0.05
3 45 8 0.04 0.06
4 4 4 188.52 8.15
4 5 5 0.1 0.05
4 6 4 32.08 0.51
4 6 6 53.8 1.05
4 7 5 1.72 0.02
4 7 7 29.48 0.38
4 8 4 15.5 0.41
4 8 6 3.19 0.03
4 8 8 25.21 0.38
4 9 5 0.42 0.02
4 9 7 1.9 0.07
4 9 9 34.36 0.39
4 10 4 30 0.68
4 10 6 3.19 0.09
4 10 8 2.21 0.05
4 10 10 3.35 0.08
4 11 5 0.06 0.02
4 11 7 1.6 0.05
4 11 9 0.63 0.04
4 11 11 11.98 0.14
4 12 4 22.59 0.34
4 12 6 5.76 0.07
4 12 8 0.04 0.02
4 12 10 0.19 0.02
4 12 12 40.47 0.53
4 13 5 16.11 0.14
4 13 7 6.95 0.1
4 13 9 1.81 0.05
4 13 11 0.15 0.03
4 13 13 7.35 0.11
4 14 4 99.59 1.57
4 14 6 10.69 0.11
4 14 8 0.69 0.03
4 14 10 0.9 0.03
4 14 12 53.48 0.53
4 14 14 64.18 0.87
4 15 5 13.64 0.12
4 15 7 31.3 0.28
4 15 9 1.6 0.03
4 15 11 14.12 0.14
4 15 13 15.65 0.16
4 15 15 12.09 0.22
4 16 4 2.96 0.05
4 16 6 7.09 0.08
4 16 8 14.95 0.19
4 16 10 26.57 0.28
4 16 12 37.92 0.35
4 16 14 40.19 0.39
4 16 16 86.24 1.21
4 17 5 63.34 0.57
4 17 7 3.5 0.09
4 17 9 0.09 0.03
4 17 11 6.87 0.08
4 17 13 13.6 0.14
4 17 15 39.72 0.37
4 17 17 12.25 0.21
4 18 4 61.3 0.91
4 18 6 1.1 0.05
4 18 8 1.25 0.05
4 18 10 0.36 0.04
4 18 12 0.2 0.04
4 18 14 10.13 0.12
4 18 16 7.62 0.09
4 18 18 13.52 0.21
4 19 5 2.39 0.04
4 19 7 7.47 0.09
4 19 9 1.24 0.04
4 19 11 0.11 0.04
4 19 13 17.29 0.19
4 19 15 12.44 0.15
4 19 17 27.46 0.24
4 19 19 2 0.08
4 20 4 9.41 0.19
4 20 6 1.16 0.05
4 20 8 11.55 0.14
4 20 10 0.1 0.04
4 20 12 7.75 0.1
4 20 14 1.61 0.05
4 20 16 14.73 0.14
4 20 18 0.47 0.03
4 20 20 17.63 0.21
4 21 5 2.69 0.05
4 21 7 0.72 0.04
4 21 9 2.02 0.05
4 21 11 2.06 0.05
4 21 13 0.31 0.04
4 21 15 8.49 0.11
4 21 17 1.52 0.04
4 21 19 9.57 0.09
4 21 21 0.89 0.04
4 22 4 2.09 0.08
4 22 6 3.48 0.07
4 22 8 2.09 0.05
4 22 10 0.22 0.04
4 22 12 2.28 0.05
4 22 14 0.01 0.04
4 22 16 0.22 0.03
4 22 18 0.62 0.03
4 22 20 0.47 0.03
4 22 22 2.06 0.06
4 23 5 2.17 0.05
4 23 7 0.76 0.06
4 23 9 0.71 0.04
4 23 11 0.29 0.03
4 23 13 0.41 0.03
4 23 15 0.09 0.03
4 23 17 0.72 0.02
4 23 19 0.47 0.03
4 23 21 0.97 0.03
4 23 23 4.22 0.08
4 24 4 12.26 0.18
4 24 6 0.02 0.04
4 24 8 1.88 0.05
4 24 10 0.66 0.04
4 24 12 0.08 0.03
4 24 14 1.99 0.05
4 24 16 0 0.02
4 24 18 2.21 0.04
4 24 20 0.01 0.02
4 24 22 3.93 0.07
4 24 24 0.92 0.04
4 25 5 0.8 0.07
4 25 7 2.17 0.07
4 25 9 0.23 0.03
4 25 11 0.18 0.02
4 25 13 1.42 0.03
4 25 15 0.27 0.02
4 25 17 2.88 0.05
4 25 19 2.42 0.04
4 25 21 4 0.06
4 25 23 0.14 0.03
4 25 25 1 0.04
4 26 4 5.94 0.1
4 26 6 0.06 0.03
4 26 8 3.78 0.05
4 26 10 2.84 0.05
4 26 12 4.47 0.06
4 26 14 2.93 0.04
4 26 16 5.53 0.07
4 26 18 8.26 0.08
4 26 20 5.92 0.08
4 26 22 1 0.03
4 26 24 1.32 0.04
4 26 26 0 0.04
4 27 5 6.08 0.07
4 27 7 0.04 0.03
4 27 9 0.08 0.03
4 27 11 0.32 0.02
4 27 13 0.32 0.03
4 27 15 3.56 0.05
4 27 17 5.74 0.07
4 27 19 5.95 0.08
4 27 21 2.05 0.04
4 27 23 0.99 0.03
4 27 25 0.03 0.03
4 27 27 0.7 0.04
4 28 4 12.77 0.17
4 28 6 0.31 0.02
4 28 8 2.52 0.05
4 28 10 0.8 0.03
4 28 12 0.09 0.03
4 28 14 1.36 0.03
4 28 16 1.43 0.03
4 28 18 5.27 0.07
4 28 20 3.33 0.06
4 28 22 1.97 0.04
4 28 24 0.03 0.03
4 28 26 0.43 0.03
4 28 28 3.23 0.09
4 29 5 0.51 0.03
4 29 7 4.33 0.05
4 29 9 1.52 0.03
4 29 11 0.01 0.03
4 29 13 0.83 0.03
4 29 15 1.36 0.03
4 29 17 7.3 0.1
4 29 19 5.58 0.08
4 29 21 3.38 0.06
4 29 23 0.55 0.03
4 29 25 0.09 0.03
4 29 27 2.06 0.05
4 29 29 2.79 0.08
4 30 4 0.2 0.04
4 30 6 0.11 0.03
4 30 8 0.07 0.03
4 30 10 0.12 0.03
4 30 12 0.39 0.03
4 30 14 1.03 0.03
4 30 16 6.55 0.09
4 30 18 4.71 0.07
4 30 20 5.15 0.08
4 30 22 1.8 0.05
4 30 24 0.09 0.03
4 30 26 1.17 0.03
4 30 28 3.16 0.06
4 30 30 6.55 0.12
4 31 5 1.82 0.03
4 31 7 3.26 0.05
4 31 9 0.52 0.03
4 31 11 0.05 0.03
4 31 13 0.02 0.03
4 31 15 3.69 0.07
4 31 17 1.26 0.04
4 31 19 5.03 0.07
4 31 21 1.58 0.04
4 31 23 0.63 0.03
4 31 25 0.8 0.03
4 31 27 1.36 0.04
4 31 29 4.33 0.07
4 31 31 2.52 0.08
4 32 4 0.22 0.04
4 32 6 1.49 0.04
4 32 8 0.25 0.03
4 32 10 1.37 0.04
4 32 12 0.97 0.03
4 32 14 1.11 0.04
4 32 16 0.01 0.03
4 32 18 4.21 0.07
4 32 20 1.03 0.03
4 32 22 1.24 0.04
4 32 24 0.48 0.03
4 32 26 0.36 0.03
4 32 28 3.52 0.06
4 32 30 3.18 0.06
4 32 32 6.63 0.24
4 33 5 0.42 0.03
4 33 7 0.02 0.03
4 33 9 0.56 0.04
4 33 11 0.05 0.03
4 33 13 1.79 0.04
4 33 15 0.02 0.03
4 33 17 2.68 0.06
4 33 19 0.67 0.03
4 33 21 1.72 0.04
4 33 23 0.05 0.03
4 33 25 0.01 0.03
4 33 27 1.13 0.03
4 33 29 1.47 0.07
4 33 31 4.45 0.11
4 34 4 0.61 0.05
4 34 6 0.02 0.03
4 34 8 1.03 0.04
4 34 10 0.82 0.04
4 34 12 0.04 0.03
4 34 14 1.37 0.05
4 34 16 1.37 0.04
4 34 18 0.46 0.03
4 34 20 1.48 0.04
4 34 22 0.01 0.03
4 34 24 0.18 0.03
4 34 26 0.41 0.03
4 34 28 0.85 0.03
4 34 30 2.98 0.09
4 35 5 0.33 0.04
4 35 7 0.1 0.04
4 35 9 0.18 0.04
4 35 11 0.08 0.04
4 35 13 1.54 0.04
4 35 15 1.13 0.03
4 35 17 0 0.03
4 35 19 0.54 0.03
4 35 21 0 0.03
4 35 23 0.61 0.03
4 35 25 0.02 0.03
4 35 27 0.02 0.02
4 35 29 0.82 0.04
4 36 4 0.55 0.05
4 36 6 0.01 0.04
4 36 8 1.01 0.04
4 36 10 0.41 0.04
4 36 12 2.8 0.06
4 36 14 0.29 0.03
4 36 16 0.47 0.03
4 36 18 0.21 0.03
4 36 20 0.01 0.03
4 36 22 0.37 0.03
4 36 24 0.03 0.03
4 36 26 0.01 0.02
4 36 28 0.38 0.05
4 37 5 0.36 0.04
4 37 7 0.67 0.04
4 37 9 0.04 0.04
4 37 11 1.35 0.04
4 37 13 0.06 0.04
4 37 15 0.81 0.04
4 37 17 0.06 0.03
4 37 19 0.03 0.03
4 37 21 0.17 0.03
4 37 23 0.01 0.03
4 37 25 0.3 0.03
4 38 4 4.34 0.11
4 38 6 0.23 0.04
4 38 8 1.78 0.05
4 38 10 0 0.05
4 38 12 0.74 0.04
4 38 14 0.03 0.04
4 38 16 0.25 0.04
4 38 18 0.1 0.04
4 38 20 0.03 0.03
4 38 22 0 0.03
4 38 24 0.26 0.03
4 39 5 0.11 0.04
4 39 7 0.66 0.04
4 39 9 0.19 0.04
4 39 11 0.05 0.04
4 39 13 0.29 0.04
4 39 15 0.01 0.03
4 39 17 0.77 0.04
4 39 19 0 0.03
4 39 21 0.05 0.03
4 39 23 0.08 0.04
4 40 4 1.24 0.07
4 40 6 0.05 0.04
4 40 8 0.42 0.04
4 40 10 0.01 0.04
4 40 12 0.38 0.04
4 40 14 0.21 0.04
4 40 16 1.6 0.05
4 40 18 0.44 0.04
4 40 20 1.06 0.05
4 40 22 0.1 0.1
4 41 5 0.77 0.04
4 41 7 0.03 0.04
4 41 9 0.32 0.04
4 41 11 0 0.04
4 41 13 0 0.04
4 41 15 0.41 0.04
4 41 17 0.19 0.04
4 41 19 0.67 0.04
4 42 4 0.1 0.05
4 42 6 0.01 0.04
4 42 8 0.45 0.04
4 42 10 0.09 0.04
4 42 12 0.2 0.04
4 42 14 0.03 0.03
4 42 16 0.06 0.04
4 42 18 0.43 0.07
4 43 5 0.02 0.03
4 43 7 0.11 0.03
4 43 9 0 0.04
4 43 11 0.08 0.04
4 43 13 0.09 0.04
4 43 15 0.02 0.05
4 44 4 0.22 0.05
4 44 6 0 0.03
4 44 8 0.02 0.04
4 44 10 0.13 0.04
4 44 12 0.07 0.06
4 45 5 0 0.05
4 45 7 0.02 0.05
5 6 5 12.52 0.09
5 7 6 11.51 0.14
5 8 5 12.14 0.09
5 8 7 18.83 0.2
5 9 6 5.72 0.11
5 9 8 14.49 0.16
5 10 5 21.43 0.21
5 10 7 14.12 0.13
5 10 9 14.83 0.17
5 11 6 2.12 0.05
5 11 8 5.97 0.09
5 11 10 20.34 0.21
5 12 5 29.69 0.4
5 12 7 14.98 0.15
5 12 9 4.9 0.06
5 12 11 20.2 0.17
5 13 6 2.31 0.02
5 13 8 0.19 0.02
5 13 10 1.9 0.05
5 13 12 10.89 0.11
5 14 5 15.65 0.26
5 14 7 10.52 0.11
5 14 9 0.28 0.02
5 14 11 4.4 0.06
5 14 13 8.65 0.08
5 15 6 4.29 0.06
5 15 8 0.02 0.02
5 15 10 0.79 0.03
5 15 12 2.7 0.04
5 15 14 6.58 0.08
5 16 5 5.7 0.11
5 16 7 1.25 0.03
5 16 9 0.6 0.03
5 16 11 0.21 0.03
5 16 13 2.01 0.03
5 16 15 6.56 0.09
5 17 6 39.96 0.41
5 17 8 12.76 0.17
5 17 10 3.47 0.07
5 17 12 2.86 0.04
5 17 14 1.1 0.04
5 17 16 0.33 0.04
5 18 5 0.34 0.06
5 18 7 2.5 0.09
5 18 9 7.43 0.1
5 18 11 0.15 0.04
5 18 13 0.28 0.04
5 18 15 1.77 0.04
5 18 17 0.89 0.04
5 19 6 0.01 0.04
5 19 8 0.92 0.04
5 19 10 1.89 0.05
5 19 12 1.87 0.05
5 19 14 0.91 0.04
5 19 16 1.12 0.04
5 19 18 3.38 0.1
5 20 5 10.35 0.2
5 20 7 18.49 0.22
5 20 9 22.96 0.27
5 20 11 4.62 0.12
5 20 13 0.07 0.04
5 20 15 1.13 0.04
5 20 17 0.44 0.03
5 20 19 4.59 0.08
5 21 6 0.34 0.05
5 21 8 0.02 0.06
5 21 10 0.16 0.04
5 21 12 0.07 0.04
5 21 14 0.38 0.05
5 21 16 0.66 0.03
5 21 18 0.38 0.02
5 21 20 0.35 0.02
5 22 5 37.85 0.53
5 22 7 37.75 0.34
5 22 9 33.56 0.28
5 22 11 14.97 0.13
5 22 13 1.52 0.04
5 22 15 0.85 0.03
5 22 17 0.61 0.03
5 22 19 2.66 0.05
5 22 21 1.19 0.03
5 23 6 2.29 0.11
5 23 8 5.03 0.1
5 23 10 4.95 0.1
5 23 12 0.74 0.04
5 23 14 0 0.02
5 23 16 0.05 0.02
5 23 18 0.55 0.03
5 23 20 0.4 0.03
5 23 22 0.07 0.03
5 24 5 33.38 0.45
5 24 7 36.34 0.32
5 24 9 29.08 0.25
5 24 11 9.02 0.08
5 24 13 1.03 0.03
5 24 15 0.54 0.02
5 24 17 1.58 0.03
5 24 19 4.32 0.06
5 24 21 1.77 0.04
5 24 23 0.77 0.03
5 25 6 0.08 0.06
5 25 8 0.6 0.05
5 25 10 0.45 0.04
5 25 12 0.12 0.02
5 25 14 1.15 0.03
5 25 16 1.75 0.03
5 25 18 3.12 0.05
5 25 20 3.89 0.06
5 25 22 2.11 0.04
5 25 24 0.23 0.03
5 26 5 21.9 0.26
5 26 7 25.76 0.2
5 26 9 15.06 0.12
5 26 11 2.99 0.05
5 26 13 0.28 0.02
5 26 15 0.43 0.03
5 26 17 1.95 0.04
5 26 19 5.88 0.08
5 26 21 2.55 0.06
5 26 23 0.88 0.03
5 26 25 0 0.03
5 27 6 7.9 0.07
5 27 8 5.85 0.07
5 27 10 2.72 0.04
5 27 12 1.05 0.03
5 27 14 0.02 0.03
5 27 16 0.79 0.03
5 27 18 2.64 0.06
5 27 20 2.77 0.06
5 27 22 2.45 0.05
5 27 24 0.76 0.03
5 27 26 0.06 0.03
5 28 5 13.97 0.16
5 28 7 11.05 0.09
5 28 9 4.94 0.06
5 28 11 1.45 0.03
5 28 13 0.02 0.03
5 28 15 1.3 0.03
5 28 17 2.71 0.06
5 28 19 5.07 0.08
5 28 21 3.49 0.06
5 28 23 1.11 0.03
5 28 25 0.02 0.03
5 28 27 0 0.03
5 29 6 0 0.02
5 29 8 0.28 0.03
5 29 10 0.33 0.03
5 29 12 0.92 0.03
5 29 14 2.28 0.05
5 29 16 4.25 0.07
5 29 18 5.26 0.08
5 29 20 4.56 0.07
5 29 22 2.46 0.05
5 29 24 1.03 0.03
5 29 26 0.2 0.03
5 29 28 0.01 0.03
5 30 5 1.09 0.04
5 30 7 0.57 0.03
5 30 9 0.19 0.03
5 30 11 0 0.03
5 30 13 0.39 0.03
5 30 15 2.48 0.05
5 30 17 2.21 0.06
5 30 19 2.64 0.06
5 30 21 1.47 0.04
5 30 23 0.56 0.03
5 30 25 0 0.03
5 30 27 0.01 0.03
5 30 29 0.03 0.03
5 31 6 0.3 0.03
5 31 8 0.02 0.03
5 31 10 0.02 0.03
5 31 12 0.32 0.03
5 31 14 1.27 0.03
5 31 16 1.03 0.03
5 31 18 1.03 0.04
5 31 20 1.03 0.03
5 31 22 0.33 0.03
5 31 24 0.04 0.03
5 31 26 0 0.03
5 31 28 0 0.03
5 31 30 0 0.03
5 32 5 0.78 0.04
5 32 7 0.84 0.03
5 32 9 0.64 0.03
5 32 11 1.52 0.04
5 32 13 2.41 0.05
5 32 15 1.97 0.05
5 32 17 1.16 0.04
5 32 19 1.1 0.03
5 32 21 0.18 0.03
5 32 23 0.06 0.03
5 32 25 0.02 0.03
5 32 27 0.05 0.03
5 32 29 0.07 0.03
5 32 31 0.02 0.02
5 33 6 0.34 0.03
5 33 8 0.03 0.03
5 33 10 0.36 0.03
5 33 12 1.38 0.04
5 33 14 0.84 0.04
5 33 16 0.58 0.04
5 33 18 0.26 0.03
5 33 20 0.02 0.03
5 33 22 0 0.03
5 33 24 0.01 0.03
5 33 26 0.09 0.03
5 33 28 0.05 0.03
5 33 30 0.01 0.02
5 34 5 0.31 0.05
5 34 7 0.91 0.04
5 34 9 2.3 0.07
5 34 11 2.6 0.06
5 34 13 1.69 0.04
5 34 15 1.3 0.04
5 34 17 0.32 0.03
5 34 19 0.04 0.03
5 34 21 0 0.03
5 34 23 0 0.03
5 34 25 0.11 0.03
5 34 27 0.07 0.03
5 34 29 0.04 0.03
5 35 6 0.01 0.04
5 35 8 0.58 0.04
5 35 10 1.91 0.07
5 35 12 2.5 0.07
5 35 14 1.58 0.04
5 35 16 0.53 0.03
5 35 18 0 0.03
5 35 20 0.03 0.03
5 35 22 0.12 0.03
5 35 24 0.24 0.03
5 35 26 0.24 0.02
5 35 28 0.1 0.03
5 36 5 0.19 0.05
5 36 7 1.54 0.05
5 36 9 3.64 0.09
5 36 11 2.81 0.08
5 36 13 1.45 0.04
5 36 15 0.64 0.04
5 36 17 0 0.03
5 36 19 0.04 0.03
5 36 21 0.19 0.03
5 36 23 0.22 0.03
5 36 25 0.27 0.03
5 36 27 0.12 0.03
5 37 6 2.62 0.06
5 37 8 5.66 0.11
5 37 10 5.44 0.09
5 37 12 4.65 0.08
5 37 14 2.7 0.06
5 37 16 0.5 0.04
5 37 18 0 0.03
5 37 20 0.24 0.03
5 37 22 0.51 0.03
5 37 24 0.51 0.03
5 37 26 0.25 0.04
5 38 5 1.45 0.06
5 38 7 3.41 0.08
5 38 9 4.18 0.1
5 38 11 3.24 0.08
5 38 13 1.53 0.06
5 38 15 0.11 0.03
5 38 17 0.2 0.03
5 38 19 0.59 0.04
5 38 21 1.05 0.04
5 38 23 0.88 0.06
5 38 25 0.53 0.09
5 39 6 0.14 0.04
5 39 8 0.92 0.04
5 39 10 1.15 0.07
5 39 12 0.66 0.04
5 39 14 0.03 0.03
5 39 16 0.18 0.03
5 39 18 1.09 0.04
5 39 20 1.98 0.06
5 39 22 1.98 0.08
5 40 5 1.03 0.06
5 40 7 2.2 0.08
5 40 9 2.51 0.1
5 40 11 1.71 0.1
5 40 13 0.56 0.04
5 40 15 0 0.03
5 40 17 0.66 0.04
5 40 19 1.46 0.06
5 40 21 1.85 0.09
5 41 6 1.24 0.04
5 41 8 2.05 0.07
5 41 10 2.62 0.09
5 41 12 1.46 0.05
5 41 14 0.22 0.04
5 41 16 0 0.04
5 41 18 0.46 0.04
5 42 5 0.06 0.05
5 42 7 0.35 0.04
5 42 9 0.74 0.04
5 42 11 0.26 0.04
5 42 13 0.01 0.03
5 42 15 0.04 0.04
5 42 17 0.61 0.05
5 43 6 0.07 0.03
5 43 8 0.32 0.03
5 43 10 0.31 0.04
5 43 12 0.09 0.04
5 43 14 0 0.05
5 44 5 0 0.05
5 44 7 0.04 0.04
5 44 9 0.1 0.04
5 44 11 0.02 0.05
5 45 6 0.08 0.05
6 6 6 102.23 3.09
6 7 7 1.33 0.06
6 8 6 19.87 0.21
6 8 8 22.63 0.25
6 9 7 5.21 0.08
6 9 9 9.87 0.15
6 10 6 0.45 0.03
6 10 8 0.88 0.03
6 10 10 13.95 0.21
6 11 7 0.49 0.02
6 11 9 0.05 0.03
6 11 11 12.72 0.2
6 12 6 7.41 0.11
6 12 8 5.05 0.06
6 12 10 0.38 0.03
6 12 12 14.53 0.22
6 13 7 0.09 0.02
6 13 9 0.83 0.03
6 13 11 1.02 0.04
6 13 13 0.03 0.04
6 14 6 0.74 0.04
6 14 8 2.56 0.03
6 14 10 3.5 0.06
6 14 12 28.13 0.28
6 14 14 38.6 0.44
6 15 7 15.55 0.16
6 15 9 2.65 0.06
6 15 11 1.04 0.03
6 15 13 0.63 0.03
6 15 15 0.08 0.05
6 16 6 30 0.46
6 16 8 4.59 0.06
6 16 10 1.43 0.04
6 16 12 3.48 0.05
6 16 14 8.27 0.08
6 16 16 17.38 0.24
6 17 7 3.38 0.07
6 17 9 2.39 0.05
6 17 11 0.08 0.03
6 17 13 0.7 0.04
6 17 15 7.53 0.1
6 17 17 0.37 0.05
6 18 6 6.78 0.16
6 18 8 0.4 0.04
6 18 10 4.61 0.08
6 18 12 1.36 0.04
6 18 14 12.96 0.12
6 18 16 3.16 0.05
6 18 18 28.88 0.35
6 19 7 5.59 0.11
6 19 9 0.28 0.04
6 19 11 0.77 0.04
6 19 13 3.39 0.06
6 19 15 0.48 0.04
6 19 17 8.79 0.09
6 19 19 0.23 0.04
6 20 6 7.58 0.17
6 20 8 5.1 0.1
6 20 10 16.38 0.19
6 20 12 2.2 0.05
6 20 14 3.79 0.08
6 20 16 0.39 0.04
6 20 18 0.08 0.02
6 20 20 4.6 0.09
6 21 7 1.45 0.07
6 21 9 1.3 0.05
6 21 11 0.58 0.04
6 21 13 0.24 0.04
6 21 15 2.8 0.05
6 21 17 0.12 0.02
6 21 19 2.75 0.04
6 21 21 2.68 0.09
6 22 6 2.61 0.07
6 22 8 6.77 0.1
6 22 10 0.96 0.04
6 22 12 4.68 0.08
6 22 14 0.04 0.03
6 22 16 0.61 0.02
6 22 18 2.93 0.05
6 22 20 0.41 0.03
6 22 22 7.28 0.12
6 23 7 1.09 0.06
6 23 9 0.14 0.05
6 23 11 1.28 0.04
6 23 13 0.03 0.03
6 23 15 0.44 0.02
6 23 17 0.22 0.02
6 23 19 1.08 0.03
6 23 21 0.93 0.03
6 23 23 2.7 0.07
6 24 6 7.35 0.13
6 24 8 4.31 0.08
6 24 10 10.35 0.09
6 24 12 3.86 0.05
6 24 14 3.66 0.06
6 24 16 0.8 0.02
6 24 18 0.51 0.03
6 24 20 0.06 0.03
6 24 22 0.58 0.03
6 24 24 2.75 0.07
6 25 7 1.86 0.13
6 25 9 0.24 0.04
6 25 11 0.03 0.02
6 25 13 0.71 0.03
6 25 15 0.1 0.02
6 25 17 0.88 0.03
6 25 19 0.46 0.03
6 25 21 1.13 0.03
6 25 23 1.07 0.03
6 25 25 0.02 0.04
6 26 6 4.74 0.09
6 26 8 0.51 0.03
6 26 10 0.19 0.03
6 26 12 0.8 0.03
6 26 14 0.02 0.02
6 26 16 0.94 0.03
6 26 18 0.15 0.03
6 26 20 0.54 0.03
6 26 22 0.49 0.03
6 26 24 0 0.03
6 26 26 1.49 0.05
6 27 7 0.12 0.04
6 27 9 0.72 0.02
6 27 11 0.04 0.02
6 27 13 0 0.02
6 27 15 1.19 0.03
6 27 17 1.06 0.03
6 27 19 1.52 0.03
6 27 21 0.35 0.03
6 27 23 0.08 0.03
6 27 25 0.49 0.03
6 27 27 0.76 0.05
6 28 6 3.55 0.08
6 28 8 1.05 0.03
6 28 10 1.95 0.03
6 28 12 2.83 0.05
6 28 14 3.57 0.06
6 28 16 1.96 0.04
6 28 18 1.81 0.04
6 28 20 1.64 0.04
6 28 22 0.39 0.03
6 28 24 0 0.03
6 28 26 0.69 0.03
6 28 28 1.18 0.05
6 29 7 1.88 0.04
6 29 9 0.63 0.03
6 29 11 0.01 0.03
6 29 13 0.28 0.03
6 29 15 0.03 0.03
6 29 17 1.39 0.03
6 29 19 0.96 0.03
6 29 21 0.61 0.03
6 29 23 0.01 0.03
6 29 25 0.38 0.03
6 29 27 1.25 0.03
6 29 29 0.77 0.04
6 30 6 2.02 0.05
6 30 8 1.03 0.03
6 30 10 0.02 0.03
6 30 12 0 0.03
6 30 14 0.17 0.03
6 30 16 1 0.04
6 30 18 0.02 0.03
6 30 20 0.65 0.04
6 30 22 0.03 0.03
6 30 24 0 0.03
6 30 26 0.86 0.03
6 30 28 0.58 0.03
6 30 30 1.42 0.05
6 31 7 0.95 0.03
6 31 9 0 0.03
6 31 11 0 0.03
6 31 13 0.05 0.03
6 31 15 1.04 0.03
6 31 17 0 0.03
6 31 19 1.13 0.03
6 31 21 0.24 0.03
6 31 23 0.28 0.03
6 31 25 0.39 0.03
6 31 27 0.24 0.03
6 31 29 0.93 0.03
6 31 31 0.12 0.03
6 32 6 4.22 0.09
6 32 8 0.78 0.03
6 32 10 1.33 0.04
6 32 12 1.11 0.04
6 32 14 0.14 0.03
6 32 16 0.22 0.03
6 32 18 0.69 0.04
6 32 20 0.14 0.03
6 32 22 0.64 0.03
6 32 24 0.05 0.03
6 32 26 0 0.03
6 32 28 0.37 0.03
6 32 30 0.18 0.02
6 32 32 1.85 0.07
6 33 7 0.01 0.03
6 33 9 0.48 0.03
6 33 11 0.4 0.03
6 33 13 0.48 0.03
6 33 15 0.6 0.03
6 33 17 0.64 0.03
6 33 19 0.01 0.03
6 33 21 0.99 0.03
6 33 23 0 0.03
6 33 25 0.41 0.03
6 33 27 0.03 0.03
6 33 29 0.01 0.02
6 33 31 0.91 0.04
6 34 6 0.22 0.05
6 34 8 1.09 0.04
6 34 10 0.32 0.04
6 34 12 0.36 0.03
6 34 14 0.77 0.04
6 34 16 1.47 0.04
6 34 18 0.06 0.03
6 34 20 1.31 0.04
6 34 22 0.01 0.03
6 34 24 1.13 0.03
6 34 26 0.01 0.03
6 34 28 0.01 0.02
6 34 30 0.36 0.04
6 35 7 0.02 0.04
6 35 9 0 0.04
6 35 11 0.07 0.04
6 35 13 1.37 0.04
6 35 15 0.59 0.04
6 35 17 0.08 0.03
6 35 19 0.27 0.03
6 35 21 0 0.03
6 35 23 1.21 0.03
6 35 25 0.2 0.03
6 35 27 0.32 0.02
6 35 29 0 0.05
6 36 6 0.36 0.06
6 36 8 0.08 0.04
6 36 10 0.1 0.04
6 36 12 0.41 0.04
6 36 14 1.18 0.04
6 36 16 0.03 0.04
6 36 18 0.18 0.03
6 36 20 0.01 0.03
6 36 22 0.75 0.03
6 36 24 0.23 0.03
6 36 26 0.57 0.03
6 37 7 0.16 0.04
6 37 9 0.93 0.06
6 37 11 0.09 0.04
6 37 13 0.4 0.04
6 37 15 0.66 0.04
6 37 17 0.02 0.03
6 37 19 0.11 0.03
6 37 21 0.13 0.03
6 37 23 0.08 0.03
6 37 25 0.85 0.04
6 38 6 1.33 0.06
6 38 8 0 0.04
6 38 10 0.77 0.05
6 38 12 0 0.04
6 38 14 0.98 0.05
6 38 16 0.02 0.03
6 38 18 1.08 0.04
6 38 20 0.09 0.03
6 38 22 0.05 0.03
6 38 24 0.33 0.04
6 39 7 2.47 0.07
6 39 9 0.17 0.04
6 39 11 0.51 0.04
6 39 13 0.05 0.04
6 39 15 0 0.03
6 39 17 0.6 0.04
6 39 19 0.02 0.03
6 39 21 0.06 0.03
6 39 23 0.15 0.05
6 40 6 1.71 0.09
6 40 8 0.31 0.04
6 40 10 1.37 0.06
6 40 12 0.21 0.04
6 40 14 0.19 0.04
6 40 16 0.07 0.04
6 40 18 0 0.04
6 40 20 0.22 0.04
6 41 7 0.21 0.04
6 41 9 0.67 0.04
6 41 11 0.04 0.03
6 41 13 0.02 0.03
6 41 15 0.2 0.04
6 41 17 0.04 0.04
6 41 19 0.43 0.04
6 42 6 0.07 0.05
6 42 8 0.22 0.04
6 42 10 0.05 0.04
6 42 12 0.07 0.04
6 42 14 0.09 0.04
6 42 16 0.06 0.04
6 43 7 0.42 0.03
6 43 9 0.06 0.04
6 43 11 0.21 0.04
6 43 13 0.03 0.04
6 44 6 0.2 0.05
6 44 8 0.06 0.04
6 44 10 0.47 0.04
7 8 7 16.9 0.26
7 9 8 34.75 0.28
7 10 7 6 0.11
7 10 9 30.6 0.25
7 11 8 6.23 0.08
7 11 10 16.68 0.13
7 12 7 4.71 0.09
7 12 9 14.55 0.12
7 12 11 16.91 0.15
7 13 8 0.71 0.03
7 13 10 4.68 0.06
7 13 12 14.97 0.15
7 14 7 6.34 0.1
7 14 9 8.23 0.09
7 14 11 6.51 0.08
7 14 13 15.1 0.14
7 15 8 2.68 0.03
7 15 10 0.35 0.03
7 15 12 0.28 0.03
7 15 14 4.3 0.07
7 16 7 0.06 0.04
7 16 9 0.68 0.03
7 16 11 0.4 0.03
7 16 13 4.24 0.07
7 16 15 4.84 0.08
7 17 8 0.33 0.03
7 17 10 0.14 0.03
7 17 12 0.02 0.03
7 17 14 0.2 0.04
7 17 16 3.38 0.06
7 18 7 15.64 0.3
7 18 9 5.68 0.09
7 18 11 0.48 0.04
7 18 13 0.88 0.04
7 18 15 1.61 0.04
7 18 17 5.82 0.08
7 19 8 6.38 0.12
7 19 10 4.27 0.09
7 19 12 3.58 0.05
7 19 14 2.78 0.05
7 19 16 1.03 0.04
7 19 18 0.68 0.03
7 20 7 32.43 0.55
7 20 9 17.61 0.22
7 20 11 3.96 0.07
7 20 13 0.11 0.04
7 20 15 1.18 0.04
7 20 17 3.17 0.05
7 20 19 1.91 0.05
7 21 8 0.62 0.05
7 21 10 0.26 0.04
7 21 12 0.33 0.04
7 21 14 0.06 0.04
7 21 16 0.02 0.03
7 21 18 0.22 0.02
7 21 20 1.97 0.08
7 22 7 38.6 0.5
7 22 9 19.52 0.18
7 22 11 8.52 0.09
7 22 13 0 0.04
7 22 15 1.79 0.03
7 22 17 3.38 0.05
7 22 19 1.38 0.03
7 22 21 3.27 0.07
7 23 8 0.18 0.1
7 23 10 0.05 0.05
7 23 12 0.38 0.03
7 23 14 0.86 0.02
7 23 16 0.69 0.02
7 23 18 0.52 0.03
7 23 20 0.52 0.03
7 23 22 0.07 0.03
7 24 7 41.49 0.48
7 24 9 22.66 0.19
7 24 11 6.22 0.07
7 24 13 0.06 0.02
7 24 15 0.76 0.02
7 24 17 3.79 0.05
7 24 19 2.88 0.05
7 24 21 3.09 0.07
7 24 23 0.59 0.03
7 25 8 3.31 0.15
7 25 10 2.58 0.05
7 25 12 0.21 0.02
7 25 14 0.09 0.02
7 25 16 0.52 0.03
7 25 18 1.04 0.03
7 25 20 2.42 0.06
7 25 22 1.27 0.03
7 25 24 0.09 0.03
7 26 7 35.14 0.35
7 26 9 16.93 0.13
7 26 11 3.6 0.05
7 26 13 0.16 0.02
7 26 15 0.17 0.02
7 26 17 3.45 0.05
7 26 19 5 0.08
7 26 21 4.13 0.07
7 26 23 0.97 0.03
7 26 25 0.12 0.03
7 27 8 0.01 0.05
7 27 10 0.08 0.02
7 27 12 0.18 0.02
7 27 14 0.91 0.03
7 27 16 3.3 0.05
7 27 18 4.63 0.07
7 27 20 4.67 0.07
7 27 22 4.11 0.07
7 27 24 1.8 0.04
7 27 26 0.17 0.03
7 28 7 11.35 0.15
7 28 9 4.74 0.06
7 28 11 1.63 0.03
7 28 13 0.02 0.03
7 28 15 0.41 0.03
7 28 17 2.84 0.06
7 28 19 3.32 0.06
7 28 21 4.04 0.07
7 28 23 0.94 0.03
7 28 25 0.27 0.03
7 28 27 0 0.03
7 29 8 0.99 0.03
7 29 10 0.93 0.03
7 29 12 0.43 0.03
7 29 14 0 0.03
7 29 16 0.73 0.03
7 29 18 1.43 0.04
7 29 20 1.98 0.05
7 29 22 1.46 0.04
7 29 24 1.07 0.03
7 29 26 0.19 0.03
7 29 28 0 0.03
7 30 7 0.91 0.04
7 30 9 0.55 0.03
7 30 11 0.23 0.03
7 30 13 0.09 0.03
7 30 15 0.88 0.03
7 30 17 1.77 0.04
7 30 19 1.49 0.04
7 30 21 1.94 0.04
7 30 23 0.74 0.03
7 30 25 0.23 0.03
7 30 27 0.01 0.03
7 30 29 0 0.03
7 31 8 0.48 0.03
7 31 10 0.39 0.03
7 31 12 0.01 0.03
7 31 14 0.36 0.03
7 31 16 0.4 0.03
7 31 18 0.61 0.03
7 31 20 1.08 0.03
7 31 22 0.64 0.03
7 31 24 0.36 0.03
7 31 26 0.13 0.03
7 31 28 0.03 0.03
7 31 30 0.01 0.03
7 32 7 0.17 0.04
7 32 9 0.02 0.03
7 32 11 0.33 0.03
7 32 13 1.08 0.03
7 32 15 0.5 0.03
7 32 17 0.91 0.03
7 32 19 0.65 0.03
7 32 21 0.4 0.03
7 32 23 0.14 0.03
7 32 25 0.14 0.03
7 32 27 0.01 0.03
7 32 29 0 0.03
7 32 31 0 0.03
7 33 8 0.21 0.03
7 33 10 1.8 0.04
7 33 12 3.09 0.06
7 33 14 2.06 0.05
7 33 16 1.63 0.04
7 33 18 1.01 0.03
7 33 20 0.29 0.03
7 33 22 0.14 0.03
7 33 24 0.06 0.03
7 33 26 0 0.03
7 33 28 0 0.02
7 33 30 0.02 0.03
7 34 7 1.03 0.05
7 34 9 1.99 0.05
7 34 11 2.11 0.04
7 34 13 1.24 0.04
7 34 15 0.62 0.03
7 34 17 0.43 0.03
7 34 19 0 0.03
7 34 21 0.01 0.03
7 34 23 0 0.03
7 34 25 0 0.03
7 34 27 0.01 0.03
7 34 29 0 0.03
7 35 8 0.87 0.04
7 35 10 2.62 0.08
7 35 12 2.62 0.06
7 35 14 1.78 0.05
7 35 16 0.67 0.03
7 35 18 0.02 0.03
7 35 20 0.04 0.03
7 35 22 0.17 0.03
7 35 24 0.23 0.03
7 35 26 0.11 0.03
7 35 28 0.01 0.03
7 36 7 3.58 0.16
7 36 9 5.47 0.1
7 36 11 3.66 0.08
7 36 13 1.54 0.05
7 36 15 0.31 0.04
7 36 17 0 0.03
7 36 19 0.34 0.03
7 36 21 0.47 0.03
7 36 23 0.59 0.03
7 36 25 0.24 0.03
7 36 27 0.07 0.03
7 37 8 1.6 0.1
7 37 10 1.75 0.08
7 37 12 1.26 0.07
7 37 14 0.64 0.04
7 37 16 0.01 0.03
7 37 18 0.48 0.03
7 37 20 1.27 0.04
7 37 22 1.7 0.06
7 37 24 1.24 0.04
7 37 26 0.49 0.05
7 38 7 5.37 0.15
7 38 9 5.13 0.12
7 38 11 3.69 0.1
7 38 13 1.49 0.05
7 38 15 0.01 0.03
7 38 17 0.27 0.04
7 38 19 1.32 0.05
7 38 21 1.8 0.06
7 38 23 1.78 0.08
7 39 8 4.49 0.11
7 39 10 4.59 0.09
7 39 12 3.03 0.08
7 39 14 1.02 0.04
7 39 16 0.02 0.03
7 39 18 0.35 0.04
7 39 20 1.44 0.06
7 39 22 2 0.08
7 40 7 3.21 0.14
7 40 9 2.82 0.1
7 40 11 2.02 0.06
7 40 13 0.57 0.04
7 40 15 0.02 0.03
7 40 17 0.49 0.04
7 40 19 1.76 0.07
7 40 21 2.3 0.1
7 41 8 0.72 0.04
7 41 10 1.25 0.04
7 41 12 0.56 0.04
7 41 14 0.01 0.03
7 41 16 0.2 0.04
7 41 18 0.92 0.05
7 42 7 0.85 0.05
7 42 9 1.17 0.04
7 42 11 0.54 0.04
7 42 13 0.04 0.04
7 42 15 0.01 0.04
7 42 17 0.31 0.09
7 43 8 0.78 0.04
7 43 10 0.61 0.04
7 43 12 0.24 0.04
7 43 14 0.03 0.05
7 44 7 0.15 0.07
7 44 9 0.16 0.04
7 44 11 0.05 0.12
8 8 8 56.84 1.19
8 9 9 5.31 0.12
8 10 8 0.07 0.03
8 10 10 0.38 0.04
8 11 9 5.01 0.08
8 11 11 4.41 0.12
8 12 8 0.2 0.04
8 12 10 0.13 0.03
8 12 12 9.9 0.15
8 13 9 0.11 0.03
8 13 11 3.83 0.07
8 13 13 6.23 0.13
8 14 8 1.69 0.04
8 14 10 0.58 0.03
8 14 12 5.94 0.07
8 14 14 3.46 0.06
8 15 9 0.96 0.03
8 15 11 0.48 0.03
8 15 13 3.78 0.06
8 15 15 6.29 0.11
8 16 8 0.1 0.04
8 16 10 0.22 0.03
8 16 12 0.27 0.03
8 16 14 0.03 0.03
8 16 16 3.01 0.08
8 17 9 3.25 0.04
8 17 11 1.37 0.04
8 17 13 2.98 0.05
8 17 15 0.44 0.04
8 17 17 7.82 0.11
8 18 8 13.44 0.21
8 18 10 8.45 0.09
8 18 12 7.9 0.1
8 18 14 1.37 0.04
8 18 16 2.47 0.05
8 18 18 3.04 0.08
8 19 9 0.99 0.05
8 19 11 5.12 0.08
8 19 13 0.41 0.04
8 19 15 3.73 0.05
8 19 17 0.25 0.03
8 19 19 2.85 0.06
8 20 8 1.63 0.09
8 20 10 15.09 0.16
8 20 12 2.07 0.05
8 20 14 5.7 0.08
8 20 16 1.33 0.03
8 20 18 0.08 0.02
8 20 20 13.9 0.17
8 21 9 4.5 0.1
8 21 11 0.45 0.04
8 21 13 4.12 0.06
8 21 15 0.05 0.03
8 21 17 0.99 0.03
8 21 19 0.41 0.03
8 21 21 3.62 0.09
8 22 8 29.24 0.4
8 22 10 18.14 0.16
8 22 12 18.63 0.18
8 22 14 2.78 0.04
8 22 16 1.45 0.03
8 22 18 0.56 0.03
8 22 20 0.22 0.03
8 22 22 10.88 0.16
8 23 9 0.02 0.05
8 23 11 1.83 0.04
8 23 13 0.01 0.03
8 23 15 0.68 0.02
8 23 17 0.03 0.02
8 23 19 0.75 0.03
8 23 21 1.93 0.05
8 23 23 0.43 0.05
8 24 8 2.32 0.11
8 24 10 10.55 0.1
8 24 12 1.93 0.04
8 24 14 2.01 0.03
8 24 16 0 0.02
8 24 18 0.01 0.03
8 24 20 5.02 0.07
8 24 22 0.53 0.03
8 24 24 10.03 0.17
8 25 9 0.03 0.04
8 25 11 0.23 0.02
8 25 13 0.1 0.02
8 25 15 0 0.02
8 25 17 0.34 0.03
8 25 19 0.12 0.03
8 25 21 0 0.03
8 25 23 3.3 0.06
8 25 25 0.23 0.04
8 26 8 7.48 0.1
8 26 10 5.12 0.06
8 26 12 3.54 0.05
8 26 14 1.07 0.03
8 26 16 0.36 0.03
8 26 18 0.06 0.03
8 26 20 0.62 0.04
8 26 22 1.92 0.04
8 26 24 1.06 0.03
8 26 26 2.19 0.06
8 27 9 0.52 0.03
8 27 11 0.27 0.02
8 27 13 0.04 0.02
8 27 15 0.13 0.03
8 27 17 0.02 0.03
8 27 19 0.08 0.03
8 27 21 0.31 0.03
8 27 23 0.56 0.03
8 27 25 1.17 0.03
8 27 27 0.53 0.04
8 28 8 0.04 0.04
8 28 10 0.09 0.03
8 28 12 0.19 0.03
8 28 14 0.18 0.03
8 28 16 1.08 0.03
8 28 18 0.59 0.03
8 28 20 0.87 0.03
8 28 22 0.41 0.03
8 28 24 0.91 0.03
8 28 26 0.65 0.03
8 28 28 0.39 0.04
8 29 9 0.53 0.03
8 29 11 0.01 0.03
8 29 13 0 0.03
8 29 15 0.78 0.03
8 29 17 0.02 0.03
8 29 19 0.11 0.03
8 29 21 0.05 0.03
8 29 23 0.35 0.03
8 29 25 0.38 0.03
8 29 27 0.3 0.03
8 29 29 0 0.04
8 30 8 0.7 0.04
8 30 10 0.15 0.03
8 30 12 0.03 0.03
8 30 14 0.43 0.03
8 30 16 0.03 0.03
8 30 18 0.4 0.03
8 30 20 0.04 0.03
8 30 22 0 0.03
8 30 24 0 0.03
8 30 26 0.01 0.03
8 30 28 0.11 0.03
8 30 30 0.05 0.04
8 31 9 0.01 0.03
8 31 11 0.08 0.03
8 31 13 0.63 0.03
8 31 15 0 0.03
8 31 17 0.68 0.03
8 31 19 0.01 0.03
8 31 21 0.01 0.03
8 31 23 0.1 0.03
8 31 25 0.04 0.03
8 31 27 0.07 0.03
8 31 29 0.02 0.03
8 31 31 0.81 0.04
8 32 8 0.11 0.04
8 32 10 0.05 0.03
8 32 12 0 0.03
8 32 14 1.17 0.04
8 32 16 0.14 0.03
8 32 18 0.63 0.04
8 32 20 0.03 0.03
8 32 22 1.21 0.04
8 32 24 0.05 0.03
8 32 26 0.89 0.03
8 32 28 0.3 0.03
8 32 30 0.77 0.03
8 33 9 0.22 0.03
8 33 11 0.46 0.04
8 33 13 0.08 0.03
8 33 15 1.43 0.04
8 33 17 0.04 0.03
8 33 19 0.13 0.03
8 33 21 0.64 0.03
8 33 23 0.02 0.03
8 33 25 1.27 0.03
8 33 27 0.35 0.03
8 33 29 0.61 0.03
8 34 8 2.36 0.06
8 34 10 0.84 0.04
8 34 12 0.04 0.03
8 34 14 1.08 0.04
8 34 16 0.15 0.03
8 34 18 0.09 0.03
8 34 20 0.37 0.03
8 34 22 0.06 0.03
8 34 24 1.62 0.04
8 34 26 0.61 0.03
8 34 28 0.85 0.03
8 35 9 0.33 0.04
8 35 11 0.33 0.04
8 35 13 1.09 0.04
8 35 15 0.14 0.03
8 35 17 0.55 0.03
8 35 19 0.03 0.03
8 35 21 0.01 0.03
8 35 23 1.4 0.06
8 35 25 0.69 0.03
8 35 27 1.22 0.03
8 36 8 1.11 0.07
8 36 10 0.14 0.04
8 36 12 1.13 0.04
8 36 14 0.22 0.04
8 36 16 1 0.04
8 36 18 0.01 0.03
8 36 20 0.14 0.03
8 36 22 0.69 0.03
8 36 24 0.31 0.03
8 36 26 1.17 0.04
8 37 9 2.69 0.11
8 37 11 0.09 0.04
8 37 13 0.42 0.04
8 37 15 0.81 0.04
8 37 17 0.02 0.03
8 37 19 0.24 0.03
8 37 21 0.08 0.03
8 37 23 0.11 0.03
8 37 25 1.14 0.09
8 38 8 0.89 0.11
8 38 10 0.05 0.04
8 38 12 0.64 0.04
8 38 14 0.03 0.04
8 38 16 0.07 0.03
8 38 18 0.2 0.03
8 38 20 0 0.03
8 38 22 0.06 0.03
8 38 24 0.76 0.11
8 39 9 0.95 0.04
8 39 11 0.99 0.04
8 39 13 0.01 0.04
8 39 15 0 0.03
8 39 17 0.52 0.03
8 39 19 0.01 0.03
8 39 21 0.01 0.03
8 40 8 0.03 0.05
8 40 10 0.38 0.04
8 40 12 0 0.03
8 40 14 0 0.03
8 40 16 0.34 0.03
8 40 18 0.02 0.03
8 40 20 0.27 0.04
8 41 9 1.21 0.04
8 41 11 0.13 0.04
8 41 13 0.06 0.03
8 41 15 0.04 0.03
8 41 17 0 0.04
8 41 19 0.11 0.12
8 42 8 1.1 0.06
8 42 10 0.47 0.04
8 42 12 0.47 0.04
8 42 14 0.01 0.04
8 42 16 0 0.04
8 43 9 0.15 0.04
8 43 11 0.24 0.04
8 43 13 0.02 0.04
8 44 8 0.02 0.06
8 44 10 0.19 0.07
9 10 9 19.18 0.22
9 11 10 22.21 0.18
9 12 9 9.26 0.12
9 12 11 20.77 0.19
9 13 10 1.01 0.03
9 13 12 5.45 0.07
9 14 9 3.8 0.1
9 14 11 7.95 0.11
9 14 13 4.85 0.08
9 15 10 0.73 0.03
9 15 12 0.01 0.03
9 15 14 1.52 0.04
9 16 9 1.08 0.05
9 16 11 2.58 0.05
9 16 13 1.59 0.04
9 16 15 3.42 0.06
9 17 10 3.28 0.05
9 17 12 3.47 0.06
9 17 14 1.04 0.04
9 17 16 0.78 0.03
9 18 9 2.01 0.06
9 18 11 0.34 0.04
9 18 13 0.43 0.04
9 18 15 1.82 0.04
9 18 17 3.15 0.05
9 19 10 2.17 0.05
9 19 12 1.47 0.04
9 19 14 0.89 0.04
9 19 16 0.01 0.04
9 19 18 2.18 0.03
9 20 9 10.26 0.18
9 20 11 0.4 0.04
9 20 13 0.14 0.03
9 20 15 2.03 0.04
9 20 17 2.68 0.04
9 20 19 4.68 0.08
9 21 10 6.97 0.09
9 21 12 2.77 0.05
9 21 14 2.09 0.04
9 21 16 1.39 0.03
9 21 18 0.12 0.02
9 21 20 1.06 0.03
9 22 9 9.99 0.18
9 22 11 1.78 0.04
9 22 13 0.19 0.02
9 22 15 3.42 0.05
9 22 17 3.32 0.05
9 22 19 3.19 0.07
9 22 21 1.86 0.06
9 23 10 0.01 0.03
9 23 12 0.1 0.03
9 23 14 0.21 0.02
9 23 16 0.08 0.02
9 23 18 0.05 0.03
9 23 20 0.01 0.03
9 23 22 0.56 0.03
9 24 9 13.24 0.16
9 24 11 1.61 0.04
9 24 13 0.01 0.02
9 24 15 1.65 0.03
9 24 17 2.93 0.04
9 24 19 3.57 0.06
9 24 21 1.47 0.04
9 24 23 1.19 0.03
9 25 10 0.07 0.03
9 25 12 0.22 0.02
9 25 14 0.55 0.02
9 25 16 0.62 0.02
9 25 18 0.89 0.03
9 25 20 1.05 0.04
9 25 22 0.73 0.03
9 25 24 0.01 0.03
9 26 9 9.5 0.13
9 26 11 1.02 0.03
9 26 13 0.09 0.02
9 26 15 0.3 0.02
9 26 17 1.69 0.03
9 26 19 3.59 0.06
9 26 21 1.45 0.04
9 26 23 1.14 0.03
9 26 25 0.16 0.03
9 27 10 0.48 0.02
9 27 12 1 0.03
9 27 14 0.18 0.02
9 27 16 0.08 0.03
9 27 18 0.63 0.03
9 27 20 0.66 0.03
9 27 22 1.52 0.04
9 27 24 0.56 0.03
9 27 26 0.02 0.03
9 28 9 4.02 0.08
9 28 11 1.54 0.03
9 28 13 0.46 0.03
9 28 15 0.02 0.03
9 28 17 0.58 0.03
9 28 19 1.48 0.04
9 28 21 1.3 0.04
9 28 23 0.99 0.03
9 28 25 0.37 0.03
9 28 27 0.1 0.03
9 29 10 0.95 0.03
9 29 12 1.14 0.03
9 29 14 0.22 0.03
9 29 16 0.07 0.03
9 29 18 0.46 0.03
9 29 20 0.85 0.03
9 29 22 1.42 0.04
9 29 24 1.33 0.04
9 29 26 0.49 0.03
9 29 28 0.03 0.03
9 30 9 1.79 0.05
9 30 11 1.28 0.03
9 30 13 0.43 0.03
9 30 15 0.06 0.03
9 30 17 0.15 0.03
9 30 19 0.57 0.03
9 30 21 0.75 0.03
9 30 23 1.3 0.04
9 30 25 0.62 0.03
9 30 27 0.31 0.03
9 30 29 0.04 0.03
9 31 10 0.01 0.03
9 31 12 0.1 0.03
9 31 14 0.75 0.03
9 31 16 0.47 0.03
9 31 18 0.77 0.03
9 31 20 1.23 0.04
9 31 22 1.23 0.04
9 31 24 0.84 0.03
9 31 26 0.66 0.03
9 31 28 0.24 0.03
9 31 30 0.01 0.03
9 32 9 0.51 0.04
9 32 11 0.11 0.03
9 32 13 0 0.03
9 32 15 0 0.03
9 32 17 0.03 0.03
9 32 19 0.27 0.03
9 32 21 0.12 0.03
9 32 23 0.53 0.03
9 32 25 0.58 0.03
9 32 27 0.33 0.03
9 32 29 0.07 0.03
9 32 31 0.01 0.03
9 33 10 0.08 0.03
9 33 12 0.38 0.03
9 33 14 0.19 0.03
9 33 16 0.14 0.03
9 33 18 0.17 0.03
9 33 20 0.03 0.03
9 33 22 0.09 0.03
9 33 24 0.12 0.03
9 33 26 0.17 0.03
9 33 28 0.15 0.03
9 33 30 0.09 0.03
9 34 9 1.32 0.05
9 34 11 0.93 0.04
9 34 13 0.11 0.03
9 34 15 0.03 0.03
9 34 17 0 0.03
9 34 19 0.08 0.03
9 34 21 0.09 0.03
9 34 23 0 0.03
9 34 25 0.03 0.03
9 34 27 0.09 0.03
9 34 29 0.08 0.03
9 35 10 1.08 0.04
9 35 12 0.81 0.04
9 35 14 0.41 0.04
9 35 16 0.06 0.03
9 35 18 0.08 0.04
9 35 20 0.22 0.03
9 35 22 0.26 0.03
9 35 24 0.16 0.03
9 35 26 0 0.03
9 35 28 0.04 0.04
9 36 9 4.8 0.13
9 36 11 2.41 0.07
9 36 13 0.46 0.04
9 36 15 0.03 0.03
9 36 17 0.29 0.03
9 36 19 0.66 0.03
9 36 21 1.07 0.03
9 36 23 0.68 0.03
9 36 25 0.21 0.03
9 36 27 0 0.11
9 37 10 2.5 0.12
9 37 12 1.68 0.06
9 37 14 0.87 0.04
9 37 16 0.02 0.04
9 37 18 0.23 0.03
9 37 20 0.81 0.03
9 37 22 1.12 0.04
9 37 24 0.66 0.03
9 38 9 3.48 0.13
9 38 11 2.21 0.07
9 38 13 0.67 0.04
9 38 15 0 0.03
9 38 17 0.36 0.03
9 38 19 0.95 0.03
9 38 21 1.66 0.06
9 38 23 1.44 0.09
9 39 10 1.2 0.06
9 39 12 0.82 0.04
9 39 14 0.14 0.04
9 39 16 0.06 0.03
9 39 18 0.62 0.03
9 39 20 1.47 0.07
9 39 22 1.98 0.12
9 40 9 1.94 0.12
9 40 11 1.55 0.05
9 40 13 0.47 0.03
9 40 15 0 0.03
9 40 17 0.19 0.03
9 40 19 0.65 0.04
9 41 10 1.64 0.06
9 41 12 0.88 0.04
9 41 14 0.1 0.03
9 41 16 0 0.04
9 41 18 0.24 0.05
9 42 9 1.24 0.12
9 42 11 0.7 0.04
9 42 13 0.11 0.03
9 42 15 0.01 0.05
9 43 10 0.08 0.04
9 43 12 0.01 0.04
9 44 9 0.12 0.07
10 10 10 14.86 0.32
10 11 11 1.18 0.11
10 12 10 0.31 0.04
10 12 12 0.04 0.04
10 13 11 0.89 0.04
10 13 13 7.95 0.16
10 14 10 0.23 0.04
10 14 12 0.82 0.04
10 14 14 2.04 0.07
10 15 11 3.77 0.06
10 15 13 12.89 0.14
10 15 15 21.33 0.3
10 16 10 3.43 0.06
10 16 12 10.33 0.12
10 16 14 10.05 0.11
10 16 16 4.88 0.1
10 17 11 5.26 0.07
10 17 13 11.11 0.11
10 17 15 10.2 0.11
10 17 17 25.31 0.3
10 18 10 8.9 0.15
10 18 12 21.46 0.21
10 18 14 8.84 0.09
10 18 16 12.23 0.12
10 18 18 0.85 0.04
10 19 11 9.77 0.1
10 19 13 4.53 0.07
10 19 15 14.22 0.14
10 19 17 1.71 0.03
10 19 19 7.8 0.11
10 20 10 31.6 0.42
10 20 12 20.64 0.18
10 20 14 20.1 0.18
10 20 16 0.48 0.02
10 20 18 0.08 0.02
10 20 20 6.84 0.12
10 21 11 4.31 0.05
10 21 13 9.33 0.09
10 21 15 0.86 0.03
10 21 17 3.53 0.05
10 21 19 0.08 0.03
10 21 21 2.8 0.11
10 22 10 9.63 0.15
10 22 12 16.33 0.13
10 22 14 0.87 0.03
10 22 16 0.17 0.02
10 22 18 2.99 0.05
10 22 20 1.78 0.04
10 22 22 26.88 0.36
10 23 11 3.22 0.04
10 23 13 0.04 0.02
10 23 15 0.81 0.03
10 23 17 0.34 0.03
10 23 19 0.78 0.03
10 23 21 3.89 0.07
10 23 23 0.06 0.04
10 24 10 15.84 0.17
10 24 12 4.99 0.07
10 24 14 2.16 0.03
10 24 16 0.05 0.02
10 24 18 0.34 0.03
10 24 20 7.18 0.09
10 24 22 4.78 0.07
10 24 24 12.97 0.22
10 25 11 0.21 0.02
10 25 13 0.02 0.02
10 25 15 0 0.02
10 25 17 0.05 0.03
10 25 19 1.07 0.03
10 25 21 1.21 0.04
10 25 23 5.35 0.09
10 25 25 0.86 0.05
10 26 10 0.7 0.04
10 26 12 0.43 0.02
10 26 14 0.13 0.02
10 26 16 0.59 0.03
10 26 18 4.46 0.07
10 26 20 4.69 0.07
10 26 22 8.45 0.12
10 26 24 3.11 0.06
10 26 26 3.58 0.09
10 27 11 0.62 0.02
10 27 13 0.55 0.03
10 27 15 0.09 0.03
10 27 17 1.43 0.04
10 27 19 1.92 0.05
10 27 21 2.8 0.06
10 27 23 1.87 0.06
10 27 25 1.5 0.04
10 27 27 0.11 0.04
10 28 10 0.1 0.04
10 28 12 0.08 0.03
10 28 14 0.11 0.03
10 28 16 3.63 0.06
10 28 18 3.87 0.07
10 28 20 2.42 0.05
10 28 22 2.29 0.05
10 28 24 0.87 0.03
10 28 26 0.16 0.03
10 28 28 0.16 0.04
10 29 11 0.14 0.03
10 29 13 0.4 0.03
10 29 15 2.62 0.06
10 29 17 1.31 0.04
10 29 19 1.32 0.04
10 29 21 1.11 0.03
10 29 23 0.61 0.03
10 29 25 0.11 0.03
10 29 27 0.1 0.03
10 29 29 1.4 0.05
10 30 10 1.01 0.05
10 30 12 0.69 0.03
10 30 14 0.33 0.03
10 30 16 0.11 0.03
10 30 18 0.96 0.03
10 30 20 0.12 0.03
10 30 22 0.18 0.03
10 30 24 0.13 0.03
10 30 26 0.41 0.03
10 30 28 1.73 0.04
10 30 30 1.48 0.05
10 31 11 0.31 0.03
10 31 13 2.1 0.05
10 31 15 0.54 0.03
10 31 17 2.35 0.05
10 31 19 0.38 0.03
10 31 21 0.42 0.03
10 31 23 0.1 0.03
10 31 25 0.05 0.03
10 31 27 1.02 0.03
10 31 29 1.3 0.04
10 31 31 2.95 0.09
10 32 10 0.1 0.04
10 32 12 0.23 0.03
10 32 14 0.02 0.03
10 32 16 1.1 0.03
10 32 18 0.03 0.03
10 32 20 0.11 0.03
10 32 22 0.4 0.03
10 32 24 0.18 0.03
10 32 26 1.89 0.06
10 32 28 1.84 0.05
10 32 30 2.82 0.07
10 33 11 0.21 0.03
10 33 13 0.01 0.03
10 33 15 2.35 0.06
10 33 17 0.35 0.03
10 33 19 1.02 0.03
10 33 21 0.09 0.03
10 33 23 0 0.03
10 33 25 1.49 0.04
10 33 27 1.17 0.03
10 33 29 1.96 0.05
10 34 10 0.88 0.05
10 34 12 0 0.03
10 34 14 1.71 0.05
10 34 16 0.02 0.03
10 34 18 0.82 0.04
10 34 20 0.13 0.03
10 34 22 0.01 0.03
10 34 24 1.83 0.05
10 34 26 1.15 0.04
10 34 28 1.94 0.05
10 35 11 0.46 0.04
10 35 13 1.12 0.04
10 35 15 0.01 0.03
10 35 17 1.76 0.04
10 35 19 0.12 0.03
10 35 21 0.13 0.03
10 35 23 0.96 0.03
10 35 25 0.64 0.03
10 35 27 1.7 0.06
10 36 10 0.05 0.05
10 36 12 0.37 0.04
10 36 14 0.18 0.04
10 36 16 0.93 0.04
10 36 18 0.04 0.03
10 36 20 0.03 0.03
10 36 22 0.79 0.03
10 36 24 0.6 0.03
10 36 26 1.55 0.09
10 37 11 0.12 0.04
10 37 13 0.17 0.04
10 37 15 1.03 0.04
10 37 17 0.1 0.03
10 37 19 0.24 0.03
10 37 21 0.16 0.03
10 37 23 0.2 0.03
10 37 25 1.16 0.08
10 38 10 0.25 0.06
10 38 12 0.07 0.04
10 38 14 0.32 0.03
10 38 16 0.01 0.03
10 38 18 0.4 0.03
10 38 20 0 0.03
10 38 22 0.06 0.03
10 39 11 0.99 0.04
10 39 13 0 0.03
10 39 15 0 0.03
10 39 17 0.32 0.03
10 39 19 0 0.03
10 39 21 0.04 0.05
10 40 10 0.83 0.06
10 40 12 0.2 0.04
10 40 14 0.17 0.03
10 40 16 0.02 0.03
10 40 18 0.03 0.03
10 40 20 0 0.05
10 41 11 0.24 0.03
10 41 13 0.13 0.03
10 41 15 0.01 0.04
10 41 17 0 0.04
10 42 10 0.06 0.06
10 42 12 0.15 0.04
10 42 14 0.01 0.04
10 43 11 0.11 0.05
11 12 11 5.39 0.13
11 13 12 0.27 0.03
11 14 11 1.66 0.08
11 14 13 0.54 0.04
11 15 12 2.96 0.05
11 15 14 0.26 0.04
11 16 11 0.2 0.05
11 16 13 0.14 0.04
11 16 15 0.16 0.04
11 17 12 7.36 0.09
11 17 14 2.51 0.04
11 17 16 0.06 0.03
11 18 11 0.33 0.05
11 18 13 0.5 0.04
11 18 15 0.57 0.04
11 18 17 1.79 0.04
11 19 12 9.17 0.1
11 19 14 3.94 0.07
11 19 16 0.48 0.03
11 19 18 0.73 0.02
11 20 11 0.1 0.05
11 20 13 1.41 0.04
11 20 15 2.33 0.04
11 20 17 3.17 0.05
11 20 19 3.15 0.07
11 21 12 3.11 0.05
11 21 14 1.23 0.03
11 21 16 0.3 0.02
11 21 18 0.03 0.02
11 21 20 2.01 0.07
11 22 11 0.46 0.03
11 22 13 1.04 0.03
11 22 15 3.37 0.04
11 22 17 3.86 0.06
11 22 19 2.53 0.06
11 22 21 3.27 0.09
11 23 12 4.01 0.04
11 23 14 2.06 0.03
11 23 16 0.96 0.03
11 23 18 0.47 0.03
11 23 20 0.02 0.03
11 23 22 0.52 0.03
11 24 11 0.21 0.03
11 24 13 0.48 0.02
11 24 15 1.66 0.03
11 24 17 2.33 0.05
11 24 19 1.58 0.05
11 24 21 1.45 0.04
11 24 23 0.52 0.03
11 25 12 0.17 0.02
11 25 14 0.35 0.02
11 25 16 0.25 0.03
11 25 18 0.07 0.03
11 25 20 0.03 0.03
11 25 22 0.16 0.03
11 25 24 0.31 0.03
11 26 11 0.36 0.03
11 26 13 0.01 0.02
11 26 15 0.07 0.03
11 26 17 0.45 0.03
11 26 19 0.5 0.03
11 26 21 0.51 0.03
11 26 23 0.25 0.03
11 26 25 0.43 0.03
11 27 12 1.58 0.03
11 27 14 1.3 0.03
11 27 16 0.31 0.03
11 27 18 0.01 0.03
11 27 20 0.01 0.03
11 27 22 0.2 0.03
11 27 24 0.18 0.03
11 27 26 0 0.03
11 28 11 2.56 0.04
11 28 13 1.03 0.03
11 28 15 0.24 0.03
11 28 17 0 0.03
11 28 19 0.03 0.03
11 28 21 0.58 0.03
11 28 23 0.45 0.03
11 28 25 0.91 0.03
11 28 27 0.23 0.03
11 29 12 0.39 0.03
11 29 14 0.2 0.03
11 29 16 0.05 0.03
11 29 18 0.19 0.03
11 29 20 0.56 0.03
11 29 22 0.87 0.03
11 29 24 1.35 0.04
11 29 26 0.56 0.03
11 29 28 0.01 0.03
11 30 11 3.65 0.08
11 30 13 2.09 0.05
11 30 15 0.53 0.03
11 30 17 0.26 0.03
11 30 19 0.05 0.03
11 30 21 0.3 0.03
11 30 23 0.86 0.03
11 30 25 1.12 0.03
11 30 27 0.61 0.03
11 30 29 0.15 0.03
11 31 12 0.22 0.03
11 31 14 0.03 0.03
11 31 16 0.02 0.03
11 31 18 0.01 0.04
11 31 20 0.33 0.03
11 31 22 0.6 0.03
11 31 24 0.86 0.03
11 31 26 0.86 0.03
11 31 28 0.39 0.03
11 31 30 0.01 0.03
11 32 11 1.12 0.05
11 32 13 0.93 0.04
11 32 15 1.22 0.04
11 32 17 0.77 0.03
11 32 19 0.27 0.03
11 32 21 0 0.03
11 32 23 0.22 0.03
11 32 25 0.84 0.04
11 32 27 0.72 0.03
11 32 29 0.27 0.03
11 32 31 0.05 0.05
11 33 12 0.19 0.03
11 33 14 0.52 0.03
11 33 16 0.33 0.03
11 33 18 0.16 0.03
11 33 20 0.1 0.03
11 33 22 0.01 0.03
11 33 24 0.25 0.03
11 33 26 0.49 0.03
11 33 28 0.49 0.03
11 34 11 0 0.05
11 34 13 0.43 0.03
11 34 15 0.77 0.04
11 34 17 0.91 0.04
11 34 19 1.2 0.04
11 34 21 0.39 0.03
11 34 23 0.01 0.03
11 34 25 0.17 0.03
11 34 27 0.43 0.03
11 35 12 0.15 0.04
11 35 14 0 0.03
11 35 16 0.02 0.03
11 35 18 0.27 0.04
11 35 20 0.26 0.03
11 35 22 0.06 0.03
11 35 24 0.01 0.03
11 35 26 0.2 0.03
11 36 11 0.19 0.05
11 36 13 0.02 0.04
11 36 15 0.2 0.04
11 36 17 0.74 0.03
11 36 19 1 0.04
11 36 21 0.73 0.03
11 36 23 0.27 0.03
11 36 25 0 0.03
11 37 12 0.07 0.04
11 37 14 0.01 0.03
11 37 16 0.08 0.03
11 37 18 0.47 0.03
11 37 20 0.83 0.03
11 37 22 0.56 0.03
11 37 24 0.17 0.03
11 38 11 0.52 0.05
11 38 13 0.13 0.04
11 38 15 0.01 0.04
11 38 17 0.3 0.03
11 38 19 0.66 0.03
11 38 21 0.74 0.03
11 38 23 0.53 0.07
11 39 12 0.73 0.04
11 39 14 0.22 0.03
11 39 16 0 0.03
11 39 18 0.09 0.03
11 39 20 0.36 0.04
11 40 11 0.77 0.05
11 40 13 0.35 0.03
11 40 15 0.02 0.03
11 40 17 0.03 0.03
11 40 19 0.24 0.04
11 41 12 0.1 0.03
11 41 14 0.01 0.03
11 41 16 0 0.04
11 42 11 0.28 0.06
11 42 13 0.12 0.04
12 12 12 0.69 0.09
12 13 13 3.29 0.09
12 14 12 7.41 0.13
12 14 14 18.68 0.26
12 15 13 12.44 0.14
12 15 15 22.05 0.29
12 16 12 22.35 0.34
12 16 14 28.2 0.24
12 16 16 17.06 0.19
12 17 13 16.27 0.16
12 17 15 16.09 0.14
12 17 17 30.18 0.32
12 18 12 35.25 0.45
12 18 14 23.57 0.21
12 18 16 22.64 0.19
12 18 18 0.19 0.04
12 19 13 9.04 0.1
12 19 15 20.62 0.17
12 19 17 4.31 0.05
12 19 19 11.35 0.14
12 20 12 16.53 0.23
12 20 14 20.16 0.19
12 20 16 0.55 0.03
12 20 18 0.1 0.03
12 20 20 7.41 0.12
12 21 13 10.28 0.11
12 21 15 1.6 0.04
12 21 17 4.4 0.06
12 21 19 1.07 0.03
12 21 21 3.69 0.11
12 22 12 19.91 0.23
12 22 14 3.04 0.06
12 22 16 1.05 0.03
12 22 18 0.47 0.03
12 22 20 1.37 0.03
12 22 22 19.4 0.31
12 23 13 0.33 0.02
12 23 15 0.7 0.03
12 23 17 0.41 0.03
12 23 19 0.66 0.03
12 23 21 4.33 0.09
12 23 23 0.79 0.05
12 24 12 0.04 0.03
12 24 14 0.33 0.02
12 24 16 1.34 0.03
12 24 18 2.44 0.04
12 24 20 15.88 0.17
12 24 22 8.55 0.11
12 24 24 20.02 0.28
12 25 13 0.01 0.02
12 25 15 0.03 0.02
12 25 17 0.03 0.03
12 25 19 2.26 0.06
12 25 21 2.42 0.06
12 25 23 6.47 0.1
12 25 25 1.03 0.05
12 26 12 0.19 0.04
12 26 14 0.94 0.03
12 26 16 1.34 0.03
12 26 18 5 0.07
12 26 20 7.17 0.09
12 26 22 7.25 0.1
12 26 24 3.68 0.06
12 26 26 1.46 0.08
12 27 13 0.92 0.03
12 27 15 0.49 0.03
12 27 17 2.69 0.06
12 27 19 3.15 0.06
12 27 21 3.12 0.06
12 27 23 1.97 0.06
12 27 25 0.7 0.03
12 27 27 0.21 0.04
12 28 12 0.03 0.05
12 28 14 0.12 0.03
12 28 16 3.11 0.06
12 28 18 2.75 0.06
12 28 20 2.83 0.05
12 28 22 1.83 0.04
12 28 24 0.81 0.03
12 28 26 0.08 0.03
12 28 28 1.11 0.05
12 29 13 1 0.03
12 29 15 4.82 0.09
12 29 17 3.12 0.06
12 29 19 2.78 0.06
12 29 21 1.92 0.04
12 29 23 0.76 0.03
12 29 25 0 0.03
12 29 27 1.21 0.04
12 29 29 3.76 0.1
12 30 12 0.04 0.04
12 30 14 2.16 0.06
12 30 16 1.31 0.04
12 30 18 1.87 0.04
12 30 20 1.21 0.04
12 30 22 0.56 0.03
12 30 24 0.03 0.03
12 30 26 1.15 0.03
12 30 28 3.03 0.06
12 30 30 2.65 0.09
12 31 13 3.04 0.07
12 31 15 2.33 0.06
12 31 17 4.93 0.08
12 31 19 2.3 0.06
12 31 21 1.72 0.05
12 31 23 0 0.03
12 31 25 0.16 0.03
12 31 27 1.96 0.05
12 31 29 2.76 0.06
12 31 31 4.22 0.14
12 32 12 2.6 0.07
12 32 14 1.45 0.04
12 32 16 4.16 0.08
12 32 18 1.05 0.04
12 32 20 1.44 0.04
12 32 22 0.02 0.03
12 32 24 0.04 0.03
12 32 26 2.16 0.05
12 32 28 2.63 0.06
12 32 30 3.64 0.09
12 33 13 0.24 0.03
12 33 15 4.24 0.08
12 33 17 1.76 0.06
12 33 19 3 0.06
12 33 21 0.12 0.03
12 33 23 0.07 0.03
12 33 25 1.25 0.04
12 33 27 1.51 0.05
12 33 29 2.63 0.08
12 34 12 0.03 0.05
12 34 14 1.53 0.04
12 34 16 0.07 0.03
12 34 18 0.76 0.04
12 34 20 0.05 0.03
12 34 22 0.01 0.03
12 34 24 1.64 0.05
12 34 26 1.44 0.05
12 34 28 2.48 0.08
12 35 13 1.46 0.04
12 35 15 0.38 0.03
12 35 17 2.59 0.07
12 35 19 0.32 0.03
12 35 21 0.29 0.03
12 35 23 0.6 0.03
12 35 25 0.58 0.03
12 35 27 1.55 0.1
12 36 12 1.42 0.07
12 36 14 0.07 0.03
12 36 16 1.53 0.04
12 36 18 0.12 0.03
12 36 20 0.14 0.03
12 36 22 0.39 0.03
12 36 24 0.25 0.03
12 37 13 0.03 0.04
12 37 15 1.39 0.04
12 37 17 0.18 0.03
12 37 19 0.23 0.03
12 37 21 0.08 0.03
12 37 23 0.14 0.03
12 38 12 0.19 0.05
12 38 14 0.09 0.04
12 38 16 0.07 0.03
12 38 18 0.02 0.03
12 38 20 0.16 0.03
12 38 22 0.25 0.04
12 39 13 0 0.03
12 39 15 0 0.03
12 39 17 0.16 0.03
12 39 19 0.02 0.03
12 40 12 0.03 0.05
12 40 14 0.02 0.03
12 40 16 0.02 0.03
12 40 18 0.06 0.04
12 41 13 0.09 0.03
12 41 15 0 0.04
12 42 12 0.25 0.07
12 42 14 0.05 0.11
13 14 13 0.8 0.06
13 15 14 4.99 0.07
13 16 13 0.15 0.05
13 16 15 0.5 0.03
13 17 14 8.97 0.1
13 17 16 0.82 0.03
13 18 13 0.3 0.05
13 18 15 0.3 0.03
13 18 17 0.63 0.03
13 19 14 5.63 0.07
13 19 16 0.6 0.03
13 19 18 0.9 0.03
13 20 13 2.04 0.04
13 20 15 2.32 0.04
13 20 17 2.29 0.04
13 20 19 3.18 0.05
13 21 14 6.92 0.08
13 21 16 2.15 0.04
13 21 18 0.08 0.03
13 21 20 0.6 0.03
13 22 13 2.66 0.06
13 22 15 3.25 0.05
13 22 17 2.63 0.05
13 22 19 2.47 0.05
13 22 21 1.11 0.08
13 23 14 0.09 0.02
13 23 16 0.04 0.03
13 23 18 0.35 0.03
13 23 20 0.64 0.03
13 23 22 1.41 0.03
13 24 13 0.87 0.03
13 24 15 1.17 0.03
13 24 17 1.1 0.03
13 24 19 1.48 0.06
13 24 21 0.45 0.03
13 24 23 1.06 0.03
13 25 14 0.07 0.02
13 25 16 0.11 0.03
13 25 18 0.06 0.03
13 25 20 0.04 0.03
13 25 22 0.11 0.03
13 25 24 0.19 0.03
13 26 13 0.06 0.04
13 26 15 0.01 0.03
13 26 17 0.02 0.03
13 26 19 0.34 0.03
13 26 21 0.1 0.03
13 26 23 0.52 0.03
13 26 25 0.27 0.03
13 27 14 0.66 0.03
13 27 16 0.27 0.03
13 27 18 0.02 0.03
13 27 20 0 0.03
13 27 22 0.04 0.03
13 27 24 0.01 0.03
13 27 26 0.05 0.03
13 28 13 1.44 0.05
13 28 15 1.2 0.03
13 28 17 0.49 0.03
13 28 19 0.04 0.03
13 28 21 0.02 0.03
13 28 23 0.31 0.03
13 28 25 0.53 0.03
13 28 27 0.44 0.03
13 29 14 1.14 0.04
13 29 16 0.35 0.03
13 29 18 0.08 0.03
13 29 20 0.03 0.03
13 29 22 0.2 0.03
13 29 24 0.56 0.03
13 29 26 0.18 0.03
13 29 28 0 0.03
13 30 13 3.79 0.1
13 30 15 3.12 0.07
13 30 17 2.76 0.06
13 30 19 0.88 0.03
13 30 21 0.07 0.03
13 30 23 0.26 0.03
13 30 25 0.48 0.03
13 30 27 0.7 0.03
13 30 29 0.22 0.03
13 31 14 2.9 0.07
13 31 16 2.59 0.06
13 31 18 1.11 0.03
13 31 20 0.08 0.03
13 31 22 0.07 0.03
13 31 24 0.39 0.03
13 31 26 0.63 0.03
13 31 28 0.4 0.03
13 31 30 0.03 0.03
13 32 13 2.92 0.09
13 32 15 4.78 0.08
13 32 17 3.96 0.08
13 32 19 1.44 0.04
13 32 21 0.37 0.03
13 32 23 0.05 0.03
13 32 25 0.58 0.03
13 32 27 1.12 0.05
13 32 29 0.57 0.03
13 33 14 0.94 0.04
13 33 16 0.84 0.03
13 33 18 0.33 0.03
13 33 20 0.07 0.03
13 33 22 0.08 0.03
13 33 24 0.59 0.03
13 33 26 1.15 0.03
13 33 28 1.12 0.05
13 34 13 2.67 0.09
13 34 15 3.86 0.08
13 34 17 3.44 0.07
13 34 19 2.18 0.06
13 34 21 0.61 0.03
13 34 23 0 0.03
13 34 25 0.41 0.03
13 34 27 1.01 0.03
13 35 14 1.75 0.04
13 35 16 1.63 0.05
13 35 18 1.47 0.04
13 35 20 0.66 0.03
13 35 22 0.11 0.03
13 35 24 0.03 0.03
13 35 26 0.36 0.03
13 36 13 0.83 0.06
13 36 15 1.55 0.05
13 36 17 1.9 0.06
13 36 19 1.27 0.05
13 36 21 0.5 0.03
13 36 23 0.02 0.03
13 36 25 0.17 0.04
13 37 14 0 0.03
13 37 16 0.07 0.03
13 37 18 0.15 0.03
13 37 20 0.07 0.03
13 37 22 0 0.03
13 38 13 0.01 0.05
13 38 15 0.21 0.03
13 38 17 0.43 0.03
13 38 19 0.4 0.03
13 38 21 0.2 0.04
13 39 14 0.02 0.03
13 39 16 0.06 0.03
13 39 18 0.05 0.03
13 39 20 0.02 0.06
13 40 13 0.11 0.05
13 40 15 0.01 0.03
13 40 17 0 0.04
13 41 14 0.06 0.04
14 14 14 35.1 0.69
14 15 15 11.27 0.14
14 16 14 36.79 0.37
14 16 16 22.68 0.22
14 17 15 10.52 0.09
14 17 17 20.87 0.2
14 18 14 19.05 0.23
14 18 16 17.85 0.14
14 18 18 0.03 0.04
14 19 15 15.91 0.13
14 19 17 2.95 0.04
14 19 19 7.75 0.12
14 20 14 24.58 0.29
14 20 16 2.39 0.04
14 20 18 0.54 0.03
14 20 20 0.68 0.04
14 21 15 1.46 0.03
14 21 17 3.52 0.05
14 21 19 1.16 0.03
14 21 21 3.44 0.1
14 22 14 0.04 0.03
14 22 16 0.08 0.03
14 22 18 2.06 0.04
14 22 20 0.62 0.03
14 22 22 19.1 0.33
14 23 15 0.59 0.03
14 23 17 0.65 0.03
14 23 19 0.86 0.03
14 23 21 2.65 0.07
14 23 23 0.33 0.05
14 24 14 0.45 0.04
14 24 16 0.32 0.03
14 24 18 0.96 0.03
14 24 20 6.23 0.1
14 24 22 5.02 0.08
14 24 24 8.6 0.15
14 25 15 0 0.03
14 25 17 0 0.03
14 25 19 1.75 0.04
14 25 21 1.48 0.04
14 25 23 3.54 0.06
14 25 25 0.25 0.04
14 26 14 1.19 0.04
14 26 16 0.66 0.03
14 26 18 3.51 0.06
14 26 20 2.91 0.05
14 26 22 4.53 0.07
14 26 24 1.3 0.03
14 26 26 0.71 0.05
14 27 15 0.4 0.03
14 27 17 2.77 0.05
14 27 19 3.12 0.06
14 27 21 2.26 0.05
14 27 23 1.13 0.03
14 27 25 0.13 0.03
14 27 27 0.8 0.04
14 28 14 0.61 0.04
14 28 16 3.36 0.06
14 28 18 3.11 0.06
14 28 20 1.49 0.04
14 28 22 1.41 0.04
14 28 24 0.19 0.03
14 28 26 0.23 0.03
14 28 28 1.61 0.05
14 29 15 5.86 0.09
14 29 17 4.72 0.08
14 29 19 4.06 0.07
14 29 21 2.59 0.06
14 29 23 0.9 0.03
14 29 25 0.04 0.03
14 29 27 1.57 0.06
14 29 29 3.55 0.1
14 30 14 8 0.17
14 30 16 5.31 0.08
14 30 18 5.41 0.08
14 30 20 2.49 0.06
14 30 22 1.43 0.04
14 30 24 0 0.03
14 30 26 0.79 0.03
14 30 28 2.79 0.06
14 30 30 2.4 0.08
14 31 15 3.43 0.07
14 31 17 6.31 0.1
14 31 19 3.85 0.07
14 31 21 2.6 0.06
14 31 23 0.07 0.03
14 31 25 0.16 0.03
14 31 27 1.89 0.05
14 31 29 2.69 0.06
14 32 14 1.5 0.06
14 32 16 3.59 0.07
14 32 18 1.38 0.04
14 32 20 1.23 0.04
14 32 22 0 0.03
14 32 24 0.07 0.03
14 32 26 1.58 0.05
14 32 28 2.42 0.06
14 33 15 5.77 0.1
14 33 17 3.29 0.07
14 33 19 4.52 0.08
14 33 21 0.47 0.03
14 33 23 0.2 0.03
14 33 25 0.75 0.03
14 33 27 1.09 0.05
14 34 14 5.12 0.12
14 34 16 1.52 0.04
14 34 18 2.74 0.06
14 34 20 0.16 0.03
14 34 22 0.26 0.03
14 34 24 0.37 0.03
14 34 26 0.28 0.03
14 35 15 0.82 0.04
14 35 17 3.2 0.07
14 35 19 0.65 0.03
14 35 21 0.48 0.03
14 35 23 0.23 0.03
14 35 25 0.21 0.03
14 36 14 0.11 0.05
14 36 16 0.35 0.03
14 36 18 0.04 0.03
14 36 20 0.02 0.03
14 36 22 0.69 0.03
14 36 24 0.35 0.03
14 37 15 1.3 0.05
14 37 17 0.24 0.03
14 37 19 0.31 0.03
14 37 21 0.02 0.03
14 37 23 0.03 0.05
14 38 14 0.51 0.05
14 38 16 0 0.03
14 38 18 0.03 0.03
14 38 20 0.08 0.03
14 39 15 0 0.03
14 39 17 0.07 0.03
14 39 19 0.03 0.04
14 40 14 0.1 0.04
14 40 16 0.06 0.03
15 16 15 1.73 0.05
15 17 16 1.68 0.05
15 18 15 0.29 0.05
15 18 17 0.56 0.02
15 19 16 5.24 0.06
15 19 18 0.09 0.03
15 20 15 2.4 0.06
15 20 17 2.79 0.04
15 20 19 0.58 0.03
15 21 16 0.2 0.03
15 21 18 0.36 0.03
15 21 20 1.58 0.04
15 22 15 2.67 0.07
15 22 17 2.89 0.05
15 22 19 0.69 0.03
15 22 21 1.69 0.06
15 23 16 0.23 0.03
15 23 18 0.01 0.03
15 23 20 0.11 0.03
15 23 22 0.34 0.03
15 24 15 0.77 0.04
15 24 17 1.1 0.03
15 24 19 0.47 0.03
15 24 21 0.91 0.04
15 24 23 0.34 0.03
15 25 16 0.04 0.03
15 25 18 0.03 0.03
15 25 20 0.01 0.03
15 25 22 0 0.03
15 25 24 0.06 0.03
15 26 15 0.03 0.04
15 26 17 0.03 0.03
15 26 19 0.03 0.03
15 26 21 0.33 0.03
15 26 23 0.2 0.03
15 26 25 0.17 0.03
15 27 16 0.22 0.03
15 27 18 0 0.03
15 27 20 0.01 0.03
15 27 22 0.08 0.03
15 27 24 0 0.03
15 27 26 0.04 0.03
15 28 15 2.3 0.1
15 28 17 0.95 0.03
15 28 19 0.61 0.03
15 28 21 0 0.03
15 28 23 0 0.03
15 28 25 0.21 0.03
15 28 27 0.18 0.03
15 29 16 3.97 0.07
15 29 18 1.9 0.04
15 29 20 0.43 0.03
15 29 22 0.03 0.03
15 29 24 0.04 0.03
15 29 26 0.01 0.03
15 29 28 0.02 0.03
15 30 15 4.97 0.12
15 30 17 3.87 0.07
15 30 19 2.03 0.05
15 30 21 0.27 0.03
15 30 23 0.01 0.03
15 30 25 0.28 0.03
15 30 27 0.46 0.03
15 30 29 0.25 0.03
15 31 16 3.53 0.07
15 31 18 1.44 0.04
15 31 20 0.16 0.03
15 31 22 0.04 0.03
15 31 24 0.31 0.03
15 31 26 0.57 0.03
15 31 28 0.46 0.03
15 31 30 0.03 0.03
15 32 15 8.84 0.18
15 32 17 6.53 0.1
15 32 19 3.02 0.07
15 32 21 0.63 0.03
15 32 23 0 0.03
15 32 25 0.49 0.03
15 32 27 0.92 0.04
15 32 29 0.59 0.03
15 33 16 4.71 0.08
15 33 18 2.12 0.06
15 33 20 0.77 0.03
15 33 22 0.03 0.03
15 33 24 0.19 0.03
15 33 26 0.67 0.03
15 33 28 0.71 0.04
15 34 15 6.44 0.16
15 34 17 5.08 0.09
15 34 19 2.87 0.06
15 34 21 0.48 0.03
15 34 23 0.01 0.03
15 34 25 0.64 0.03
15 34 27 1.12 0.14
15 35 16 0.89 0.04
15 35 18 0.45 0.03
15 35 20 0.04 0.03
15 35 22 0.12 0.03
15 35 24 0.68 0.03
15 36 15 3.08 0.11
15 36 17 2.82 0.07
15 36 19 1.49 0.06
15 36 21 0.25 0.03
15 36 23 0.02 0.03
15 37 16 1.14 0.04
15 37 18 0.63 0.03
15 37 20 0.15 0.03
15 37 22 0.01 0.04
15 38 15 0.6 0.05
15 38 17 0.58 0.03
15 38 19 0.2 0.03
15 39 16 0 0.03
15 39 18 0.05 0.05
15 40 15 0 0.05
16 16 16 10.12 0.2
16 17 17 7.28 0.11
16 18 16 14.57 0.16
16 18 18 1.59 0.04
16 19 17 0.43 0.03
16 19 19 2.84 0.06
16 20 16 0.88 0.04
16 20 18 0.02 0.03
16 20 20 3.4 0.09
16 21 17 1.74 0.05
16 21 19 0.66 0.03
16 21 21 3.1 0.09
16 22 16 0.07 0.04
16 22 18 0.02 0.03
16 22 20 0 0.03
16 22 22 3.02 0.08
16 23 17 0.95 0.03
16 23 19 1.38 0.04
16 23 21 0.67 0.04
16 23 23 0.11 0.04
16 24 16 0.05 0.04
16 24 18 0.39 0.03
16 24 20 1.32 0.04
16 24 22 0.01 0.03
16 24 24 0.81 0.05
16 25 17 0.11 0.03
16 25 19 0.46 0.03
16 25 21 0.17 0.03
16 25 23 0.6 0.03
16 25 25 0.04 0.04
16 26 16 0.33 0.04
16 26 18 0.52 0.03
16 26 20 0.64 0.03
16 26 22 0.22 0.03
16 26 24 0 0.03
16 26 26 0.04 0.05
16 27 17 2.08 0.04
16 27 19 2.09 0.05
16 27 21 1.14 0.04
16 27 23 0.37 0.03
16 27 25 0.01 0.03
16 27 27 0.55 0.05
16 28 16 8.04 0.15
16 28 18 4.07 0.07
16 28 20 1.99 0.05
16 28 22 0.56 0.03
16 28 24 0.09 0.03
16 28 26 0.18 0.03
16 28 28 0.76 0.04
16 29 17 3.78 0.07
16 29 19 2.91 0.06
16 29 21 1.79 0.04
16 29 23 0.51 0.03
16 29 25 0.05 0.03
16 29 27 0.92 0.03
16 29 29 2 0.08
16 30 16 4.89 0.1
16 30 18 3.41 0.06
16 30 20 1.59 0.04
16 30 22 0.37 0.03
16 30 24 0.03 0.03
16 30 26 0.63 0.03
16 30 28 1.61 0.04
16 30 30 1.44 0.06
16 31 17 6.07 0.09
16 31 19 3.35 0.07
16 31 21 2.24 0.06
16 31 23 0.09 0.03
16 31 25 0.05 0.03
16 31 27 0.87 0.03
16 31 29 1.27 0.06
16 32 16 6.57 0.15
16 32 18 2.6 0.06
16 32 20 2.28 0.05
16 32 22 0.07 0.03
16 32 24 0.07 0.03
16 32 26 0.33 0.03
16 32 28 0.65 0.03
16 33 17 3.04 0.06
16 33 19 3.5 0.07
16 33 21 0.43 0.03
16 33 23 0.28 0.03
16 33 25 0.24 0.03
16 33 27 0.38 0.03
16 34 16 0.49 0.05
16 34 18 0.99 0.04
16 34 20 0 0.03
16 34 22 0.03 0.03
16 34 24 0.27 0.03
16 34 26 0.15 0.05
16 35 17 2.98 0.07
16 35 19 0.64 0.03
16 35 21 0.62 0.03
16 35 23 0.01 0.03
16 35 25 0 0.11
16 36 16 1.65 0.07
16 36 18 0.14 0.03
16 36 20 0.18 0.03
16 36 22 0.05 0.03
16 37 17 0.2 0.03
16 37 19 0.17 0.03
16 37 21 0 0.03
16 38 16 0.28 0.04
16 38 18 0.14 0.03
16 38 20 0.31 0.06
16 39 17 0.02 0.04
17 18 17 0.39 0.03
17 19 18 0.31 0.03
17 20 17 0.47 0.04
17 20 19 1.85 0.05
17 21 18 0.34 0.03
17 21 20 0.03 0.03
17 22 17 1.02 0.05
17 22 19 2 0.05
17 22 21 0.17 0.03
17 23 18 0.51 0.03
17 23 20 0.17 0.03
17 23 22 0.01 0.03
17 24 17 0.25 0.04
17 24 19 1.02 0.03
17 24 21 0.07 0.03
17 24 23 0.01 0.03
17 25 18 0.25 0.03
17 25 20 0.17 0.03
17 25 22 0.13 0.03
17 25 24 0.02 0.03
17 26 17 0.09 0.04
17 26 19 0.03 0.03
17 26 21 0.01 0.03
17 26 23 0.01 0.03
17 26 25 0 0.03
17 27 18 0.64 0.03
17 27 20 0.08 0.03
17 27 22 0.01 0.03
17 27 24 0 0.03
17 27 26 0 0.03
17 28 17 1.15 0.06
17 28 19 0.38 0.03
17 28 21 0.19 0.03
17 28 23 0 0.03
17 28 25 0.04 0.03
17 28 27 0.02 0.03
17 29 18 1.82 0.04
17 29 20 0.23 0.03
17 29 22 0 0.03
17 29 24 0.08 0.03
17 29 26 0.05 0.03
17 29 28 0.01 0.03
17 30 17 4.24 0.1
17 30 19 1.71 0.05
17 30 21 0.59 0.03
17 30 23 0 0.03
17 30 25 0.1 0.03
17 30 27 0.16 0.03
17 30 29 0.07 0.03
17 31 18 3.09 0.06
17 31 20 0.63 0.04
17 31 22 0.03 0.03
17 31 24 0.02 0.03
17 31 26 0.11 0.03
17 31 28 0.15 0.03
17 32 17 6.09 0.14
17 32 19 2.4 0.06
17 32 21 0.64 0.03
17 32 23 0.01 0.03
17 32 25 0.29 0.03
17 32 27 0.55 0.03
17 33 18 1.37 0.04
17 33 20 0.24 0.03
17 33 22 0.02 0.03
17 33 24 0.3 0.03
17 33 26 0.73 0.03
17 34 17 4.89 0.12
17 34 19 2.16 0.05
17 34 21 0.34 0.03
17 34 23 0.07 0.03
17 34 25 0.51 0.03
17 35 18 1.57 0.04
17 35 20 0.26 0.03
17 35 22 0.01 0.03
17 35 24 0.32 0.04
17 36 17 2.42 0.09
17 36 19 0.71 0.03
17 36 21 0.02 0.03
17 37 18 0.05 0.03
17 37 20 0.05 0.04
17 38 17 0.47 0.05
17 38 19 0.02 0.05
18 18 18 4.99 0.18
18 19 19 0.86 0.04
18 20 18 0.02 0.04
18 20 20 0.41 0.05
18 21 19 0.53 0.03
18 21 21 3.36 0.09
18 22 18 0.01 0.05
18 22 20 4.03 0.08
18 22 22 0.22 0.05
18 23 19 1.75 0.04
18 23 21 0 0.03
18 23 23 1.19 0.05
18 24 18 0.77 0.05
18 24 20 0.93 0.03
18 24 22 3.16 0.06
18 24 24 1.28 0.05
18 25 19 0.01 0.03
18 25 21 0.12 0.03
18 25 23 0.03 0.03
18 25 25 0.56 0.04
18 26 18 0.85 0.05
18 26 20 0.08 0.03
18 26 22 0.28 0.03
18 26 24 1.14 0.03
18 26 26 0.25 0.05
18 27 19 0.49 0.03
18 27 21 0.09 0.03
18 27 23 0.01 0.03
18 27 25 0.03 0.03
18 27 27 0.29 0.06
18 28 18 2.3 0.08
18 28 20 0.09 0.03
18 28 22 0.01 0.03
18 28 24 0.18 0.03
18 28 26 0.42 0.03
18 28 28 0.38 0.04
18 29 19 1.35 0.04
18 29 21 0.61 0.03
18 29 23 0.06 0.03
18 29 25 0.06 0.03
18 29 27 0.29 0.03
18 29 29 0.63 0.04
18 30 18 2.99 0.09
18 30 20 0.7 0.03
18 30 22 0.37 0.03
18 30 24 0.01 0.03
18 30 26 0.14 0.03
18 30 28 0.25 0.03
18 31 19 1.72 0.04
18 31 21 1.06 0.04
18 31 23 0.02 0.03
18 31 25 0 0.03
18 31 27 0.13 0.03
18 32 18 1.2 0.05
18 32 20 0.75 0.03
18 32 22 0.02 0.03
18 32 24 0.01 0.03
18 32 26 0.11 0.02
18 33 19 1.92 0.05
18 33 21 0.18 0.03
18 33 23 0.25 0.03
18 33 25 0.01 0.03
18 34 18 1.79 0.06
18 34 20 0.15 0.03
18 34 22 0.42 0.03
18 34 24 0 0.03
18 35 19 0.3 0.03
18 35 21 0.36 0.03
18 35 23 0 0.04
18 36 18 0.02 0.04
18 36 20 0.01 0.03
18 36 22 0.02 0.06
18 37 19 0.08 0.03
18 38 18 0.01 0.06
19 20 19 0.05 0.04
19 21 20 0.24 0.03
19 22 19 0.02 0.05
19 22 21 0.03 0.03
19 23 20 1.65 0.04
19 23 22 0.93 0.04
19 24 19 0.01 0.04
19 24 21 0.01 0.03
19 24 23 0.53 0.03
19 25 20 0.06 0.03
19 25 22 0.2 0.03
19 25 24 0.22 0.03
19 26 19 0.25 0.04
19 26 21 0.07 0.03
19 26 23 0.33 0.03
19 26 25 0.15 0.03
19 27 20 0.01 0.03
19 27 22 0.11 0.03
19 27 24 0.14 0.04
19 27 26 0.14 0.03
19 28 19 0.84 0.06
19 28 21 0.13 0.03
19 28 23 0.15 0.03
19 28 25 0 0.03
19 28 27 0.01 0.04
19 29 20 0.17 0.03
19 29 22 0 0.03
19 29 24 0.09 0.03
19 29 26 0.05 0.03
19 29 28 0 0.03
19 30 19 1.36 0.05
19 30 21 0.18 0.03
19 30 23 0.01 0.03
19 30 25 0.02 0.03
19 30 27 0.02 0.03
19 30 29 0.03 0.06
19 31 20 0.34 0.03
19 31 22 0 0.03
19 31 24 0.07 0.03
19 31 26 0.14 0.02
19 32 19 1.3 0.07
19 32 21 0.09 0.03
19 32 23 0.01 0.03
19 32 25 0.15 0.02
19 33 20 0.61 0.03
19 33 22 0.03 0.03
19 33 24 0.05 0.02
19 34 19 0.98 0.05
19 34 21 0.01 0.03
19 34 23 0.1 0.03
19 35 20 0.01 0.02
19 35 22 0.07 0.03
19 36 19 0.13 0.04
19 36 21 0.06 0.05
20 20 20 0.91 0.16
20 21 21 3.37 0.16
20 22 20 10.93 0.21
20 22 22 9.33 0.17
20 23 21 0.32 0.03
20 23 23 2.58 0.09
20 24 20 1.21 0.07
20 24 22 8.47 0.12
20 24 24 3.26 0.1
20 25 21 0.74 0.03
20 25 23 0.65 0.03
20 25 25 1.48 0.11
20 26 20 0.96 0.05
20 26 22 3.72 0.07
20 26 24 3.57 0.08
20 26 26 1.93 0.08
20 27 21 0.14 0.03
20 27 23 0.48 0.03
20 27 25 0.46 0.03
20 27 27 0.59 0.04
20 28 20 0.03 0.04
20 28 22 0.77 0.03
20 28 24 0.77 0.03
20 28 26 0.82 0.03
20 28 28 0.11 0.04
20 29 21 0.03 0.03
20 29 23 0.02 0.03
20 29 25 0.11 0.03
20 29 27 0.1 0.03
20 29 29 0.03 0.06
20 30 20 0.32 0.05
20 30 22 0 0.03
20 30 24 0.08 0.03
20 30 26 0.13 0.03
20 30 28 0 0.03
20 31 21 0.3 0.03
20 31 23 0 0.03
20 31 25 0 0.02
20 31 27 0 0.04
20 32 20 1.14 0.05
20 32 22 0.05 0.03
20 32 24 0.14 0.02
20 32 26 0.01 0.05
20 33 21 0.04 0.03
20 33 23 0.21 0.02
20 34 20 0.03 0.04
20 34 22 0.17 0.03
20 35 21 0.15 0.03
20 36 20 0.19 0.06
21 22 21 2.36 0.18
21 23 22 0.63 0.03
21 24 21 1.65 0.05
21 24 23 0.71 0.03
21 25 22 1.38 0.05
21 25 24 1.39 0.14
21 26 21 0.91 0.05
21 26 23 0.38 0.04
21 26 25 0.76 0.03
21 27 22 0.5 0.03
21 27 24 0.47 0.03
21 27 26 0.27 0.03
21 28 21 0.53 0.04
21 28 23 0.19 0.03
21 28 25 0.15 0.03
21 28 27 0.03 0.03
21 29 22 0.03 0.03
21 29 24 0.19 0.03
21 29 26 0.11 0.02
21 29 28 0.03 0.03
21 30 21 0.23 0.04
21 30 23 0 0.03
21 30 25 0 0.02
21 30 27 0.03 0.03
21 31 22 0.02 0.03
21 31 24 0.01 0.02
21 31 26 0.04 0.03
21 32 21 0.02 0.04
21 32 23 0.07 0.03
21 32 25 0.06 0.04
21 33 22 0 0.03
21 33 24 0.03 0.06
21 34 21 0.03 0.04
22 22 22 3.24 0.15
22 23 23 3.3 0.2
22 24 22 10.46 0.2
22 24 24 10.01 0.25
22 25 23 1.52 0.11
22 25 25 2.61 0.18
22 26 22 3.73 0.12
22 26 24 6.45 0.13
22 26 26 2.57 0.13
22 27 23 1 0.08
22 27 25 1.02 0.04
22 27 27 0.78 0.04
22 28 22 0.99 0.05
22 28 24 2.15 0.07
22 28 26 1.1 0.04
22 28 28 0.26 0.04
22 29 23 0.15 0.03
22 29 25 0.2 0.03
22 29 27 0.06 0.03
22 30 22 0.01 0.04
22 30 24 0.28 0.03
22 30 26 0.06 0.03
22 31 23 0.01 0.02
22 31 25 0 0.03
22 32 22 0.01 0.03
22 32 24 0.02 0.04
22 33 23 0.15 0.05
23 24 23 2.96 0.23
23 25 24 1.52 0.07
23 26 23 1.61 0.07
23 26 25 0.75 0.03
23 27 24 0.88 0.03
23 27 26 0.51 0.03
23 28 23 0.75 0.04
23 28 25 0.13 0.03
23 28 27 0.12 0.03
23 29 24 0.27 0.02
23 29 26 0.14 0.03
23 30 23 0.04 0.03
23 30 25 0.01 0.03
23 31 24 0.01 0.03
23 32 23 0.03 0.08
24 24 24 5.1 0.22
24 25 25 2.37 0.13
24 26 24 5.37 0.17
24 26 26 3.97 0.14
24 27 25 0.88 0.03
24 27 27 0.51 0.04
24 28 24 1.7 0.06
24 28 26 1.71 0.07
24 29 25 0.2 0.03
24 30 24 0.1 0.04
25 26 25 1.26 0.06
25 27 26 0.49 0.03
25 28 25 0.25 0.05
26 26 26 2.26 0.17
loop_
_smtbx_masks_void_nr
_smtbx_masks_void_average_x
_smtbx_masks_void_average_y
_smtbx_masks_void_average_z
_smtbx_masks_void_volume
_smtbx_masks_void_count_electrons
1 0.104 -0.837 -0.492 46084.8 3688.4
