#------------------------------------------------------------------------------
#$Date: 2021-01-03 20:58:06 +0200 (Sun, 03 Jan 2021) $
#$Revision: 260394 $
#$URL: file:///home/coder/svn-repositories/cod/cif/4/51/83/4518396.cif $
#------------------------------------------------------------------------------
#
# This file is available in the Crystallography Open Database (COD),
# http://www.crystallography.net/
#
# All data on this site have been placed in the public domain by the
# contributors.
#
data_4518396
loop_
_publ_author_name
'Choi, Sunghan'
'Kim, Chul Hoon'
'Baeg, Jin-Ook'
'Son, Ho-Jin'
'Pac, Chyongjin'
'Kang, Sang Ook'
_publ_section_title
;
 Collisional Electron Transfer Route between Homogeneous Porphyrin Dye and
 Catalytic TiO2/Re(I) Particles for CO2 Reduction
;
_journal_issue                   12
_journal_name_full               'ACS Applied Energy Materials'
_journal_page_first              11581
_journal_page_last               11596
_journal_paper_doi               10.1021/acsaem.0c01300
_journal_volume                  3
_journal_year                    2020
_chemical_formula_moiety         'C102 H156 N4 O4 Si2 Zn', 'C8 H16 O2'
_chemical_formula_sum            'C110 H172 N4 O6 Si2 Zn'
_chemical_formula_weight         1768.15
_space_group_crystal_system      monoclinic
_space_group_IT_number           15
_space_group_name_Hall           '-C 2yc'
_space_group_name_H-M_alt        'C 1 2/c 1'
_atom_sites_solution_hydrogens   geom
_atom_sites_solution_primary     direct
_audit_creation_method           SHELXL-2018/3
_cell_angle_alpha                90
_cell_angle_beta                 100.831(4)
_cell_angle_gamma                90
_cell_formula_units_Z            4
_cell_length_a                   38.361(3)
_cell_length_b                   15.8528(12)
_cell_length_c                   17.6645(12)
_cell_measurement_reflns_used    9942
_cell_measurement_temperature    173(2)
_cell_measurement_theta_max      25.302
_cell_measurement_theta_min      2.162
_cell_volume                     10550.9(14)
_computing_cell_refinement       'APEX3 (Bruker, 2016)'
_computing_data_collection       'APEX3 (Bruker, 2016)'
_computing_data_reduction        'APEX3 (Bruker, 2016)'
_computing_molecular_graphics    'Ortep-3 for Windows (Farrugia, 1997)'
_computing_publication_material  'SHELXL-2014/7 (Sheldrick, 2014)'
_computing_structure_refinement  'SHELXL-2018/3 (Sheldrick, 2018)'
_computing_structure_solution    'SHELXT 2014/5 (Sheldrick, 2014)'
_diffrn_ambient_temperature      173(2)
_diffrn_measured_fraction_theta_full 1.000
_diffrn_measured_fraction_theta_max 0.998
_diffrn_measurement_device_type  'Bruker APEX3 CCD diffractometer'
_diffrn_measurement_method       \w-scans
_diffrn_radiation_type           MoK\a
_diffrn_radiation_wavelength     0.71073
_diffrn_reflns_av_R_equivalents  0.1104
_diffrn_reflns_av_unetI/netI     0.0431
_diffrn_reflns_Laue_measured_fraction_full 1.000
_diffrn_reflns_Laue_measured_fraction_max 0.998
_diffrn_reflns_limit_h_max       46
_diffrn_reflns_limit_h_min       -46
_diffrn_reflns_limit_k_max       19
_diffrn_reflns_limit_k_min       -19
_diffrn_reflns_limit_l_max       21
_diffrn_reflns_limit_l_min       -21
_diffrn_reflns_number            155444
_diffrn_reflns_point_group_measured_fraction_full 1.000
_diffrn_reflns_point_group_measured_fraction_max 0.998
_diffrn_reflns_theta_full        25.242
_diffrn_reflns_theta_max         25.374
_diffrn_reflns_theta_min         1.755
_exptl_absorpt_coefficient_mu    0.310
_exptl_absorpt_correction_T_max  0.743
_exptl_absorpt_correction_T_min  0.317
_exptl_absorpt_correction_type   multi-scan
_exptl_absorpt_process_details   'SADABS (Sheldric, 1996)'
_exptl_crystal_colour            purple
_exptl_crystal_density_diffrn    1.110
_exptl_crystal_description       plate
_exptl_crystal_F_000             3512
_exptl_crystal_size_max          0.6
_exptl_crystal_size_mid          0.6
_exptl_crystal_size_min          0.2
_refine_diff_density_max         1.230
_refine_diff_density_min         -0.884
_refine_diff_density_rms         0.072
_refine_ls_extinction_method     none
_refine_ls_goodness_of_fit_ref   1.066
_refine_ls_hydrogen_treatment    constr
_refine_ls_matrix_type           full
_refine_ls_number_parameters     546
_refine_ls_number_reflns         9678
_refine_ls_number_restraints     0
_refine_ls_restrained_S_all      1.066
_refine_ls_R_factor_all          0.1247
_refine_ls_R_factor_gt           0.0767
_refine_ls_shift/su_max          0.000
_refine_ls_shift/su_mean         0.000
_refine_ls_structure_factor_coef Fsqd
_refine_ls_weighting_details
'w=1/[\s^2^(Fo^2^)+(0.0783P)^2^+53.3170P] where P=(Fo^2^+2Fc^2^)/3'
_refine_ls_weighting_scheme      calc
_refine_ls_wR_factor_gt          0.1811
_refine_ls_wR_factor_ref         0.2268
_reflns_Friedel_coverage         0.000
_reflns_number_gt                6541
_reflns_number_total             9678
_reflns_threshold_expression     'I > 2\s(I)'
_cod_data_source_file            ae0c01300_si_002.cif
_cod_data_source_block           shelx
_cod_original_sg_symbol_H-M      'C 2/c'
_cod_database_code               4518396
_shelx_shelxl_version_number     2018/3
_shelx_space_group_comment
;
The symmetry employed for this shelxl refinement is uniquely defined
by the following loop, which should always be used as a source of
symmetry information in preference to the above space-group names.
They are only intended as comments.
;
_shelx_estimated_absorpt_t_min   0.841
_shelx_estimated_absorpt_t_max   0.943
_shelx_res_file
;
TITL k190304_0ma_a.res in C2/c        New: C2/c
    shelx.res
    created by SHELXL-2018/3 at 20:41:22 on 08-Mar-2019
CELL  0.71073  38.3610  15.8528  17.6645   90.000  100.831   90.000
ZERR     4.00   0.0030   0.0012   0.0012    0.000    0.004    0.000
LATT   7
SYMM  - X,   Y, 1/2 - Z
SFAC  C    H    N    O    SI   ZN
UNIT  496 0 16 24 8 4
MERG   2
ABIN
FMAP   2
PLAN   20
ACTA
BOND   $H
CONF
L.S.  20
TEMP    23.00
WGHT    0.078300   53.316998
FVAR       9.96866
ZN1   6    0.250000    0.250000    0.000000    10.50000    0.04629    0.05292 =
         0.02509    0.00205   -0.00484   -0.02298
SI1   5    0.071483    0.095361    0.112755    11.00000    0.04672    0.05176 =
         0.03838   -0.00198    0.00901   -0.01748
O1    4    0.184495    0.246768   -0.297903    11.00000    0.07651    0.05084 =
         0.02931   -0.00208   -0.01553   -0.01020
O2    4    0.232582   -0.011467   -0.203829    11.00000    0.07074    0.05155 =
         0.03531    0.00182   -0.01000   -0.01369
O3    4    0.225562    0.376821   -0.049566    11.00000    0.09990    0.04875 =
         0.04140    0.00262   -0.02838   -0.01049
N2    3    0.204858    0.188559   -0.052621    11.00000    0.04505    0.04822 =
         0.02468    0.00481   -0.00375   -0.01645
N1    3    0.228366    0.268470    0.096703    11.00000    0.04410    0.05050 =
         0.02508    0.00378   -0.00804   -0.01980
C5    1    0.171016    0.198653    0.052439    11.00000    0.03620    0.04619 =
         0.03463    0.00714   -0.00389   -0.01716
C6    1    0.175235    0.174346   -0.021780    11.00000    0.04724    0.04362 =
         0.02832    0.00605   -0.00292   -0.01814
C7    1    0.149397    0.130416   -0.077332    11.00000    0.04346    0.06877 =
         0.03616   -0.00164   -0.00313   -0.03082
AFIX  43
H7    2    0.127185    0.112199   -0.070274    11.00000   -1.20000
AFIX   0
C8    1    0.163152    0.120437   -0.141323    11.00000    0.05201    0.06211 =
         0.02921    0.00040   -0.00614   -0.02987
AFIX  43
H8    2    0.152056    0.095429   -0.187178    11.00000   -1.20000
AFIX   0
C9    1    0.198208    0.155691   -0.125459    11.00000    0.04459    0.04986 =
         0.02673    0.00101   -0.00733   -0.02261
C41   1    0.138737    0.172642    0.075401    11.00000    0.04466    0.04681 =
         0.03266   -0.00019   -0.00397   -0.01360
C44   1    0.000562    0.148288    0.118671    11.00000    0.05028    0.08926 =
         0.09905   -0.02370    0.02527   -0.01080
AFIX  33
H44A  2   -0.006075    0.110967    0.075572    11.00000   -1.50000
H44B  2   -0.000359    0.118465    0.165553    11.00000   -1.50000
H44C  2   -0.015561    0.195147    0.113646    11.00000   -1.50000
AFIX   0
C50   1    0.082553   -0.037313    0.011837    11.00000    0.05833    0.07206 =
         0.06627   -0.01832    0.01511   -0.01018
AFIX  33
H50A  2    0.090178   -0.070261    0.057548    11.00000   -1.50000
H50B  2    0.072352   -0.073792   -0.029853    11.00000   -1.50000
H50C  2    0.102550   -0.008219   -0.001275    11.00000   -1.50000
AFIX   0
C51   1    0.042319    0.080158   -0.046186    11.00000    0.05496    0.08059 =
         0.04466   -0.00737    0.00168   -0.01781
AFIX  33
H51A  2    0.024907    0.120390   -0.036841    11.00000   -1.50000
H51B  2    0.062272    0.109378   -0.059362    11.00000   -1.50000
H51C  2    0.032074    0.043805   -0.087939    11.00000   -1.50000
AFIX   0
C13   1    0.177035    0.126647   -0.385925    11.00000    0.05626    0.06355 =
         0.02741   -0.00089   -0.00881   -0.01616
AFIX  43
H13   2    0.164172    0.158349   -0.425954    11.00000   -1.20000
AFIX   0
C14   1    0.183626    0.043249   -0.396798    11.00000    0.06295    0.06437 =
         0.02666   -0.00594   -0.00096   -0.01999
AFIX  43
H14   2    0.175358    0.018815   -0.444670    11.00000   -1.20000
AFIX   0
C17   1    0.163082    0.296207   -0.355973    11.00000    0.07496    0.06107 =
         0.03372   -0.00006   -0.01628   -0.00561
AFIX  23
H17A  2    0.139644    0.271380   -0.369992    11.00000   -1.20000
H17B  2    0.173699    0.298283   -0.401631    11.00000   -1.20000
AFIX   0
C18   1    0.160317    0.384152   -0.324659    11.00000    0.07894    0.06193 =
         0.03959   -0.00405   -0.01178   -0.00293
AFIX  23
H18A  2    0.183884    0.408249   -0.310475    11.00000   -1.20000
H18B  2    0.150000    0.381311   -0.278624    11.00000   -1.20000
AFIX   0
C20   1    0.136914    0.531763   -0.357891    11.00000    0.11147    0.06692 =
         0.05562   -0.01330   -0.00947    0.00206
AFIX  23
H20A  2    0.160551    0.555256   -0.353645    11.00000   -1.20000
H20B  2    0.130879    0.533015   -0.306984    11.00000   -1.20000
AFIX   0
C22   1    0.118722    0.598006   -0.492345    11.00000    0.08836    0.05788 =
         0.06537   -0.00994   -0.01087    0.00914
AFIX  23
H22A  2    0.141855    0.624085   -0.488657    11.00000   -1.20000
H22B  2    0.119713    0.542727   -0.515388    11.00000   -1.20000
AFIX   0
C24   1    0.098000    0.660829   -0.625628    11.00000    0.08971    0.06305 =
         0.07014   -0.00550   -0.01291    0.01350
AFIX  23
H24A  2    0.101622    0.605345   -0.645973    11.00000   -1.20000
H24B  2    0.119667    0.692883   -0.624006    11.00000   -1.20000
AFIX   0
C25   1    0.067792    0.704763   -0.680236    11.00000    0.10287    0.07233 =
         0.07989   -0.00830   -0.01433    0.02865
AFIX  23
H25A  2    0.046061    0.673173   -0.681152    11.00000   -1.20000
H25B  2    0.064420    0.760544   -0.660218    11.00000   -1.20000
AFIX   0
C28   1    0.048488    0.751793   -0.900088    11.00000    0.17390    0.14797 =
         0.10256    0.04591   -0.01205    0.04678
AFIX  33
H28A  2    0.027608    0.773308   -0.933045    11.00000   -1.50000
H28B  2    0.068150    0.788661   -0.902066    11.00000   -1.50000
H28C  2    0.053695    0.696495   -0.917131    11.00000   -1.50000
AFIX   0
C29   1    0.234561   -0.100925   -0.208746    11.00000    0.08223    0.05527 =
         0.04245   -0.00348    0.00268    0.00146
AFIX  23
H29A  2    0.251956   -0.117066   -0.239447    11.00000   -1.20000
H29B  2    0.211704   -0.123941   -0.232630    11.00000   -1.20000
AFIX   0
C30   1    0.245305   -0.133730   -0.127523    11.00000    0.09715    0.05311 =
         0.04696   -0.00103   -0.00995   -0.00202
AFIX  23
H30A  2    0.266048   -0.102978   -0.101847    11.00000   -1.20000
H30B  2    0.251867   -0.192673   -0.129455    11.00000   -1.20000
AFIX   0
C32   1    0.184735   -0.182956   -0.105338    11.00000    0.19094    0.27391 =
         0.10197    0.12139   -0.09365   -0.16704
AFIX  23
H32A  2    0.164297   -0.146599   -0.106576    11.00000   -1.20000
H32B  2    0.185229   -0.196072   -0.158761    11.00000   -1.20000
AFIX   0
C33   1    0.176758   -0.245682   -0.079944    11.00000    0.33197    0.14645 =
         0.06967   -0.01206    0.03898   -0.17298
AFIX  23
H33A  2    0.172300   -0.233982   -0.028709    11.00000   -1.20000
H33B  2    0.197082   -0.283155   -0.073917    11.00000   -1.20000
AFIX   0
C34   1    0.137203   -0.304993   -0.134242    11.00000    0.13454    0.13673 =
         0.20343    0.08720    0.10538    0.03129
AFIX  23
H34A  2    0.124301   -0.272984   -0.177360    11.00000   -1.20000
H34B  2    0.143599   -0.359875   -0.151717    11.00000   -1.20000
AFIX   0
C35   1    0.121431   -0.309914   -0.082127    11.00000    1.36511    0.07456 =
         0.08276    0.02133    0.21278    0.01982
AFIX  23
H35A  2    0.113053   -0.255719   -0.067368    11.00000   -1.20000
H35B  2    0.134800   -0.338636   -0.037455    11.00000   -1.20000
AFIX   0
C36   1    0.086866   -0.373450   -0.135361    11.00000    0.27211    0.10994 =
         0.22496    0.10518   -0.19378   -0.11848
AFIX  23
H36A  2    0.079009   -0.346597   -0.184976    11.00000   -1.20000
H36B  2    0.097199   -0.427275   -0.145151    11.00000   -1.20000
AFIX   0
C1    1    0.243696    0.310521    0.163060    11.00000    0.04414    0.04270 =
         0.02588    0.00627   -0.00598   -0.01598
C2    1    0.219467    0.312066    0.215341    11.00000    0.04651    0.04710 =
         0.02792    0.00078   -0.00197   -0.01215
AFIX  43
H2    2    0.223478    0.336390    0.264117    11.00000   -1.20000
AFIX   0
C3    1    0.189651    0.271711    0.180946    11.00000    0.04124    0.04948 =
         0.03552    0.00051    0.00154   -0.01123
AFIX  43
H3    2    0.169272    0.263008    0.201286    11.00000   -1.20000
AFIX   0
C4    1    0.195636    0.244894    0.106756    11.00000    0.04003    0.04030 =
         0.02810    0.00465   -0.00415   -0.01119
C42   1    0.111842    0.146119    0.093113    11.00000    0.04895    0.05532 =
         0.03474   -0.00140   -0.00116   -0.01374
C43   1    0.038434    0.180731    0.120655    11.00000    0.05431    0.06401 =
         0.05710   -0.00921    0.01202   -0.01461
AFIX  13
H43   2    0.037162    0.215410    0.074289    11.00000   -1.20000
AFIX   0
C45   1    0.050013    0.240635    0.188808    11.00000    0.08359    0.07088 =
         0.08110   -0.02325    0.01548   -0.00722
AFIX  33
H45A  2    0.073721    0.260029    0.188812    11.00000   -1.50000
H45B  2    0.034186    0.288047    0.184203    11.00000   -1.50000
H45C  2    0.049388    0.211365    0.236110    11.00000   -1.50000
AFIX   0
C49   1    0.054589    0.027427    0.026433    11.00000    0.04319    0.05975 =
         0.04985   -0.00398    0.00851   -0.02014
AFIX  13
H49   2    0.034009   -0.003960    0.036941    11.00000   -1.20000
AFIX   0
C46   1    0.085024    0.028541    0.201491    11.00000    0.10302    0.05332 =
         0.04767   -0.00006    0.01659   -0.01146
AFIX  13
H46   2    0.099026   -0.017821    0.185881    11.00000   -1.20000
AFIX   0
C47   1    0.053987   -0.013179    0.229147    11.00000    0.14595    0.12536 =
         0.08730    0.03913    0.04075   -0.04617
AFIX  33
H47A  2    0.039041   -0.040584    0.186546    11.00000   -1.50000
H47B  2    0.062786   -0.054145    0.268088    11.00000   -1.50000
H47C  2    0.040539    0.028851    0.250268    11.00000   -1.50000
AFIX   0
C48   1    0.109368    0.072604    0.266499    11.00000    0.13144    0.07915 =
         0.06059    0.01113   -0.01858    0.00563
AFIX  33
H48A  2    0.128630    0.098219    0.247209    11.00000   -1.50000
H48B  2    0.096360    0.115316    0.287919    11.00000   -1.50000
H48C  2    0.118607    0.032319    0.305740    11.00000   -1.50000
AFIX   0
C10   1    0.221828    0.156253   -0.177014    11.00000    0.04915    0.04374 =
         0.02389    0.00472   -0.00639   -0.01640
C11   1    0.208885    0.116455   -0.254179    11.00000    0.04200    0.04589 =
         0.02655    0.00081   -0.00154   -0.02167
C12   1    0.189666    0.164067   -0.314580    11.00000    0.04868    0.05289 =
         0.02768   -0.00097   -0.00523   -0.01648
C15   1    0.202296   -0.005380   -0.338181    11.00000    0.06512    0.05513 =
         0.03258   -0.00481    0.00097   -0.01776
AFIX  43
H15   2    0.206616   -0.062067   -0.346357    11.00000   -1.20000
AFIX   0
C16   1    0.214627    0.031518   -0.266442    11.00000    0.04816    0.05414 =
         0.02825    0.00043   -0.00052   -0.01704
C19   1    0.137539    0.440771   -0.383935    11.00000    0.09025    0.05792 =
         0.04747   -0.00811   -0.01220   -0.00216
AFIX  23
H19A  2    0.146550    0.438670   -0.431662    11.00000   -1.20000
H19B  2    0.113456    0.419153   -0.394357    11.00000   -1.20000
AFIX   0
C21   1    0.110725    0.587641   -0.411702    11.00000    0.11563    0.06768 =
         0.07000   -0.01604   -0.00404    0.02209
AFIX  23
H21A  2    0.087128    0.563909   -0.415985    11.00000   -1.20000
H21B  2    0.110494    0.643020   -0.388448    11.00000   -1.20000
AFIX   0
C23   1    0.091192    0.651368   -0.544454    11.00000    0.08833    0.06438 =
         0.07698   -0.01423   -0.01258    0.01607
AFIX  23
H23A  2    0.068003    0.626017   -0.546746    11.00000   -1.20000
H23B  2    0.090657    0.706977   -0.521794    11.00000   -1.20000
AFIX   0
C26   1    0.074135    0.713251   -0.761500    11.00000    0.11031    0.07922 =
         0.08153    0.00319   -0.01047    0.02758
AFIX  23
H26A  2    0.080469    0.658471   -0.779308    11.00000   -1.20000
H26B  2    0.094071    0.750878   -0.761543    11.00000   -1.20000
AFIX   0
C27   1    0.042144    0.746883   -0.817407    11.00000    0.12804    0.10359 =
         0.09077    0.00484   -0.01549    0.04525
AFIX  23
H27A  2    0.036388    0.802711   -0.800930    11.00000   -1.20000
H27B  2    0.021933    0.710542   -0.815996    11.00000   -1.20000
AFIX   0
C31   1    0.216263   -0.125511   -0.080721    11.00000    0.09081    0.12355 =
         0.03784    0.01535   -0.00988   -0.04274
AFIX  23
H31A  2    0.226337   -0.137059   -0.027150    11.00000   -1.20000
H31B  2    0.207963   -0.067591   -0.083879    11.00000   -1.20000
AFIX   0
C37   1    0.053568   -0.391711   -0.100522    11.00000    0.62407    0.11693 =
         0.17237   -0.03787   -0.12817    0.08817
AFIX  23
H37A  2    0.061714   -0.409087   -0.047496    11.00000   -1.20000
H37B  2    0.041101   -0.338685   -0.099008    11.00000   -1.20000
AFIX   0
C38   1    0.030234   -0.447551   -0.132735    11.00000    0.19606    0.13517 =
         0.25983   -0.02088    0.04451    0.00448
AFIX  23
H38A  2    0.044332   -0.496230   -0.141214    11.00000   -1.20000
H38B  2    0.021066   -0.424752   -0.183533    11.00000   -1.20000
AFIX   0
C52   1    0.203455    0.385803   -0.120510    11.00000    0.07960    0.07225 =
         0.03960    0.00214   -0.01395   -0.00287
AFIX  23
H52A  2    0.181392    0.355710   -0.121056    11.00000   -1.20000
H52B  2    0.214726    0.362818   -0.160764    11.00000   -1.20000
AFIX   0
C53   1    0.196327    0.477131   -0.133889    11.00000    0.09399    0.06692 =
         0.05330    0.00723   -0.01820    0.00012
AFIX  23
H53A  2    0.170997    0.488071   -0.144452    11.00000   -1.20000
H53B  2    0.206361    0.496957   -0.177130    11.00000   -1.20000
AFIX   0
C54   1    0.213708    0.519794   -0.060955    11.00000    0.12811    0.06515 =
         0.05861    0.00160   -0.02134   -0.00324
AFIX  23
H54A  2    0.231516    0.559539   -0.071021    11.00000   -1.20000
H54B  2    0.196273    0.549953   -0.038073    11.00000   -1.20000
AFIX   0
C55   1    0.230150    0.452437   -0.009532    11.00000    0.12375    0.05177 =
         0.05102   -0.00693   -0.02155   -0.01162
AFIX  23
H55A  2    0.255247    0.463839    0.007439    11.00000   -1.20000
H55B  2    0.219148    0.449370    0.035546    11.00000   -1.20000
AFIX   0
C39   1   -0.004687   -0.487612   -0.104639    11.00000    0.20653
AFIX  23
H39A  2    0.003543   -0.529002   -0.064846    11.00000   -1.20000
H39B  2   -0.016136   -0.442785   -0.081017    11.00000   -1.20000
AFIX   0
C40   1   -0.028647   -0.523482   -0.156865    11.00000    0.36011
AFIX  33
H40A  2   -0.047581   -0.544232   -0.133353    11.00000   -1.50000
H40B  2   -0.037878   -0.483033   -0.195962    11.00000   -1.50000
H40C  2   -0.018121   -0.569586   -0.179727    11.00000   -1.50000
AFIX   0
HKLF    4




REM  k190304_0ma_a.res in C2/c        New: C2/c
REM wR2 = 0.2268, GooF = S = 1.066, Restrained GooF = 1.066 for all data
REM R1 = 0.0767 for 6541 Fo > 4sig(Fo) and 0.1247 for all 9678 data
REM 546 parameters refined using 0 restraints

END

WGHT      0.0783     53.3010

REM Highest difference peak  1.230,  deepest hole -0.884,  1-sigma level  0.072
Q1    1   0.1532 -0.3144 -0.0735  11.00000  0.05    1.23
Q2    1   0.1793 -0.1613 -0.0990  11.00000  0.05    0.91
Q3    1   0.1075 -0.3036 -0.0799  11.00000  0.05    0.80
Q4    1   0.1880 -0.2555 -0.0610  11.00000  0.05    0.62
Q5    1   0.1992 -0.2222 -0.1231  11.00000  0.05    0.59
Q6    1   0.1049 -0.3772 -0.1596  11.00000  0.05    0.56
Q7    1   0.1324 -0.2756 -0.1173  11.00000  0.05    0.53
Q8    1   0.0524 -0.4012 -0.0834  11.00000  0.05    0.50
Q9    1   0.1293 -0.3381 -0.1528  11.00000  0.05    0.48
Q10   1   0.0723 -0.3464 -0.1163  11.00000  0.05    0.48
Q11   1   0.0333 -0.3748 -0.1242  11.00000  0.05    0.45
Q12   1   0.0737 -0.3788 -0.1295  11.00000  0.05    0.45
Q13   1   0.1600 -0.2271 -0.0828  11.00000  0.05    0.44
Q14   1   0.2014 -0.2890 -0.1204  11.00000  0.05    0.43
Q15   1   0.1562 -0.2948 -0.1424  11.00000  0.05    0.40
Q16   1   0.0185 -0.4374 -0.0740  11.00000  0.05    0.40
Q17   1   0.0202 -0.4559 -0.1547  11.00000  0.05    0.39
Q18   1   0.0379 -0.4839 -0.0836  11.00000  0.05    0.37
Q19   1   0.1520 -0.1648 -0.0676  11.00000  0.05    0.35
Q20   1   0.1569 -0.1559 -0.0530  11.00000  0.05    0.34
;
_shelx_res_checksum              1283
_shelx_hkl_file
;
   4   0   0 4296630  113746
   6   0   0 4659716   98839
   8   0   010514546  221580
  10   0   0   43289    3287
  12   0   0   88614    4359
  14   0   0  191576    6920
  16   0   0  772262   17584
  18   0   0  111423    5909
  20   0   0  226004    8514
  22   0   0    5704    3557
  24   0   0  356679   11839
  26   0   0   56004    6173
  28   0   0 1014698   26387
  30   0   0    2051    5370
  32   0   0   -5553    5553
  34   0   0  406294   19934
  36   0   0   94029    9923
  38   0   0  100173   10406
  40   0   0  102461   11871
  42   0   0   -8720   10466
  44   0   0   95398   14267
   3   1   0  267774    9463
   5   1   0 1410628   20325
   7   1   0 9793518  131560
   9   1   0 3520384   49198
  11   1   0  404080    7249
  13   1   0   67275    2758
  15   1   0   81128    3187
  17   1   0  416756    8395
  19   1   0    9750    2413
  21   1   0   27912    2935
  23   1   0   25903    3240
  25   1   0   59882    4091
  27   1   0   92899    5183
  29   1   0  110887    5919
  31   1   0  147061    6980
  33   1   0    6552    4585
  35   1   0    8564    5354
  37   1   0    4885    5543
  39   1   0   23523    6230
  41   1   0   -6109    6109
  43   1   0   -7653    7653
  45   1   0   -8523    8523
   0   2   0 3615425   95718
   2   2   0 6193413   90174
   4   2   0   60392    1769
   6   2   0  766550   11780
   8   2   0 1385708   20628
  10   2   0 2431739   33351
  12   2   0 2396327   33295
  14   2   0 4899992   67541
  16   2   0 2179092   31546
  18   2   0  695360   12536
  20   2   0  668526   12107
  22   2   0   58284    3797
  24   2   0  110316    5024
  26   2   0  131787    5463
  28   2   0  243726    8150
  30   2   0   85781    5782
  32   2   0  368541   11577
  34   2   0  377775   12701
  36   2   0  205482    9646
  38   2   0  288131   14737
  40   2   0   41396    6777
  42   2   0   20559    8637
  44   2   0    3577    8602
   1   3   0   36419    1560
   3   3   0  976582   15089
   5   3   018242852  308518
   7   3   0 8223450  115230
   9   3   0   68029    2895
  11   3   0  159319    4311
  13   3   0 2051685   29504
  15   3   0 1144935   17707
  17   3   0   -1259    2055
  19   3   0   52134    3690
  21   3   0   20421    3234
  23   3   0   64040    4108
  25   3   0   -2605    3062
  27   3   0   88834    5346
  29   3   0  362675   10835
  31   3   0   10019    4873
  33   3   0   26832    5161
  35   3   0   89846    6341
  37   3   0   66766    6671
  39   3   0   -5959    5959
  41   3   0   -6034    6034
  43   3   0   -2655    7853
   0   4   0  747574   16520
   2   4   0   56272    4824
   4   4   0 6925252   97453
   6   4   0   35886    1851
   8   4   0 1664005   26720
  10   4   0 1560052   24184
  12   4   0  215580    5456
  14   4   0 2676231   39592
  16   4   0 2419179   34908
  18   4   0 2125545   31016
  20   4   0  683974   12068
  22   4   0  181083    6017
  24   4   0   34620    3722
  26   4   0  195421    6778
  28   4   0  105074    5738
  30   4   0  226533    8743
  32   4   0   68476    5451
  34   4   0  138546    7741
  36   4   0  380667   13421
  38   4   0   -5658    5658
  40   4   0    1971    6230
  42   4   0   62208   10408
  44   4   0   -9245    9245
   1   5   0  136113    3866
   3   5   0  103190    3352
   5   5   0  113767    3492
   7   5   0    5735    1521
   9   5   0   -1412    1911
  11   5   0   56185    2808
  13   5   0 2787939   43453
  15   5   0  229627    6486
  17   5   0   27384    2826
  19   5   0  209274    6333
  21   5   0  289440    7197
  23   5   0  185485    6098
  25   5   0     464    3302
  27   5   0  322663    9794
  29   5   0  183459    7562
  31   5   0    8879    5146
  33   5   0   10005    5446
  35   5   0  641373   18535
  37   5   0   -4399    4399
  39   5   0     910    4960
  41   5   0   45683    9305
  43   5   0    -916   13544
   0   6   0   66409    5162
   2   6   0  283585    6483
   4   6   0    4219    1501
   6   6   0 1596612   23926
   8   6   0   -2067    2067
  10   6   0 2024171   30323
  12   6   0  483123   10166
  14   6   0 1202356   19705
  16   6   0 1609185   26063
  18   6   0  439522    9980
  20   6   0     297    2369
  22   6   0  810504   15367
  24   6   0   77226    4891
  26   6   0   49285    5077
  28   6   0  114541    7975
  30   6   0  150299   10759
  32   6   0   48114    4729
  34   6   0  501788   14077
  36   6   0   -5502    5502
  38   6   0   -1567    7088
  40   6   0   32304    6250
  42   6   0   -8113   11014
   1   7   0  462544    8560
   3   7   0 1962958   31099
   5   7   0  894531   15540
   7   7   0   52090    3051
   9   7   0  670456   11838
  11   7   0  722452   13628
  13   7   0  164326    5844
  15   7   0   16273    3096
  17   7   0  482644   10459
  19   7   0    3482    2617
  21   7   0  135557    5553
  23   7   0  204837    7843
  25   7   0    7814    3699
  27   7   0   12250    4878
  29   7   0   -6859    6859
  31   7   0   -4647    5683
  33   7   0   61431    9564
  35   7   0    6540    7381
  37   7   0   10855    7835
  39   7   0     824    7642
  41   7   0   -7746    7746
   0   8   0 4981724   96417
   2   8   0 2704419   39818
   4   8   0 2917618   47719
   6   8   0  564783   11567
   8   8   0    9317    2436
  10   8   0   53584    3294
  12   8   0  277946    7581
  14   8   0   91258    5503
  16   8   0  301117    9048
  18   8   0   31836    4051
  20   8   0  585623   14893
  22   8   0  143958    6419
  24   8   0   31538    5474
  26   8   0   -3227    3313
  28   8   0   10899    4921
  30   8   0   63190    6503
  32   8   0  165745   15231
  34   8   0   11478    6958
  36   8   0   16424    8514
  38   8   0    8278    7817
  40   8   0    2207    9116
   1   9   0   52530    3330
   3   9   0  345030    7886
   5   9   0  324739    8631
   7   9   0   -3034    3034
   9   9   0    3275    2964
  11   9   0  151833    5682
  13   9   0  316661    8702
  15   9   0    3685    3446
  17   9   0   11587    3840
  19   9   0   73660    6106
  21   9   0  100954    7608
  23   9   0   51772    6471
  25   9   0   -4533    4533
  27   9   0  132948    8560
  29   9   0   26965    6321
  31   9   0   50769    6650
  33   9   0    2886    6351
  35   9   0   11254    7186
  37   9   0   46583    8878
  39   9   0   10814    8752
   0  10   0  172403    7917
   2  10   0  355404    8344
   4  10   0  200147    6404
   6  10   0   -2771    2771
   8  10   0  325470    8436
  10  10   0   -2296    2296
  12  10   0   82531    5397
  14  10   0 1042721   22257
  16  10   0  242873   11892
  18  10   0  722570   19043
  20  10   0  670721   18660
  22  10   0  421036   14749
  24  10   0   -2294    5199
  26  10   0   33192    7256
  28  10   0   -4553    5250
  30  10   0  504693   18843
  32  10   0  145066   16422
  34  10   0   13441    9303
  36  10   0  170469   16546
  38  10   0   -6758   11717
   1  11   0  118564    5015
   3  11   0   -2798    2798
   5  11   0   48918    3976
   7  11   0  452155   12629
   9  11   0   19783    3681
  11  11   0   61568    4440
  13  11   0  244085    8690
  15  11   0    3481    4780
  17  11   0   11820    5723
  19  11   0  915017   22905
  21  11   0    2184    5490
  23  11   0   -5294    5294
  25  11   0   -3323    5671
  27  11   0   -1051    6574
  29  11   0  190792   10861
  31  11   0    9133    5953
  33  11   0   68016   12662
  35  11   0   46129   15435
  37  11   0    7625   14636
   0  12   0  191370    9708
   2  12   0    -245    3276
   4  12   0  129883    6012
   6  12   0  237628    8424
   8  12   0     526    4249
  10  12   0   -3254    3254
  12  12   0     -48    4442
  14  12   0  536814   17338
  16  12   0  666648   20424
  18  12   0  206230   12814
  20  12   0  120147    8359
  22  12   0   -1797    6697
  24  12   0   -4431    6258
  26  12   0     729    6613
  28  12   0  118617    9864
  30  12   0   -2106    8230
  32  12   0    5257   12108
  34  12   0  106849   14867
   1  13   0    2880    3982
   3  13   0   -3710    3710
   5  13   0   -3894    5042
   7  13   0   -4043    5953
   9  13   0   17218    4418
  11  13   0  118633    7059
  13  13   0   -3822    6156
  15  13   0   38045    5535
  17  13   0    9659    6184
  19  13   0   50149    7413
  21  13   0    2589    6890
  23  13   0   14900    7406
  25  13   0   -8492    8492
  27  13   0   45939    8969
  29  13   0   29976    8938
  31  13   0   22782    9222
  33  13   0   65778   15832
   0  14   0 1152854   42580
   2  14   0  386472   16488
   4  14   0  132039    7823
   6  14   0   33607    5083
   8  14   0   10401    4653
  10  14   0   75465    7324
  12  14   0   -3509    5945
  14  14   0   50892    6823
  16  14   0  121423    9639
  18  14   0   83941    8659
  20  14   0   -5794    7325
  22  14   0    9380    7962
  24  14   0   23706    9148
  26  14   0  106568   11394
  28  14   0   99259   16748
  30  14   0   33369   10943
   1  15   0   89186    7796
   3  15   0   14656    6234
   5  15   0   10421    4560
   7  15   0  103753    7131
   9  15   0  135624    7469
  11  15   0    9031    5088
  13  15   0   73373    9150
  15  15   0  163249   11925
  17  15   0    -859    7386
  19  15   0   -4911    7830
  21  15   0   44476    8772
  23  15   0     930    9760
  25  15   0   40600   10102
  27  15   0   29721   10122
   0  16   0   49487   10736
   2  16   0  350370   22125
   4  16   0  159357   10429
   6  16   0   27087    6851
   8  16   0  122751   11429
  10  16   0  166581   13480
  12  16   0    1670    5775
  14  16   0  153658   10709
  16  16   0   -5517    9496
  18  16   0   -2018   10246
  20  16   0  112670   12470
  22  16   0    9955   12030
  24  16   0   55644   11845
   1  17   0   20919    8686
   3  17   0   19813    7108
   5  17   0   12620    8110
   7  17   0   78408   10664
   9  17   0   30620    9467
  11  17   0    7272    8772
  13  17   0   98431   15717
  15  17   0    2874   11157
  17  17   0   -4922    9291
  19  17   0   30763   11955
   0  18   0   48749   14867
   2  18   0   -5629   10451
   4  18   0   22609   11956
   6  18   0   72137   10913
   8  18   0   24407   12191
  10  18   0   28379    9706
  12  18   0   25743   11142
  14  18   0   21275   10141
   1  19   0   -3621   10416
   3  19   0   24342   12673
 -45   1   1   -5382    8429
 -43   1   1    8492    8372
 -41   1   1   -6709    6709
 -39   1   1  212272    9828
 -37   1   1  127328    7820
 -35   1   1   71925    6459
 -33   1   1  131396    6884
 -31   1   1    2136    4104
 -29   1   1    7965    3671
 -27   1   1  414705    9950
 -25   1   1   16658    3353
 -23   1   1  488697   10198
 -21   1   1  141748    4994
 -19   1   1   39061    2940
 -17   1   1   73210    3505
 -15   1   1  217355    5469
 -13   1   1   16776    1834
 -11   1   1  911733   13774
  -9   1   1 2293626   31857
  -7   1   1 6775738   93099
  -5   1   1 6907542   98403
  -3   1   1 3593093   75767
  -1   1   1 5771234  297911
   1   1   1 6287761  272904
   3   1   1   65986    2595
   5   1   1 1600436   24093
   7   1   1 2402435   33732
   9   1   1 4830405   68374
  11   1   1 1212656   19740
  13   1   1  159520    4141
  15   1   1  452579    8729
  17   1   1 1310902   20607
  19   1   1 1148655   19532
  21   1   1 1220972   20444
  23   1   1  727929   14258
  25   1   1  169281    6134
  27   1   1   34359    4419
  29   1   1  136187    6591
  31   1   1   -1982    4423
  33   1   1   -2969    4522
  35   1   1   54199    5882
  37   1   1  502181   15743
  39   1   1  573675   18770
  41   1   1  134039    9258
  43   1   1   31164    8694
 -44   2   1   -4476    7908
 -42   2   1    3699    7282
 -40   2   1    2615    9831
 -38   2   1   20396    6272
 -36   2   1   13561    5227
 -34   2   1   20783    5272
 -32   2   1  368874   11353
 -30   2   1   -3753    3753
 -28   2   1   82667    5035
 -26   2   1  202701    6584
 -24   2   1  274274    7651
 -22   2   1   -2480    2480
 -20   2   1  236223    6612
 -18   2   1  587258   11531
 -16   2   1   91543    3582
 -14   2   1  561638    9828
 -12   2   1 4477333   64134
 -10   2   1  109559    3048
  -8   2   1 5565171   75500
  -6   2   1 1658335   24607
  -4   2   1 2249550   32852
  -2   2   1   48254    1574
   0   2   1  371011    7349
   2   2   1 6422503   89777
   4   2   1 1037626   15413
   6   2   1 1652342   24058
   8   2   115563963  221431
  10   2   1 1585061   23670
  12   2   1  168973    4096
  14   2   1  348662    6963
  16   2   1 1845088   27869
  18   2   1  234912    6026
  20   2   1  187956    5757
  22   2   1  233108    6780
  24   2   1  177679    6260
  26   2   1   45823    4124
  28   2   1    4959    3744
  30   2   1  883708   19037
  32   2   1   32299    5229
  34   2   1   21854    4943
  36   2   1    7420    4870
  38   2   1   60542    6638
  40   2   1   -3276    5576
  42   2   1     783    7337
  44   2   1   19842    8112
 -45   3   1   -8095    8095
 -43   3   1   -8154    8154
 -41   3   1  113855    9406
 -39   3   1   -6358    6358
 -37   3   1   89828    8024
 -35   3   1  265231   10357
 -33   3   1    -434    4718
 -31   3   1  452339   13691
 -29   3   1  385039   11598
 -27   3   1   60866    4358
 -25   3   1 1071920   19103
 -23   3   1  291637    8123
 -21   3   1   11708    2835
 -19   3   1 2743446   40310
 -17   3   1 2064067   32119
 -15   3   1  213571    5254
 -13   3   1 4247281   59789
 -11   3   1   45157    2503
  -9   3   1  783577   12305
  -7   3   1 1480513   23099
  -5   3   1 1789402   27986
  -3   3   1  325626    5721
  -1   3   1 3795159   55957
   1   3   1  681662   11444
   3   3   123823397  587156
   5   3   115100652  214923
   7   3   1   55209    2202
   9   3   1  102535    3112
  11   3   1 1806796   26578
  13   3   1  933853   15185
  15   3   1  357994    7314
  17   3   1  125972    4168
  19   3   1  239068    6117
  21   3   1  431932    9050
  23   3   1   -2487    2487
  25   3   1  652485   13345
  27   3   1  970295   18964
  29   3   1   11293    3777
  31   3   1  125526    6535
  33   3   1   28905    4930
  35   3   1   32521    5200
  37   3   1  275288   11190
  39   3   1   37655    7009
  41   3   1   68431    7766
  43   3   1   62094    9540
 -44   4   1    1289   10794
 -42   4   1   -6646    6646
 -40   4   1   75967    7245
 -38   4   1   -5125    5125
 -36   4   1  221206    9839
 -34   4   1  252881   10719
 -32   4   1   -2054    4118
 -30   4   1   50191    6411
 -28   4   1   22865    5235
 -26   4   1  187957    7099
 -24   4   1   82376    4756
 -22   4   1  157125    6112
 -20   4   1   -1337    2364
 -18   4   1  450591    9326
 -16   4   1  129179    4318
 -14   4   1   73820    3114
 -12   4   1  174341    4532
 -10   4   1  610210   10507
  -8   4   1  147531    4443
  -6   4   1 3005535   44351
  -4   4   1 2706508   38306
  -2   4   1  811992   14222
   0   4   1  281102   12237
   2   4   112561071  179031
   4   4   1 6000728   81543
   6   4   1    4676    1360
   8   4   1  238352    5030
  10   4   1   31839    1977
  12   4   1  691794   11419
  14   4   1  761161   13082
  16   4   1  104649    3680
  18   4   1   65097    3472
  20   4   1   82237    3731
  22   4   1   63289    3582
  24   4   1  170763    5777
  26   4   1   89980    4709
  28   4   1    1337    3441
  30   4   1   32548    4182
  32   4   1   -1308    4046
  34   4   1   19973    4417
  36   4   1   85509    6595
  38   4   1   -4035    4035
  40   4   1   -7743    7743
  42   4   1   -5628    9336
 -43   5   1   -7283    7283
 -41   5   1    9703    6615
 -39   5   1  144199   10026
 -37   5   1   55291    6979
 -35   5   1  404041   15150
 -33   5   1  608685   17003
 -31   5   1  260672   10161
 -29   5   1  304292   10511
 -27   5   1   48275    4835
 -25   5   1   22190    3599
 -23   5   1    9407    3030
 -21   5   1  429089    9746
 -19   5   1  174489    5416
 -17   5   1 1536962   24484
 -15   5   1  969496   16403
 -13   5   1  308956    7171
 -11   5   1 2882323   45556
  -9   5   1  402598    8035
  -7   5   1  207566    5043
  -5   5   1 1720115   25354
  -3   5   1  298461    6080
  -1   5   1    9525    1607
   1   5   1   17890    2604
   3   5   1 9269996  133185
   5   5   1 4235723   58582
   7   5   1 2850749   41693
   9   5   1 2074741   31204
  11   5   1 1569638   24792
  13   5   1  452733    9220
  15   5   1 1694145   27098
  17   5   1  206651    5974
  19   5   1   27387    2695
  21   5   1  542542   10899
  23   5   1 1053984   17851
  25   5   1  339804    8713
  27   5   1  186851    7095
  29   5   1    2162    4013
  31   5   1   -4756    4756
  33   5   1    7499    6902
  35   5   1   51444    8079
  37   5   1   -6176    6176
  39   5   1   30301    7696
  41   5   1   93225   15753
  43   5   1  -10971   10971
 -42   6   1   -6834    8197
 -40   6   1   -3565    4043
 -38   6   1    8073    4068
 -36   6   1   39755    6100
 -34   6   1  185211    7965
 -32   6   1   81119    5743
 -30   6   1   17092    4424
 -28   6   1   -3403    4406
 -26   6   1   -2502    3744
 -24   6   1   93477    4978
 -22   6   1   65167    4108
 -20   6   1   33106    3245
 -18   6   1  241202    6741
 -16   6   1    8291    2446
 -14   6   1  106030    4899
 -12   6   1    3188    2683
 -10   6   1  602347   11231
  -8   6   1 1363687   21581
  -6   6   1   43853    2568
  -4   6   1  157006    4459
  -2   6   1  721541   12916
   0   6   1  186802    5262
   2   6   1 1255614   20690
   4   6   1 3003293   43151
   6   6   1  594394   10137
   8   6   1  420543    7983
  10   6   1  341300    7696
  12   6   1  361116    7973
  14   6   1  304122    7600
  16   6   1  188745    5928
  18   6   1  493430   11181
  20   6   1   37148    3282
  22   6   1  341742    9481
  24   6   1  820589   18692
  26   6   1   35249    5730
  28   6   1  269138   13773
  30   6   1   77291    6268
  32   6   1  114670    8228
  34   6   1   12451    6222
  36   6   1   20170    6265
  38   6   1   -2850    6357
  40   6   1   26429   10339
  42   6   1   -9203    9548
 -41   7   1   -7997    7997
 -39   7   1   46220    5372
 -37   7   1   26632    5242
 -35   7   1   35556    7796
 -33   7   1  553819   18538
 -31   7   1  427686   15094
 -29   7   1  208080   10983
 -27   7   1   28911    4877
 -25   7   1   78995    5259
 -23   7   1   78959    4870
 -21   7   1  306001    8450
 -19   7   1   -2339    2339
 -17   7   1  474019   11577
 -15   7   1  628647   13441
 -13   7   1  337785    8516
 -11   7   1 1641472   25574
  -9   7   1  179537    5567
  -7   7   1   -1844    1844
  -5   7   1  925506   16251
  -3   7   1  535964   10543
  -1   7   1  424409    8004
   1   7   1  338727    7066
   3   7   1   -1619    1619
   5   7   1  159978    7972
   7   7   1 4942879   69906
   9   7   1  311778    6979
  11   7   1   57964    3239
  13   7   1   65632    3831
  15   7   1  189890    6283
  17   7   1 1329411   22631
  19   7   1   16122    2819
  21   7   1  194742    6884
  23   7   1 1527783   29088
  25   7   1  139600    9548
  27   7   1   20631    5988
  29   7   1   65762    7803
  31   7   1    2621    8021
  33   7   1  138308   11137
  35   7   1  106214   10426
  37   7   1   -7606    7606
  39   7   1   65719   14884
  41   7   1   50998   12248
 -40   8   1    9794    8827
 -38   8   1   12793    9778
 -36   8   1   16392    6498
 -34   8   1  125289    8323
 -32   8   1  191372   12003
 -30   8   1    -941    4522
 -28   8   1    3395    4156
 -26   8   1    3503    3450
 -24   8   1   -3015    3015
 -22   8   1   16996    4551
 -20   8   1   69957    5253
 -18   8   1    9947    3713
 -16   8   1   34607    4004
 -14   8   1  148549    6333
 -12   8   1   10081    2682
 -10   8   1  648912   12446
  -8   8   1  923759   16379
  -6   8   1    6287    2246
  -4   8   1   94444    4433
  -2   8   1  264340    6989
   0   8   1  520934    9919
   2   8   1   25645    2564
   4   8   1  117231    5100
   6   8   1     421    2172
   8   8   1  300161    6979
  10   8   1 1937644   29103
  12   8   1    3149    2239
  14   8   1 1367788   22930
  16   8   1  186746    6371
  18   8   1   10913    3070
  20   8   1  466437   12891
  22   8   1  580428   14299
  24   8   1     426    3124
  26   8   1   -7983    7983
  28   8   1   10986    5790
  30   8   1   -6128    6221
  32   8   1  119374    9672
  34   8   1    4737    8538
  36   8   1    5638    7475
  38   8   1   56540   11340
  40   8   1   -4328   10510
 -39   9   1   23579    7776
 -37   9   1   90313    9693
 -35   9   1  232298   12138
 -33   9   1   14913    6566
 -31   9   1  317542   17638
 -29   9   1   -5075    5075
 -27   9   1   95676    7705
 -25   9   1   -5137    5137
 -23   9   1   72708    6677
 -21   9   1  420532   14428
 -19   9   1  564940   15807
 -17   9   1   20602    4115
 -15   9   1  120753    5892
 -13   9   1   -2652    2652
 -11   9   1  132076    5564
  -9   9   1  774631   14331
  -7   9   1 1871594   32240
  -5   9   1  377862   10650
  -3   9   1 1697120   27562
  -1   9   1  449012    9671
   1   9   1    4709    2262
   3   9   1   56125    3406
   5   9   1   72232    5260
   7   9   1  376347    8383
   9   9   1 1021142   17175
  11   9   1   93898    4288
  13   9   1  150094    5195
  15   9   1   16087    2812
  17   9   1   80756    5469
  19   9   1  443450   14149
  21   9   1 1062973   23364
  23   9   1   28365    4472
  25   9   1  112987    7983
  27   9   1   31997    5657
  29   9   1    4758    5512
  31   9   1  205289   12199
  33   9   1    1403    5822
  35   9   1    1725    8518
  37   9   1  110911   13416
  39   9   1  -13425   13425
 -38  10   1   22693   12614
 -36  10   1   20031   12575
 -34  10   1   -6365    6365
 -32  10   1   -6520    6520
 -30  10   1  151483   10355
 -28  10   1   68971    8748
 -26  10   1   -4759    5414
 -24  10   1   10792    5761
 -22  10   1  102308    7789
 -20  10   1  133058    8174
 -18  10   1  207472    9586
 -16  10   1   -2856    4667
 -14  10   1    5404    3709
 -12  10   1   25323    3731
 -10  10   1   49903    4384
  -8  10   1   44898    3962
  -6  10   1   45654    4129
  -4  10   1   -2648    2648
  -2  10   1   11180    3082
   0  10   1   -2603    2603
   2  10   1  521159   10645
   4  10   1 1361046   24643
   6  10   1  955048   18068
   8  10   1  160007    5805
  10  10   1  145474    5587
  12  10   1  166018    5844
  14  10   1   20952    3664
  16  10   1    -584    4470
  18  10   1  153361    8430
  20  10   1  419435   15473
  22  10   1   -3736    5056
  24  10   1   17137    5364
  26  10   1    6411    4723
  28  10   1   19212    6574
  30  10   1  118836    9308
  32  10   1   -1297    8351
  34  10   1     431    6696
  36  10   1   23618   11079
  38  10   1  -13907   17739
 -37  11   1   -5505   12206
 -35  11   1   55786   14171
 -33  11   1   24599    7634
 -31  11   1   12772   10656
 -29  11   1   81516    8301
 -27  11   1   -3866    6325
 -25  11   1   -5762    5762
 -23  11   1   10116    6855
 -21  11   1  483138   21446
 -19  11   1 1365535   36828
 -17  11   1   20086    5542
 -15  11   1  140398    7001
 -13  11   1  420410   11729
 -11  11   1   69370    5217
  -9  11   1  388596   13412
  -7  11   1  919755   19838
  -5  11   1  159507    6534
  -3  11   1  180555    6805
  -1  11   1  213075    6736
   1  11   1  251141    7052
   3  11   1  300925    7948
   5  11   1  379344   10346
   7  11   1  290047    8815
   9  11   1   10354    3497
  11  11   1   11223    3177
  13  11   1  384424   10419
  15  11   1   16419    5174
  17  11   1    1772    5628
  19  11   1   29065    5880
  21  11   1    3604    5418
  23  11   1   77588    7931
  25  11   1  142234    9537
  27  11   1   38240    6616
  29  11   1  162713   14434
  31  11   1   49047   11814
  33  11   1    5543   12323
  35  11   1   53040   14985
 -34  12   1   12829   12182
 -32  12   1    2049   10904
 -30  12   1   -2383    6620
 -28  12   1   21784    8017
 -26  12   1   37092    8134
 -24  12   1   41204    7182
 -22  12   1    5460    5668
 -20  12   1   52964    6667
 -18  12   1  159633   10263
 -16  12   1  113529    8323
 -14  12   1  100408    9289
 -12  12   1  232685   10876
 -10  12   1  127288    6552
  -8  12   1  185480    9991
  -6  12   1  178583    7349
  -4  12   1     984    3550
  -2  12   1  170212    6545
   0  12   1   43768    4139
   2  12   1   30388    3919
   4  12   1   39393    4542
   6  12   1  146404    7273
   8  12   1  281657    9329
  10  12   1  196106    8154
  12  12   1   18640    3406
  14  12   1  180896    8665
  16  12   1   -5473    5473
  18  12   1   -2450    6221
  20  12   1   17937    6698
  22  12   1   -6074    6074
  24  12   1   96398    8852
  26  12   1  145086   14313
  28  12   1  239131   14773
  30  12   1   79641   12729
  32  12   1  -10475   10475
  34  12   1    3438   12563
 -33  13   1   69709   14746
 -31  13   1  -10615   10615
 -29  13   1   -8150   10090
 -27  13   1  102384   10182
 -25  13   1   -7139    7139
 -23  13   1   43067    9313
 -21  13   1  133142   10881
 -19  13   1    7571    6319
 -17  13   1  343886   18047
 -15  13   1  283868   10936
 -13  13   1  106463    7237
 -11  13   1    5502    5804
  -9  13   1   57801    7218
  -7  13   1    3257    4968
  -5  13   1  343046   10596
  -3  13   1    5245    4117
  -1  13   1   98504    5950
   1  13   1  896125   20173
   3  13   1     837    5342
   5  13   1   -3074    4693
   7  13   1  192249   10054
   9  13   1   10755    3915
  11  13   1  489115   18201
  13  13   1  585367   16561
  15  13   1   73087    8938
  17  13   1  465822   28473
  19  13   1  213865   12376
  21  13   1   19426    7267
  23  13   1  239398   12417
  25  13   1  150980   10111
  27  13   1  163171   11659
  29  13   1  146343   16262
  31  13   1   -9484   13064
 -30  14   1   -9574    9574
 -28  14   1    9433    9570
 -26  14   1   46317   10495
 -24  14   1   -8429    8429
 -22  14   1   -7278    7278
 -20  14   1   -6389    6389
 -18  14   1   46698    7767
 -16  14   1  136007    8251
 -14  14   1   77901    7920
 -12  14   1  200372   12108
 -10  14   1   -3209    5087
  -8  14   1   49860    5860
  -6  14   1  449522   14123
  -4  14   1   83473    8140
  -2  14   1   90677    6369
   0  14   1   45288    7180
   2  14   1    6733    5250
   4  14   1    7589    5887
   6  14   1    6373    5995
   8  14   1   46510    7571
  10  14   1   14933    4677
  12  14   1   -2443    4137
  14  14   1   35716    7064
  16  14   1   17709    7766
  18  14   1   -6730    6730
  20  14   1   -8396    8396
  22  14   1   88235    8965
  24  14   1   70902   11380
  26  14   1   55580   13024
  28  14   1   54319   11319
  30  14   1   -9394   13020
 -27  15   1    1756    9921
 -25  15   1   78615   11544
 -23  15   1   40530   10279
 -21  15   1   -8302    8582
 -19  15   1    8456    7459
 -17  15   1   21642    9273
 -15  15   1   16586    8801
 -13  15   1   13349    7125
 -11  15   1   13556    6000
  -9  15   1  128220    8456
  -7  15   1    3453    6476
  -5  15   1  150403    9386
  -3  15   1  925930   29432
  -1  15   1  191433   10602
   1  15   1   79598    7081
   3  15   1  247551   18292
   5  15   1   26289    7945
   7  15   1   44005    8029
   9  15   1  195853   11042
  11  15   1  157212   12002
  13  15   1   16654    8192
  15  15   1   39624    8637
  17  15   1   -7702    7702
  19  15   1   26500    7684
  21  15   1   52611   12313
  23  15   1   24235    9162
  25  15   1   21925   12678
  27  15   1   23182   14065
 -24  16   1    7184   10799
 -22  16   1   -9260    9260
 -20  16   1    1305    9658
 -18  16   1   -2768   11560
 -16  16   1   53644    9589
 -14  16   1   38064    8694
 -12  16   1   27017    7478
 -10  16   1   -6564    6564
  -8  16   1   -5587    5587
  -6  16   1   20605    6858
  -4  16   1   32032    5548
  -2  16   1   52709    7758
   0  16   1   38040    7104
   2  16   1   -1362    6714
   4  16   1    8879    8425
   6  16   1    9549    7191
   8  16   1   78889    8478
  10  16   1  113782   10728
  12  16   1   -2786    6612
  14  16   1    6199    8189
  16  16   1   -5940    5940
  18  16   1  -10412   10412
  20  16   1   -8536    9199
  22  16   1  -10046   10046
  24  16   1    4329   14189
 -21  17   1   36185   36764
 -19  17   1   78895   14422
 -17  17   1   38709   15178
 -15  17   1    3786    7406
 -13  17   1   45212    7996
 -11  17   1    3141    6262
  -9  17   1    6819    6540
  -7  17   1   -3949    5702
  -5  17   1   -4267    6309
  -3  17   1   53346    7922
  -1  17   1   32725    7498
   1  17   1   21895    8623
   3  17   1  135743   12834
   5  17   1   35356    9515
   7  17   1   17007    8596
   9  17   1  143652    9713
  11  17   1   11540    9305
  13  17   1    2047    9754
  15  17   1   62742   11764
  17  17   1  -10649   10649
  19  17   1   46786   12078
 -14  18   1   36929   14898
 -12  18   1  143687   12169
 -10  18   1    1522    7570
  -8  18   1   12585   14937
  -6  18   1   45461   12692
  -4  18   1   10739   10574
  -2  18   1    5251    8752
   0  18   1    7762   10033
   2  18   1    8823   11513
   4  18   1   -2631   10331
   6  18   1   10490   10682
   8  18   1   36607   11381
  10  18   1    3446   15806
  12  18   1  -12493   12493
  14  18   1    1070   14594
  -3  19   1  -10380   10954
  -1  19   1    6751   13957
   1  19   1   53798   12794
   3  19   1   -7891   12275
 -46   0   2  -21422   21422
 -44   0   2  122194   16250
 -42   0   2  189110   15058
 -40   0   2   48778   11527
 -38   0   2   68246   10719
 -36   0   2   16361    7515
 -34   0   2   -6059    6059
 -32   0   2   47905    7243
 -30   0   2   -5117    5117
 -28   0   2  809784   21519
 -26   0   2 1179890   27478
 -24   0   2  419536   12871
 -22   0   2  452957   12995
 -20   0   2    5288    3358
 -18   0   2  936645   23198
 -16   0   2   10185    2892
 -14   0   2 4753937  107737
 -12   0   2 1908330   42835
 -10   0   2 5332705  113901
  -8   0   218559166  457514
  -6   0   2  248965    6761
  -4   0   2  806359   17358
  -2   0   2  516834   17768
   0   0   2 1233747   38738
   2   0   2 2920194   72807
   4   0   2 2282284   45120
   6   0   2   31655    2824
   8   0   2  579909   13230
  10   0   2   99778    4252
  12   0   2  767969   18496
  14   0   2    2488    2321
  16   0   2 1361338   32782
  18   0   2 2743899   65088
  20   0   2  925732   24461
  22   0   2   55966    7218
  24   0   2  719352   21196
  26   0   2   36508    5541
  28   0   2   23605    5663
  30   0   2  679643   20427
  32   0   2   67743    8038
  34   0   2   30156    7740
  36   0   2  324931   17104
  38   0   2  571390   24684
  40   0   2  382130   21163
  42   0   2   59081   13891
  44   0   2  -11979   11979
 -45   1   2   14437    9732
 -43   1   2    4056    7856
 -41   1   2   -7182    7182
 -39   1   2   -3017    5872
 -37   1   2   15957    5725
 -35   1   2   -4684    4684
 -33   1   2   -4273    4273
 -31   1   2   -3782    3782
 -29   1   2   62633    5221
 -27   1   2   44983    4206
 -25   1   2  129625    5476
 -23   1   2   -2455    2455
 -21   1   2   46652    3227
 -19   1   2   51399    3251
 -17   1   2   85080    3505
 -15   1   2   62893    3182
 -13   1   2  468441    8403
 -11   1   2 3329539   47848
  -7   1   2 9326311  133016
  -5   1   2 1510784   23436
  -3   1   2 9068234  131611
  -1   1   2   95599    2809
   1   1   2  423549    7253
   3   1   2  777693   12184
   5   1   2 5211178   71854
   7   1   2  213171    4149
   9   1   2  124408    3566
  11   1   2  189711    4407
  13   1   2   12323    1868
  15   1   2  296652    6822
  17   1   2 1111921   18636
  19   1   2   17049    2531
  21   1   2    7980    2670
  23   1   2  123234    5323
  25   1   2   24438    3575
  27   1   2  104538    6489
  29   1   2   -3587    3587
  31   1   2   38566    4819
  33   1   2   -4358    4428
  35   1   2    3874    5096
  37   1   2   37651    6045
  39   1   2   56793    8143
  41   1   2    1752    6742
  43   1   2    4094    9046
 -44   2   2   19734   10461
 -42   2   2   37291    7987
 -40   2   2   -6039    6039
 -38   2   2    3437    6284
 -36   2   2   15798    5380
 -34   2   2    3217    4966
 -32   2   2   39654    5108
 -30   2   2   55507    5416
 -28   2   2  389734   10055
 -26   2   2  319033    9178
 -24   2   2  237959    7528
 -22   2   2  437780    9756
 -20   2   2   43914    3281
 -18   2   2  539238   10162
 -16   2   2 3003529   43191
 -14   2   2  415266    7723
 -12   2   2  716667   11348
 -10   2   2  105274    3208
  -8   2   2 7505043  107402
  -6   2   2 5253087   79081
  -4   2   2    8605    1034
  -2   2   2 8759128  133451
   0   2   2  249224    5362
   2   2   2 2166219   31674
   4   2   2 1086171   15934
   6   2   2 9125737  130332
   8   2   2 1764891   27214
  10   2   2 1994193   31722
  12   2   2  791817   13479
  14   2   2  965039   15796
  16   2   2 3025144   45500
  18   2   2  125055    4434
  20   2   2 1728446   26838
  22   2   2  900515   15798
  24   2   2  715794   13844
  26   2   2 1060754   20097
  28   2   2   10861    3768
  30   2   2   52514    5190
  32   2   2   19838    4430
  34   2   2    7537    4737
  36   2   2   41612    7349
  38   2   2  264726   12312
  40   2   2  148113    9228
  42   2   2   34663    7654
  44   2   2   23856   10858
 -45   3   2    -708    8895
 -43   3   2   -8675    8675
 -41   3   2   -5010    6446
 -39   3   2   -6569    6569
 -37   3   2   10849    5919
 -35   3   2   37411    6060
 -33   3   2   -4637    4637
 -31   3   2  118901    6718
 -29   3   2  335882   10575
 -27   3   2   48717    4620
 -25   3   2  137623    5756
 -23   3   2  552498   11306
 -21   3   2 1349716   21706
 -19   3   2   78863    3719
 -17   3   2  149558    4823
 -15   3   2   89143    3480
 -13   3   2  311984    6381
 -11   3   2  184702    4460
  -9   3   2 1313483   20885
  -7   3   2 2737479   39485
  -5   3   2  735747   11697
  -3   3   2 6558198   94114
  -1   3   2  186266    5609
   1   3   2 5086349   76472
   3   3   227176297  630243
   5   3   2 2678770   39447
   7   3   2  619393   10481
   9   3   2  433443    8318
  11   3   2  128311    4278
  13   3   2  678647   12467
  15   3   2   18836    2819
  17   3   2   12319    2546
  19   3   2   -1752    1752
  21   3   2   23005    2916
  23   3   2  204254    7843
  25   3   2   21573    3319
  27   3   2  111811    8206
  29   3   2  112110    6014
  31   3   2  326047   11184
  33   3   2   -3701    3701
  35   3   2   -3910    3910
  37   3   2   12517    4530
  39   3   2   -1161    5265
  41   3   2   18008    9338
  43   3   2    5903   10496
 -44   4   2   -7326    7326
 -42   4   2   -5802    5802
 -40   4   2   51423    7127
 -38   4   2   -6046    6046
 -36   4   2  193481   10858
 -34   4   2  201462    9492
 -32   4   2   94781    6827
 -30   4   2  339824   11521
 -28   4   2  116648    6539
 -26   4   2   19045    3663
 -24   4   2 1439339   23020
 -22   4   2  382602    9958
 -20   4   2   89212    4024
 -18   4   2 2617633   38467
 -16   4   2  168490    4815
 -14   4   2  116704    3783
 -12   4   2  977637   14876
 -10   4   2   16411    1972
  -8   4   2 1156443   17593
  -6   4   2 3875658   56679
  -4   4   2  569262    9826
  -2   4   2  121697    3981
   0   4   2 1227503   20559
   2   4   212913120  188120
   4   4   2 3561941   51155
   6   4   2 6633402   95716
   8   4   2 2113877   30247
  10   4   2 1932872   28345
  12   4   2 1792818   28678
  14   4   2  720039   13343
  16   4   2  268960    7050
  18   4   2   54247    3832
  20   4   2 2412644   38776
  22   4   2 1684822   27951
  24   4   2   66144    4735
  26   4   2 1490027   28381
  28   4   2    6128    4419
  30   4   2   17972    5650
  32   4   2   98948    7690
  34   4   2    8769    6361
  36   4   2  111631   10676
  38   4   2   28766    8655
  40   4   2   17551    8259
  42   4   2  117962   12769
 -43   5   2   -9798    9798
 -41   5   2   -6805    6805
 -39   5   2   67630    8625
 -37   5   2   19808    5498
 -35   5   2   48525    5844
 -33   5   2   67817    5790
 -31   5   2   79986    6596
 -29   5   2    4721    4285
 -27   5   2    4046    3733
 -25   5   2   49155    3892
 -23   5   2   57290    3776
 -21   5   2  106019    4508
 -19   5   2  594880   11058
 -17   5   2  196323    5881
 -15   5   2   32611    2652
 -13   5   2  199552    5389
 -11   5   2  473917    9655
  -9   5   2  885799   15787
  -7   5   2   11450    1504
  -5   5   2 1632041   24703
  -3   5   2   38744    2467
  -1   5   2  786727   14422
   1   5   2  253786    6019
   3   5   2 3299191   48774
   5   5   2 1730403   26594
   7   5   2  105800    3708
   9   5   2  294804    6176
  11   5   2  135533    4152
  13   5   2   -1677    1677
  15   5   2  439702    8965
  17   5   2  903727   16521
  19   5   2  452788   10520
  21   5   2  726923   14326
  23   5   2    1239    2965
  25   5   2  147256    6824
  27   5   2   29402    4707
  29   5   2   79611    6733
  31   5   2   12074    5671
  33   5   2   -6535    6535
  35   5   2   78290    8024
  37   5   2   23379    7453
  39   5   2   40968    8297
  41   5   2   -8856    8856
 -42   6   2   -6431    6669
 -40   6   2    2729    5175
 -38   6   2  539249   15440
 -36   6   2   44298    6030
 -34   6   2  326414   11621
 -32   6   2  610139   16845
 -30   6   2  155679    6983
 -28   6   2  112795    5530
 -26   6   2  174899    7511
 -24   6   2   -1967    3662
 -22   6   2  167116    6326
 -20   6   2   47977    3908
 -18   6   2   -1961    1961
 -16   6   2  556835   11867
 -14   6   2   95889    4298
 -12   6   2   60294    3496
 -10   6   2 2445052   39485
  -8   6   2    3253    1675
  -6   6   2  741378   11987
  -4   6   2 2062038   32985
  -2   6   2  209224    5710
   0   6   2  442145    8914
   2   6   2 6104886   95319
   4   6   2 3786671   55009
   6   6   2 5806088   79883
   8   6   2 5597278   80349
  10   6   2  179538    5323
  12   6   2  296620    6610
  14   6   2   17665    2324
  16   6   2   52340    3232
  18   6   2  814304   16200
  20   6   2  178974    7169
  22   6   2  460129   12744
  24   6   2  500156   13277
  26   6   2   80866    5498
  28   6   2   -4292    4292
  30   6   2   29267    5344
  32   6   2   12551    5559
  34   6   2  254342   12183
  36   6   2   58202    9027
  38   6   2   -6319    6319
  40   6   2   44161    9205
  42   6   2    1380   15719
 -41   7   2   -5057    6644
 -39   7   2   28386    6072
 -37   7   2  126508    8682
 -35   7   2     528    5665
 -33   7   2   56922    6113
 -31   7   2  104522    6950
 -29   7   2   -3412    4201
 -27   7   2   -3611    4902
 -25   7   2   -3271    3271
 -23   7   2   16806    3388
 -21   7   2   18563    3837
 -19   7   2   23663    3500
 -17   7   2   -3074    3074
 -15   7   2  205150    6929
 -13   7   2    4031    2469
 -11   7   2  488181   10102
  -9   7   2  104442    4487
  -7   7   2 1162699   18358
  -5   7   2 1265893   20192
  -3   7   2    8485    2060
  -1   7   2  129469    4732
   1   7   2 1139063   19965
   3   7   2   -2359    2359
   5   7   2  120301    4219
   7   7   2 1613066   24713
   9   7   2  404923    8544
  11   7   2  869384   15053
  13   7   2  271408    7052
  15   7   2   29067    3217
  17   7   2  429415   10822
  19   7   2  156972    5648
  21   7   2   35840    5040
  23   7   2  212035    9759
  25   7   2   26633    5198
  27   7   2   -2150    5461
  29   7   2   22768    7673
  31   7   2   48843    8418
  33   7   2  117076   10401
  35   7   2    2076    8826
  37   7   2   -8802    8802
  39   7   2   -1325   13616
  41   7   2   -4932   11897
 -40   8   2   34587   13951
 -38   8   2  186862   11719
 -36   8   2  249611   11178
 -34   8   2  205328   11378
 -32   8   2  490293   17891
 -30   8   2  294238   11479
 -28   8   2  241974   11544
 -26   8   2   52042    6853
 -24   8   2   -3916    4603
 -22   8   2   84396    6494
 -20   8   2  222170    8359
 -18   8   2   55377    4651
 -16   8   2  278502    8848
 -14   8   2 1170697   20258
 -12   8   2 1726900   27614
 -10   8   2  856288   15851
  -8   8   2 2120032   32590
  -6   8   2  672800   12248
  -4   8   2 1205775   21315
  -2   8   2  203658    5805
   0   8   2   24068    3125
   2   8   2   20713    3143
   4   8   2   50106    3909
   6   8   2 2053509   31053
   8   8   2  989940   16285
  10   8   2   76989    3722
  12   8   2   59681    3445
  14   8   2  498149   11339
  16   8   2  227854    7361
  18   8   2  179256    6686
  20   8   2   -1582    3324
  22   8   2  891813   22555
  24   8   2   13464    7780
  26   8   2   55768    6954
  28   8   2  119957    9125
  30   8   2  123435    9956
  32   8   2  323358   18321
  34   8   2  103977   12048
  36   8   2   15459    9188
  38   8   2   -9943    9943
  40   8   2  -11846   11846
 -39   9   2   71161   10389
 -37   9   2   16389    8263
 -35   9   2   12800    6755
 -33   9   2   32885    5259
 -31   9   2  323716   20074
 -29   9   2   13084    6049
 -27   9   2    4025    6038
 -25   9   2   -5465    5465
 -23   9   2  140601    8649
 -21   9   2   -2252    4725
 -19   9   2   23554    4729
 -17   9   2   11319    4051
 -15   9   2   58926    4347
 -13   9   2  794122   15702
 -11   9   2  562952   12261
  -9   9   2 1674046   28211
  -7   9   2  238538    6542
  -5   9   2   -2681    2681
  -3   9   2   86713    4167
  -1   9   2   -2737    2737
   1   9   2   -2650    2650
   3   9   2   38932    4122
   5   9   2  812308   15933
   7   9   2   29360    3205
   9   9   2   85867    4147
  11   9   2  279546    8048
  13   9   2  529822   10910
  15   9   2   16752    3087
  17   9   2  685605   15752
  19   9   2   -3631    3631
  21   9   2  162613    7661
  23   9   2   -4689    4689
  25   9   2    5620    5532
  27   9   2  328000   15090
  29   9   2   28376    7172
  31   9   2   55067    9328
  33   9   2    3250    7172
  35   9   2   12508    8625
  37   9   2   -9687    9687
  39   9   2     970   14075
 -38  10   2   -2531   11778
 -36  10   2   26490    8154
 -34  10   2   95782   12617
 -32  10   2   -6272    6272
 -30  10   2  130602   12151
 -28  10   2   69841    8901
 -26  10   2    1492    5901
 -24  10   2  142899    9585
 -22  10   2   49279    7292
 -20  10   2   -4510    4510
 -18  10   2  425299   13791
 -16  10   2    3812    4466
 -14  10   2  660905   14223
 -12  10   2 1165054   20554
 -10  10   2  129695    6172
  -8  10   2  981995   17284
  -6  10   2 1250984   22668
  -4  10   2  158602    6663
  -2  10   2  565436   12101
   0  10   2  619876   13145
   2  10   2  706951   14773
   4  10   2 1867235   34518
   6  10   2 1181427   21562
   8  10   2  463805   10634
  10  10   2 1363751   23082
  12  10   2  398309   10413
  14  10   2   80966    5132
  16  10   2  220683    8292
  18  10   2   56719    4625
  20  10   2  539836   17058
  22  10   2  279791   12169
  24  10   2    2599    6267
  26  10   2  118669    9822
  28  10   2   -6075    6075
  30  10   2   11612    7273
  32  10   2   92814   10385
  34  10   2     634    7980
  36  10   2   10183   10412
 -37  11   2   11919   13397
 -35  11   2   40670    9150
 -33  11   2  123886   14904
 -31  11   2    4995    8043
 -29  11   2  123338   11750
 -27  11   2   89316    8588
 -25  11   2  135165    9699
 -23  11   2   20419    5793
 -21  11   2   -3783    5425
 -19  11   2   34644    6457
 -17  11   2   66830    6767
 -15  11   2   65646    5432
 -13  11   2   26162    4525
 -11  11   2  468022   12695
  -9  11   2   56740    4395
  -7  11   2   68247    4739
  -5  11   2  156630    5856
  -3  11   2   58598    3902
  -1  11   2   27881    4264
   1  11   2   34938    4116
   3  11   2  228773    8204
   5  11   2  177015    7187
   7  11   2  205095    8450
   9  11   2   -2297    3386
  11  11   2   29866    3967
  13  11   2  475176   13075
  15  11   2  222441    9542
  17  11   2   37788    5958
  19  11   2   20052    5344
  21  11   2   31612    6678
  23  11   2   78796    7242
  25  11   2   75845    8395
  27  11   2   13644    8883
  29  11   2  132356   13741
  31  11   2   95999   12870
  33  11   2   16216    6001
  35  11   2     457   12224
 -34  12   2   36547   13889
 -32  12   2   87824   15194
 -30  12   2   -6783    6783
 -28  12   2  261751   14555
 -26  12   2  122139    9673
 -24  12   2    7689    6961
 -22  12   2  118010    8577
 -20  12   2   92073    8124
 -18  12   2  193183   10378
 -16  12   2  609666   21883
 -14  12   2  196890   13303
 -12  12   2   34199    5377
 -10  12   2   43754    5605
  -8  12   2   10788    4166
  -6  12   2   -3341    3341
  -4  12   2  134203    5945
  -2  12   2   33566    4891
   0  12   2   28372    4814
   2  12   2  116823    7110
   4  12   2   18363    5664
   6  12   2  393686   12315
   8  12   2  345933   17817
  10  12   2  142641    7156
  12  12   2  385307   12303
  14  12   2   -1526    4090
  16  12   2   -5645    5645
  18  12   2  130305    8685
  20  12   2  136150   10958
  22  12   2  585986   24342
  24  12   2  893028   31478
  26  12   2  186844   12749
  28  12   2  123709   14039
  30  12   2   64159   13941
  32  12   2   -4633   12680
  34  12   2    4285   12662
 -33  13   2    2019   12388
 -31  13   2   -8667    8667
 -29  13   2   -7755    7755
 -27  13   2   49544    8694
 -25  13   2   11088    7360
 -23  13   2    4969    7143
 -21  13   2   18664    6885
 -19  13   2    3327    5907
 -17  13   2   14653    6029
 -15  13   2   47098    5671
 -13  13   2   -5056    5056
 -11  13   2   24274    7650
  -9  13   2   -2845    4361
  -7  13   2   -4969    4969
  -5  13   2   41857    4802
  -3  13   2   40919    5437
  -1  13   2   95463    7153
   1  13   2   -4864    4864
   3  13   2   -4812    4812
   5  13   2    7432    5366
   7  13   2   78309    6936
   9  13   2   -5790    5882
  11  13   2   32262    5233
  13  13   2   23736    5765
  15  13   2   -2795    4371
  17  13   2   77682    8016
  19  13   2   59784    8374
  21  13   2  193961   12074
  23  13   2  134936   10970
  25  13   2   42352   11263
  27  13   2   32261    7909
  29  13   2  -11738   11738
  31  13   2  -11936   11936
 -30  14   2   -7721   11715
 -28  14   2   16519   11103
 -26  14   2   46987    9680
 -24  14   2    3785    7400
 -22  14   2    8082    7206
 -20  14   2   17801    7275
 -18  14   2   11451    7203
 -16  14   2  319071   13117
 -14  14   2   82685    9460
 -12  14   2   -4051    5420
 -10  14   2  123646   10931
  -8  14   2   57311    5947
  -6  14   2    5036    4553
  -4  14   2  170470   10616
  -2  14   2   -5139    5139
   0  14   2  120209    8346
   2  14   2  189051   10635
   4  14   2    -167    6577
   6  14   2  294341   14617
   8  14   2   23486    6347
  10  14   2   50284    6550
  12  14   2  304185   14451
  14  14   2   18818    6308
  16  14   2  102449    8724
  18  14   2  118513    9120
  20  14   2  203541   14040
  22  14   2  123824   10932
  24  14   2   29583    7892
  26  14   2   -8657   11928
  28  14   2  -10203   10203
 -27  15   2   -3931   10958
 -25  15   2   34187   12974
 -23  15   2   -7977    8671
 -21  15   2   42168    9120
 -19  15   2   24067    8592
 -17  15   2   11747    7634
 -15  15   2   29016    7929
 -13  15   2   50764    7693
 -11  15   2    6242    6464
  -9  15   2   38248    4691
  -7  15   2   -6659    6659
  -5  15   2    5361    5400
  -3  15   2   83884    7590
  -1  15   2    7082    6787
   1  15   2   30012    7505
   3  15   2   22516    7450
   5  15   2   69195    8619
   7  15   2   13346    6342
   9  15   2   -4562    6750
  11  15   2  125196   10950
  13  15   2    -680    6850
  15  15   2   -3570    4011
  17  15   2  103761   11360
  19  15   2   22571    8098
  21  15   2    4527   12565
  23  15   2   -3964   11326
  25  15   2   -9829   11097
 -24  16   2   66178   14180
 -22  16   2    6111   10600
 -20  16   2   -3558    8688
 -18  16   2   92438   11895
 -16  16   2   13222    8583
 -14  16   2   36465   10685
 -12  16   2  199383   15381
 -10  16   2   21358    6048
  -8  16   2   92219    7514
  -6  16   2   -2504    6795
  -4  16   2    6597    7404
  -2  16   2  202639   11513
   0  16   2   32637    7539
   2  16   2   62746    8410
   4  16   2  292281   14302
   6  16   2   87672   11076
   8  16   2   12311    7025
  10  16   2   70504    9676
  12  16   2   -7226    7226
  14  16   2   -1911    9527
  16  16   2   50899   11183
  18  16   2    5422   12602
  20  16   2   85211   13237
  22  16   2   21467    9850
 -21  17   2   38791   31554
 -19  17   2   21215   13399
 -17  17   2   19348   10923
 -15  17   2   12348   10918
 -13  17   2   15396    8743
 -11  17   2  142021   11068
  -9  17   2   34865    8695
  -7  17   2   21474    7762
  -5  17   2   20629    8573
  -3  17   2   40806    8860
  -1  17   2   -6467    7846
   1  17   2   15933    7894
   3  17   2   -2852    9161
   5  17   2   -7356    7356
   7  17   2    3495    8594
   9  17   2    4763    9158
  11  17   2   -3847    9288
  13  17   2  -11379   11958
  15  17   2    9304   10460
  17  17   2    1954   11656
  19  17   2   34556   13590
 -14  18   2    8858    9262
 -12  18   2   50792    9836
 -10  18   2   16075    9623
  -8  18   2     291    9448
  -6  18   2    1820   10367
  -4  18   2   17574    9977
  -2  18   2    -868   10175
   0  18   2   34803   10012
   2  18   2   33320   13121
   4  18   2   17616    9483
   6  18   2   32020   12180
   8  18   2    4065    8407
  10  18   2  -11454   11729
  12  18   2  -10310   10310
  -1  19   2   76005   33435
   1  19   2   36475   26922
 -45   1   3    7955    9017
 -43   1   3  148510    9922
 -41   1   3   20310    7796
 -39   1   3   -5681    5681
 -37   1   3   -5642    5642
 -35   1   3   -4725    4725
 -33   1   3   37535    5240
 -31   1   3  204963    8334
 -29   1   3    3179    3252
 -27   1   3 1864953   30984
 -25   1   3  717255   14396
 -23   1   3   10276    2327
 -21   1   3  176402    5693
 -19   1   3     356    2229
 -17   1   3   26352    2539
 -15   1   3 4014926   59267
 -13   1   3 2964420   43265
 -11   1   3 2292554   34438
  -9   1   3 2622074   37925
  -7   1   3    5214    1683
  -5   1   3  537850    8857
  -3   1   3  112688    2930
  -1   1   3  274442    4734
   1   1   315451264  298588
   3   1   3 1129404   16772
   5   1   3  260764    5003
   7   1   3  102441    2913
   9   1   3 2659994   38715
  11   1   3  412110    7563
  13   1   3 4162629   56664
  15   1   3  447636    8793
  17   1   3 1332271   20768
  19   1   3 1457353   23169
  21   1   3   31255    3290
  23   1   3  361700    8731
  25   1   3  764513   15529
  27   1   3    -437    2973
  29   1   3  524718   13652
  31   1   3   96516    6796
  33   1   3    5898    5486
  35   1   3   33858    6125
  37   1   3   82925    7250
  39   1   3   43698    6644
  41   1   3   28917    7327
  43   1   3   -7871    7871
 -44   2   3   -1425    8220
 -42   2   3   37413    7471
 -40   2   3    3925    7087
 -38   2   3   -7313    7313
 -36   2   3   -4649    4649
 -34   2   3   92101    6596
 -32   2   3  388204   12304
 -30   2   3   -4304    4304
 -28   2   3  777987   16669
 -26   2   3   22161    3671
 -24   2   3  105498    4773
 -22   2   3  333594    7870
 -20   2   3    7754    2512
 -18   2   3   18215    2409
 -16   2   3  427780    8076
 -14   2   3 6320093   88202
 -12   2   3 1890292   29643
 -10   2   3 1161789   18784
  -8   2   3   -1085    1085
  -6   2   3 3306077   49354
  -4   2   3 7248992   99807
  -2   2   3   46813    1988
   0   2   3  537856    9374
   2   2   3 4309062   62276
   4   2   3   -1104    1104
   6   2   3   22968    1584
   8   2   3   26333    1939
  10   2   3  285631    6026
  12   2   3  684488   12006
  14   2   3    9823    2201
  16   2   3  315692    7270
  18   2   3  187924    5551
  20   2   3  616939   12141
  22   2   3  474023   10725
  24   2   3  256971    7438
  26   2   3   62409    4333
  28   2   3   36873    4134
  30   2   3  203628    7984
  32   2   3   63885    5713
  34   2   3   15412    4707
  36   2   3   16448    5116
  38   2   3     883    5499
  40   2   3   -5247    5247
  42   2   3   51343    9576
 -45   3   3   27000    9392
 -43   3   3   -7285    7285
 -41   3   3  136417   10108
 -39   3   3   39457    6148
 -37   3   3  110057    8174
 -35   3   3  367809   12768
 -33   3   3  199851    8535
 -31   3   3   86192    6699
 -29   3   3  686903   15865
 -27   3   3  434683   10491
 -25   3   3  437678    9688
 -23   3   3 1315723   21507
 -21   3   3  298549    7108
 -19   3   3  204487    5641
 -17   3   3  862254   14243
 -15   3   3 1578494   23901
 -13   3   3 1179398   18732
 -11   3   3 2544054   38173
  -9   3   3  178713    4579
  -7   3   3  888096   13827
  -5   3   3 2130241   30586
  -3   3   3 2993289   43061
  -1   3   3    1998    1607
   1   3   3   14446    1658
   3   3   3 7859880  108168
   5   3   3  312259    5942
   7   3   3  241913    5196
   9   3   3  227954    5598
  11   3   3  404264    8658
  13   3   3  200196    6069
  15   3   3 1027931   18120
  17   3   3 1716432   28203
  19   3   3 2617221   41544
  21   3   3 2850137   46431
  23   3   3 1121440   20707
  25   3   3  390711   10990
  27   3   3  449980   12522
  29   3   3    9843    4927
  31   3   3   11197    5616
  33   3   3   49121    7854
  35   3   3    -240    6602
  37   3   3    -261    6484
  39   3   3   75667    9410
  41   3   3   -7731    8517
  43   3   3  111932   11981
 -44   4   3    3809   10098
 -42   4   3   -6787    6787
 -40   4   3   17961    5894
 -38   4   3   -4963    4963
 -36   4   3   39065    5606
 -34   4   3    -979    5805
 -32   4   3   32457    5741
 -30   4   3   95063    5961
 -28   4   3   13565    3639
 -26   4   3   78494    4379
 -24   4   3   48468    3635
 -22   4   3 1379526   22357
 -20   4   3    -249    2053
 -18   4   3  157566    5043
 -16   4   3  596057   10830
 -14   4   3 5783538   84502
 -12   4   3   44877    2498
 -10   4   3 1545129   23693
  -8   4   3 2811363   42775
  -6   4   3   58196    2632
  -4   4   3    -110    1403
  -2   4   3  653190   11886
   0   4   3 2028845   31929
   2   4   3 1173092   20039
   4   4   3   59357    2678
   6   4   3 1175208   18069
   8   4   3   51532    2483
  10   4   3  324680    6904
  12   4   3  442418    9805
  14   4   3 2277125   37793
  16   4   3   30322    3203
  18   4   3 1159751   20056
  20   4   3    5014    3157
  22   4   3  353552    9790
  24   4   3    9603    3961
  26   4   3   63251    5482
  28   4   3     177    4703
  30   4   3   -4753    4753
  32   4   3   -5694    5694
  34   4   3   -6608    6608
  36   4   3   43635    8689
  38   4   3   10591    7687
  40   4   3   62925    9741
  42   4   3    -945    9777
 -43   5   3   -9714    9938
 -41   5   3   -6234    6234
 -39   5   3   72625    6571
 -37   5   3  188805    9112
 -35   5   3   43986    6694
 -33   5   3  216366   10111
 -31   5   3  290651   12310
 -29   5   3  300718    9610
 -27   5   3   65062    4558
 -25   5   3  308299    8311
 -23   5   3    7781    3072
 -21   5   3  904086   16436
 -19   5   3  144058    4764
 -17   5   3   -2117    2117
 -15   5   3  988083   16922
 -13   5   3   -1799    1799
 -11   5   3  110985    3975
  -9   5   3 3646344   55293
  -7   5   3  318895    6699
  -5   5   3  271928    5917
  -3   5   3   81496    3124
  -1   5   3  725196   13324
   1   5   3  158265    5064
   3   5   3 4862932   71102
   5   5   3 7440511  107442
   7   5   3 3868095   58397
   9   5   3 4449120   64215
  11   5   3   56301    3167
  13   5   3  524359   10486
  15   5   3 1397868   24638
  17   5   3  297597    7953
  19   5   3  110233    5487
  21   5   3  181601    6575
  23   5   3  198876    7880
  25   5   3   43453    5013
  27   5   3  433438   13149
  29   5   3    6926    5363
  31   5   3    8984    5357
  33   5   3  115414    8907
  35   5   3   42656    7859
  37   5   3   -8068    8068
  39   5   3    -265   10090
  41   5   3   66338   12302
 -42   6   3    2062    8317
 -40   6   3   -6400    6400
 -38   6   3   18381    4872
 -36   6   3   18292    5304
 -34   6   3   -5431    5431
 -32   6   3   46114    6348
 -30   6   3   37088    5123
 -28   6   3  101801    5947
 -26   6   3   -3387    3387
 -24   6   3   -3649    3649
 -22   6   3   -2235    2235
 -20   6   3  168470    5701
 -18   6   3     590    2254
 -16   6   3    5391    2098
 -14   6   3   50803    3366
 -12   6   3  231132    7286
 -10   6   3  527740   11253
  -8   6   3    6687    1863
  -6   6   3 1073013   17883
  -4   6   3   50462    2706
  -2   6   3  739691   12657
   0   6   3 1030209   18020
   2   6   3 1622141   25946
   4   6   3 2281193   35651
   6   6   3 4200152   60890
   8   6   3  118578    4486
  10   6   3 1744934   27190
  12   6   3   25062    2693
  14   6   3  804516   14384
  16   6   3   50337    4282
  18   6   3   22628    3263
  20   6   3  426471   10493
  22   6   3   32760    4430
  24   6   3   37509    4428
  26   6   3  149246    7985
  28   6   3   -4475    4475
  30   6   3   65512    6748
  32   6   3   87498    7889
  34   6   3    1628    6049
  36   6   3    1823    6887
  38   6   3   -7845    7845
  40   6   3   -9989    9989
 -41   7   3   13768   11339
 -39   7   3   25192    6144
 -37   7   3  196936   12199
 -35   7   3   -4556    4556
 -33   7   3  188056   10105
 -31   7   3  405654   16273
 -29   7   3  256556   11146
 -27   7   3  129182    7541
 -25   7   3   44792    5872
 -23   7   3   43523    4920
 -21   7   3  190137    6889
 -19   7   3  309143    8496
 -17   7   3  164448    6144
 -15   7   3  545024   12078
 -13   7   3  805771   15775
 -11   7   3 1949194   30559
  -9   7   3  554620   11133
  -7   7   3  194201    5525
  -5   7   3  751901   13283
  -3   7   3   -1167    1750
  -1   7   3  765114   14587
   1   7   3 1233407   23217
   3   7   3 1380169   23438
   5   7   3  889278   15652
   7   7   3 6849907   97982
   9   7   3 1434809   24482
  11   7   3  396983    8914
  13   7   3  538179   11321
  15   7   3      27    2945
  17   7   3   83338    3943
  19   7   3 1651859   29485
  21   7   3    5167    4395
  23   7   3  766885   20103
  25   7   3  433062   19252
  27   7   3   16308    6832
  29   7   3  353559   15429
  31   7   3  137326   11270
  33   7   3   89832   10532
  35   7   3   88839   12079
  37   7   3   18781   11286
  39   7   3  -14338   19463
 -40   8   3    9568   10219
 -38   8   3    -472    6178
 -36   8   3  162599   13856
 -34   8   3   -6113    6113
 -32   8   3   60445    6794
 -30   8   3  212161   10935
 -28   8   3   30909    5299
 -26   8   3   -1842    6156
 -24   8   3   -2400    4766
 -22   8   3   80924    6638
 -20   8   3   33953    5186
 -18   8   3   27865    3953
 -16   8   3   10237    3176
 -14   8   3   18079    3350
 -12   8   3   63497    4148
 -10   8   3   31892    3558
  -8   8   3  116513    4453
  -6   8   3    7682    2381
  -4   8   3    5936    2186
  -2   8   3   85792    4354
   0   8   3  179445    5796
   2   8   3  462481   10790
   4   8   3   18937    3245
   6   8   3  664011   13821
   8   8   3 1767630   27774
  10   8   3   59174    3706
  12   8   3  454847   10358
  14   8   3  428975   10513
  16   8   3  130669    6340
  18   8   3  639161   16795
  20   8   3  283256   11708
  22   8   3  474915   16195
  24   8   3   66691    6982
  26   8   3   -4559    6304
  28   8   3  133178   10701
  30   8   3   12464    7699
  32   8   3    7953    7270
  34   8   3   61920   10103
  36   8   3  -11394   11394
  38   8   3  -14106   14106
 -39   9   3     483   10622
 -37   9   3   -6240    6240
 -35   9   3   43236    7938
 -33   9   3   68819    8168
 -31   9   3  203275   11647
 -29   9   3  468020   21454
 -27   9   3  190923   13483
 -25   9   3    8120    5098
 -23   9   3  184919    9868
 -21   9   3   38565    5410
 -19   9   3  512164   14230
 -17   9   3  262045    8573
 -15   9   3  581918   12393
 -13   9   3 1164018   20560
 -11   9   3  683315   14810
  -9   9   3   -2256    2256
  -7   9   3  367296    8558
  -5   9   3  525599   10863
  -3   9   3  328942    8583
  -1   9   3  622296   12137
   1   9   3   27525    3401
   3   9   3  738923   15812
   5   9   3 5671378   88292
   7   9   3 1022068   19112
   9   9   3 2356886   36432
  11   9   3 1961871   30922
  13   9   3   56684    3746
  15   9   3  414619   12271
  17   9   3  447540   13580
  19   9   3   23305    5138
  21   9   3  137401    9766
  23   9   3     934    6513
  25   9   3   -5973    6701
  27   9   3  470122   21520
  29   9   3  101707    9587
  31   9   3  145885   12158
  33   9   3  229943   15762
  35   9   3    8658    9375
  37   9   3   31697   11570
 -38  10   3  -12485   12485
 -36  10   3  -10464   10464
 -34  10   3   45355    8095
 -32  10   3   10331    8779
 -30  10   3   47858    7457
 -28  10   3  127914   11630
 -26  10   3   -7923    7923
 -24  10   3   12641    6358
 -22  10   3  411322   14700
 -20  10   3  199696    9682
 -18  10   3   57921    6750
 -16  10   3   47984    4586
 -14  10   3  191452    7416
 -12  10   3  353576   10217
 -10  10   3  112949    6040
  -8  10   3    4301    2844
  -6  10   3   17232    3346
  -4  10   3  194565    6667
  -2  10   3    5356    3343
   0  10   3   32905    3892
   2  10   3  189041    7394
   4  10   3   70144    4847
   6  10   3    3252    3914
   8  10   3   23255    4179
  10  10   3  416104   10942
  12  10   3  335289    8982
  14  10   3  660350   14266
  16  10   3  153675    7371
  18  10   3  177620    8442
  20  10   3  129338    7912
  22  10   3  110470    9289
  24  10   3   70873    8999
  26  10   3  143882   11220
  28  10   3   -6756    6756
  30  10   3    9243    7084
  32  10   3   18466    9519
  34  10   3   -8768    8768
  36  10   3   22274   12940
 -37  11   3    2022   11317
 -35  11   3   41318    9182
 -33  11   3  107682    9493
 -31  11   3   64898    8316
 -29  11   3  473559   20215
 -27  11   3  334040   18185
 -25  11   3   -1496    7383
 -23  11   3   17150    5973
 -21  11   3   19386    5815
 -19  11   3    8892    5690
 -17  11   3  373422   11488
 -15  11   3   43844    5198
 -13  11   3  213443   10549
 -11  11   3  525038   15432
  -9  11   3   -2712    2712
  -7  11   3  168869    6972
  -5  11   3   17474    3054
  -3  11   3    7108    3456
  -1  11   3  315823    9030
   1  11   3   10451    3730
   3  11   3  356929   10577
   5  11   3  715198   15887
   7  11   3   42090    4945
   9  11   3  126125    6169
  11  11   3   20119    3852
  13  11   3  139372    6920
  15  11   3  533500   14987
  17  11   3 1206839   28952
  19  11   3  920275   23835
  21  11   3  343192   12267
  23  11   3  304895   14379
  25  11   3  195985   14632
  27  11   3   54825    8164
  29  11   3   34190    8056
  31  11   3    -580    7467
  33  11   3   16535    8230
  35  11   3   -7146   13553
 -34  12   3   -9177    9177
 -32  12   3   78752   15644
 -30  12   3    2033    8247
 -28  12   3  274407   15810
 -26  12   3  110324   10045
 -24  12   3   13362    7498
 -22  12   3   57531    8039
 -20  12   3   34871    6801
 -18  12   3   -5541    5541
 -16  12   3   62122    6894
 -14  12   3   30271    5497
 -12  12   3   44751    5977
 -10  12   3  470279   13178
  -8  12   3   59137    4962
  -6  12   3  292505    9291
  -4  12   3  210405    8207
  -2  12   3     770    4262
   0  12   3    3396    4726
   2  12   3   16304    5076
   4  12   3   22331    5554
   6  12   3   40009    5417
   8  12   3  562347   15834
  10  12   3  107123    7799
  12  12   3  196653    9388
  14  12   3  183592    8639
  16  12   3   43308    5372
  18  12   3   26262    4669
  20  12   3  193045   12289
  22  12   3   48348    7922
  24  12   3    1453    9834
  26  12   3     996    9470
  28  12   3    6668   10237
  30  12   3   10272   12720
  32  12   3   44313   12990
 -33  13   3   -9465    9465
 -31  13   3   90330   17178
 -29  13   3    2352    8673
 -27  13   3  187210   13738
 -25  13   3  139904   11879
 -23  13   3   -4339    8046
 -21  13   3   28443    6827
 -19  13   3   -5218    6084
 -17  13   3   24611    6685
 -15  13   3  874861   22439
 -13  13   3  126506   10495
 -11  13   3    6591    5970
  -9  13   3  576832   19291
  -7  13   3   39698    4143
  -5  13   3   29088    5344
  -3  13   3   28558    5532
  -1  13   3   32927    6299
   1  13   3  297072   11473
   3  13   3  519950   15882
   5  13   3    9380    5296
   7  13   3   62495    6621
   9  13   3     870    4705
  11  13   3   68320    7430
  13  13   3  168753   10963
  15  13   3   81990    6224
  17  13   3   33697    5006
  19  13   3   67107    7591
  21  13   3    4190    7977
  23  13   3   -8822    8822
  25  13   3   -4525    9306
  27  13   3  -12092   12092
  29  13   3   62804   13215
  31  13   3  126464   16515
 -30  14   3   81332   12782
 -28  14   3  -10414   10414
 -26  14   3   24556    9756
 -24  14   3   62527   10959
 -22  14   3   72930    9233
 -20  14   3   16546    8116
 -18  14   3    6074    6928
 -16  14   3   63067    6808
 -14  14   3   16591    6134
 -12  14   3   19061    6372
 -10  14   3   -5619    5619
  -8  14   3  270681    9950
  -6  14   3   15536    5863
  -4  14   3   13536    6294
  -2  14   3   86169    8097
   0  14   3    -333    5635
   2  14   3  170752    9568
   4  14   3  385965   14689
   6  14   3   -5509    5509
   8  14   3   10602    5809
  10  14   3    1211    5379
  12  14   3  154882    9903
  14  14   3   14958    5943
  16  14   3     430    3525
  18  14   3   66342    8155
  20  14   3   -2937    8340
  22  14   3   -7881    7881
  24  14   3   -7192    9245
  26  14   3    3080   12497
  28  14   3  118126   14552
 -27  15   3  -11021   11021
 -25  15   3  -13989   13989
 -23  15   3    2368    9549
 -21  15   3   38234    8684
 -19  15   3   -1624    7653
 -17  15   3  179024   13510
 -15  15   3    2245    7086
 -13  15   3  265369   13635
 -11  15   3   37144    6611
  -9  15   3   14338    4872
  -7  15   3   81361    8226
  -5  15   3     347    5656
  -3  15   3   90184    8398
  -1  15   3  319157   16929
   1  15   3  136578    9957
   3  15   3   47172    6892
   5  15   3    5734    6967
   7  15   3   -4270    6541
   9  15   3   -6041    6041
  11  15   3   -4092    8528
  13  15   3   -5130    7989
  15  15   3    4252    5262
  17  15   3    8126    7637
  19  15   3   24783    6559
  21  15   3  110496   13295
  23  15   3   20037   11853
  25  15   3   37710   13217
 -24  16   3    4906   12081
 -22  16   3   -9101   11704
 -20  16   3   27470   11018
 -18  16   3    4731    9348
 -16  16   3   47267    8839
 -14  16   3   66036    9066
 -12  16   3  224638   12884
 -10  16   3   46486    6945
  -8  16   3   -7077    7077
  -6  16   3   -2377    7052
  -4  16   3    8282    7953
  -2  16   3    -197    6598
   0  16   3   16304    7952
   2  16   3    5757    9478
   4  16   3   26249    6962
   6  16   3    4521    7518
   8  16   3   -3703    7080
  10  16   3    1334    8293
  12  16   3   -7873    7873
  14  16   3   13423    8994
  16  16   3   -8850    9688
  18  16   3   25439   10260
  20  16   3    8653   12111
  22  16   3   -2664   14596
 -19  17   3   11800   12863
 -17  17   3   15401   14217
 -15  17   3    4771    7378
 -13  17   3  138568   12885
 -11  17   3  189718   13319
  -9  17   3    7286    6931
  -7  17   3   50684    9227
  -5  17   3   17332    7457
  -3  17   3   14513    8106
  -1  17   3   60287    9513
   1  17   3   35605    9171
   3  17   3   16900    7877
   5  17   3   47069    9786
   7  17   3    2111    8905
   9  17   3   -5677    9590
  11  17   3   -5176   14962
  13  17   3   -8393    8393
  15  17   3    3455   11357
  17  17   3   16907   12227
 -14  18   3    8424    8830
 -12  18   3   52656   12567
 -10  18   3    6189   10622
  -8  18   3   35539   10935
  -6  18   3    -283   11010
  -4  18   3   -1338   12571
  -2  18   3   32302   11237
   0  18   3    2404   10011
   2  18   3   -3408    8584
   4  18   3   -5699    9305
   6  18   3   15859   10138
   8  18   3    6028   10523
  10  18   3   -5483   10325
  12  18   3   26860   12635
 -46   0   4   -5221   11278
 -44   0   4   -9512    9512
 -42   0   4   59415   10330
 -40   0   4  -10753   10753
 -38   0   4   -8740    8740
 -36   0   4  340849   15922
 -34   0   4   76887    9751
 -32   0   4  597415   25699
 -30   0   4 1385255   36195
 -28   0   4   95664    9180
 -26   0   4 2341182   58556
 -24   0   4  290891   12100
 -22   0   4   -3084    3608
 -20   0   4   51219    4610
 -18   0   4 4003923   80720
 -16   0   4 1629566   34940
 -14   0   4    4638    2326
 -12   0   4  251040    7979
 -10   0   4  233008    6899
  -8   0   4  710012   16007
  -4   0   412967003  260909
  -2   0   4 9197866  202224
   0   0   420703969  544169
   2   0   4  654624   16356
   4   0   4  103798    4204
   6   0   4  423992   10413
   8   0   4 2751502   53611
  10   0   4 2043081   40757
  12   0   4 1187339   26111
  14   0   4 1334234   29674
  16   0   4  246559    8901
  18   0   4  853851   20945
  20   0   4   99280    6387
  22   0   4   35678    4556
  24   0   4  761994   21173
  26   0   4  581821   19602
  28   0   4  297160   14569
  30   0   4 1748296   45751
  32   0   4    7648    6117
  34   0   4  431423   20855
  36   0   4   -5928    7822
  38   0   4   -4481    9835
  40   0   4   -9159   11216
  42   0   4   37681   18160
 -45   1   4   -6802    6802
 -43   1   4   -7497    7497
 -41   1   4   31845    7509
 -39   1   4   -5200    5200
 -37   1   4   45073    6428
 -35   1   4   -4414    4892
 -33   1   4   -4034    4034
 -31   1   4   43172    5090
 -29   1   4  126463    6741
 -27   1   4  398403   10841
 -25   1   4  396645   11723
 -23   1   4  403185   11068
 -21   1   4    8675    2415
 -19   1   4 1798307   27917
 -17   1   4 1023555   16791
 -15   1   4   76506    3242
 -13   1   4    6578    1986
 -11   1   4 4367458   62501
  -9   1   4 1928618   28514
  -7   1   4  939606   14337
  -5   1   4   10951    1861
  -3   1   4  430663    8571
  -1   1   411613106  162237
   1   1   4  229447    5058
   3   1   4 1234949   18633
   5   1   4  900843   14046
   7   1   4  413437    7465
   9   1   4   53293    2468
  11   1   4  152342    4204
  13   1   4  646626   11206
  15   1   4   69363    3372
  17   1   4  128798    4585
  19   1   4  105736    4457
  21   1   4  818134   14880
  23   1   4   -2832    2832
  25   1   4   14279    3199
  27   1   4  405142   13609
  29   1   4   23752    4777
  31   1   4   67189    5600
  33   1   4   -2523    4860
  35   1   4   83331    7405
  37   1   4    4782    6611
  39   1   4   -6130    6130
  41   1   4    7030    8419
 -44   2   4    7362    7644
 -42   2   4   -5655    5655
 -40   2   4   44195    8430
 -38   2   4   48824    6618
 -36   2   4   49150    6223
 -34   2   4  305419   13623
 -32   2   4  266810   10860
 -30   2   4   35248    4777
 -28   2   4  387211   10934
 -26   2   4  416390    9834
 -24   2   4  554613   11324
 -22   2   4 2605698   38072
 -20   2   4  514985   10285
 -18   2   4 3660207   53805
 -16   2   4 3130842   47468
 -14   2   4  151315    4935
 -12   2   4  138163    4419
 -10   2   4  810904   13376
  -8   2   4  183068    4333
  -6   2   4    3464    1080
  -4   2   4 1934669   29040
  -2   2   4 2093681   31265
   0   2   4 1028433   15882
   2   2   4  235275    5071
   4   2   4  286073    5714
   6   2   4 1185777   17943
   8   2   4  558720    9640
  10   2   4  728169   12075
  12   2   4 4741889   64331
  14   2   4  220814    6293
  16   2   4  119470    4557
  18   2   4  519098   10298
  20   2   4   86423    3964
  22   2   4   23992    2903
  24   2   4  116200    5110
  26   2   4  647967   14593
  28   2   4 1207694   23869
  30   2   4  191228    8392
  32   2   4    6566    4193
  34   2   4    5225    4458
  36   2   4   13828    4696
  38   2   4   44129    9500
  40   2   4  134542   11803
  42   2   4   27505    9978
 -45   3   4   -1975    7454
 -43   3   4   -7512    7512
 -41   3   4   39819    6984
 -39   3   4   12811    6287
 -37   3   4   -5655    5655
 -35   3   4  118739    7166
 -33   3   4   18067    5040
 -31   3   4   -4178    4178
 -29   3   4   23108    6405
 -27   3   4  202152    7484
 -25   3   4   -2552    2552
 -23   3   4  173248    5673
 -21   3   4   80424    4110
 -19   3   4   -1351    2552
 -17   3   4  438650    9322
 -15   3   4   -2016    2016
 -13   3   4   44052    3009
 -11   3   4   26578    2210
  -9   3   4   -1355    1355
  -7   3   4  187623    4584
  -5   3   4  401052    7670
  -3   3   4   35821    2204
  -1   3   4 2322148   35549
   1   3   4 7241037  104272
   3   3   4 1392156   22684
   5   3   4  132391    3827
   7   3   4  764943   12825
   9   3   4   18718    2037
  11   3   4  626209   11614
  13   3   4  956048   16788
  15   3   4  901075   16264
  17   3   4   59928    4048
  19   3   4   -3179    3179
  21   3   4   19003    3741
  23   3   4   24511    4062
  25   3   4   60205    5230
  27   3   4   67028    5989
  29   3   4   -5249    5249
  31   3   4    2097    6072
  33   3   4   12472    7869
  35   3   4   42178    7998
  37   3   4  183985   11999
  39   3   4   66161    9156
  41   3   4   -5800    9481
 -44   4   4   23487    8550
 -42   4   4   -7926    7926
 -40   4   4  151224   12059
 -38   4   4   58902    6342
 -36   4   4  166393    9250
 -34   4   4  149086    8656
 -32   4   4   85548    5879
 -30   4   4  315982   10010
 -28   4   4  784560   15976
 -26   4   4   92659    4664
 -24   4   4  421432    9392
 -22   4   4  536881   10809
 -20   4   4  218992    5930
 -18   4   4     807    2237
 -16   4   4  565583   11442
 -14   4   4  111196    4406
 -12   4   4 1072162   17054
 -10   4   4  473335    8588
  -8   4   4   34537    2219
  -6   4   4 3358443   49634
  -4   4   4   51050    2664
  -2   4   4  837121   14245
   0   4   4 6294960   93071
   2   4   4  354550    7177
   4   4   4  388668    7634
   6   4   4 5298521   72657
   8   4   4   13974    2157
  10   4   4 1986965   29559
  12   4   410333574  145886
  14   4   4 2051364   32965
  16   4   4  685544   14369
  18   4   4  100271    5144
  20   4   4  126113    5806
  22   4   4 1015754   18734
  24   4   4  357386   10546
  26   4   4  275736   10130
  28   4   4  665782   17664
  30   4   4    4914    5809
  32   4   4   98153    8448
  34   4   4  107927    9702
  36   4   4   -5829    7969
  38   4   4   -1479    8204
  40   4   4   24527   10024
 -43   5   4   46030   11293
 -41   5   4   -7481    7481
 -39   5   4   32692    6957
 -37   5   4    7881    4980
 -35   5   4    4881    4214
 -33   5   4   -3773    3773
 -31   5   4   -4913    4913
 -29   5   4   98087    6279
 -27   5   4   -3151    3151
 -25   5   4    9218    2983
 -23   5   4   17843    2740
 -21   5   4  539712   10908
 -19   5   4  165596    5436
 -17   5   4  258765    7165
 -15   5   4    1887    2007
 -13   5   4 1871240   28857
 -11   5   4  148451    4582
  -9   5   4   25861    2509
  -7   5   4   18812    2196
  -5   5   4  333914    7084
  -3   5   4  186827    5074
  -1   5   4 1607988   29576
   1   5   4  539474   10101
   3   5   4  322292    7358
   5   5   4    -433    1924
   7   5   4  566197   10079
   9   5   4 3557547   50212
  11   5   4   33368    3231
  13   5   4  432130    9446
  15   5   4   35783    3526
  17   5   4 1263179   24586
  19   5   4    8417    3207
  21   5   4   83918    5381
  23   5   4   15236    4462
  25   5   4   22202    5194
  27   5   4  115315    7473
  29   5   4   27451    6376
  31   5   4   49300    7109
  33   5   4   26612    7206
  35   5   4   -7453    7453
  37   5   4   25622    9255
  39   5   4  -10080   10080
  41   5   4   30938   10088
 -42   6   4   24919    8507
 -40   6   4   -6493    6630
 -38   6   4  106424    8437
 -36   6   4  153219    8153
 -34   6   4   -4532    4532
 -32   6   4  111816    6677
 -30   6   4   75737    4979
 -28   6   4   12901    3208
 -26   6   4   70135    4568
 -24   6   4   76838    5141
 -22   6   4  131556    5210
 -20   6   4 2135938   32670
 -18   6   4  867531   16324
 -16   6   4 1542787   24685
 -14   6   4  930077   16299
 -12   6   4  328949    7740
 -10   6   4    -281    2191
  -8   6   4  320589    7376
  -6   6   4  172264    5242
  -4   6   4  557040   10468
  -2   6   4  628507   12715
   0   6   4  868946   16640
   2   6   4 1334461   22388
   4   6   4  354289    8133
   6   6   4   50239    3319
   8   6   4 8729762  123902
  10   6   4   39525    2997
  12   6   4   26881    2754
  14   6   4 2427298   37948
  16   6   4   16337    3509
  18   6   4  332020    9047
  20   6   4  807857   16510
  22   6   4  154438    7447
  24   6   4  980247   22192
  26   6   4  217552    9096
  28   6   4  278253   12983
  30   6   4  223744   11635
  32   6   4  239776   12610
  34   6   4    5688    7211
  36   6   4   18910    8675
  38   6   4   -8562    8562
  40   6   4  -11349   11349
 -43   7   4   82632   16675
 -41   7   4    4739   11534
 -39   7   4   -4937    4937
 -37   7   4   -5130    5130
 -35   7   4   82324    6152
 -33   7   4   -4008    4008
 -31   7   4    -904    4641
 -29   7   4   -3374    3374
 -27   7   4   -2731    3024
 -25   7   4   -3958    3958
 -23   7   4   -2362    2362
 -21   7   4  140952    5056
 -19   7   4   22184    3718
 -17   7   4  452188   11387
 -15   7   4  196098    7632
 -13   7   4    6722    2322
 -11   7   4   30580    2955
  -9   7   4   38746    3397
  -7   7   4 3207017   50889
  -5   7   4  219124    6381
  -3   7   4  803062   14525
  -1   7   4   -2323    2323
   1   7   4  139347    5351
   3   7   4  420592   10339
   5   7   4 1123998   19826
   7   7   4  198971    6406
   9   7   4  382479    8893
  11   7   4   16712    3100
  13   7   4  379003    8567
  15   7   4   20920    2754
  17   7   4  218917    7618
  19   7   4  642928   14721
  21   7   4   -3428    3428
  23   7   4   73390    6513
  25   7   4   23947    5476
  27   7   4   32430    5586
  29   7   4   46302    8230
  31   7   4   28866    5805
  33   7   4   19921    8085
  35   7   4   72471   10502
  37   7   4  -10973   11914
  39   7   4  -18999   18999
 -40   8   4   15103   10368
 -38   8   4   -5975    5975
 -36   8   4   36645    6613
 -34   8   4   56741    8309
 -32   8   4   87000    7738
 -30   8   4  103362    6247
 -28   8   4   58323    4877
 -26   8   4   82148    7318
 -24   8   4   -4494    4494
 -22   8   4   -3535    3535
 -20   8   4  212302    8927
 -18   8   4  397680   11413
 -16   8   4   31546    4494
 -14   8   4   88969    5881
 -12   8   4   25088    3818
 -10   8   4  389027    8613
  -8   8   4  322774    7619
  -6   8   4  431792    8911
  -4   8   4  198467    6955
  -2   8   4  889160   16780
   0   8   4   13239    2916
   2   8   4  213492    6523
   4   8   4   54606    4005
   6   8   4  408502    9712
   8   8   4 2612123   41493
  10   8   4 1890802   31254
  12   8   4  119380    5457
  14   8   4  632113   14034
  16   8   4  417651   10122
  18   8   4  792687   18141
  20   8   4   94610    6576
  22   8   4   97249    8302
  24   8   4  334537   13573
  26   8   4  446498   18985
  28   8   4  330889   16449
  30   8   4  199945   13255
  32   8   4   94723   12022
  34   8   4   69714   11119
  36   8   4   -9285    9285
  38   8   4  -15746   16917
 -39   9   4   -7959    8343
 -37   9   4   -8119    8119
 -35   9   4   64226    8550
 -33   9   4   -4261    6709
 -31   9   4   40932    7860
 -29   9   4  152454    9884
 -27   9   4   47592   12389
 -25   9   4   75214    8156
 -23   9   4   58541    7211
 -21   9   4   15406    4945
 -19   9   4  159996    7368
 -17   9   4     338    3829
 -15   9   4  158632    6851
 -13   9   4     639    3291
 -11   9   4  331768    9418
  -9   9   4  118298    4868
  -7   9   4   93323    4345
  -5   9   4  895820   16131
  -3   9   4  181952    6755
  -1   9   4   -2973    2973
   1   9   4  340376    9303
   3   9   4  196738    6933
   5   9   4  747358   15280
   7   9   4  599862   12885
   9   9   4  309374   10468
  11   9   4    6028    3288
  13   9   4  183901    6923
  15   9   4   -2102    3760
  17   9   4   90623    5201
  19   9   4    6556    6340
  21   9   4  168477   10185
  23   9   4   61945    7745
  25   9   4   10165    6336
  27   9   4   14344    8123
  29   9   4   28151    7718
  31   9   4   10579    9249
  33   9   4   11059    9161
  35   9   4   21124   10492
  37   9   4   -9494    9654
 -38  10   4   -8646    8646
 -36  10   4   -7305    7305
 -34  10   4  172447   10429
 -32  10   4   -6241    6241
 -30  10   4   11295    6442
 -28  10   4  181805   12650
 -26  10   4   -4195    7313
 -24  10   4  120272    9779
 -22  10   4  568815   19053
 -20  10   4  181763   10360
 -18  10   4 1089196   24861
 -16  10   4  389525   12438
 -14  10   4   50407    5240
 -12  10   4  700114   15178
 -10  10   4   11932    2838
  -8  10   4   -1164    2768
  -6  10   4  792351   14731
  -4  10   4   11596    3809
  -2  10   4  233159    8030
   0  10   4  111838    5580
   2  10   4    -247    2891
   4  10   4  418038   10329
   6  10   4  589697   13130
   8  10   4   33030    4442
  10  10   4 1514830   26878
  12  10   4  982759   19919
  14  10   4   29797    4289
  16  10   4   37463    4223
  18  10   4     283    4320
  20  10   4   17813    6286
  22  10   4  444216   19199
  24  10   4  231212   19110
  26  10   4  174537   13118
  28  10   4  114828   10185
  30  10   4   23233    9327
  32  10   4   62547   11126
  34  10   4   48641   11884
  36  10   4  -16101   16101
 -37  11   4   -5923   11011
 -35  11   4   -8068    8068
 -33  11   4   94721   10480
 -31  11   4   14985   10055
 -29  11   4   22446   13909
 -27  11   4  208153   15322
 -25  11   4   -5711    7498
 -23  11   4     777    6502
 -21  11   4  145287   10789
 -19  11   4   69732    5968
 -17  11   4  197162    9365
 -15  11   4   19727    4409
 -13  11   4   15880    5067
 -11  11   4  203587    8587
  -9  11   4  416668   10390
  -7  11   4    -973    3102
  -5  11   4  412578   12165
  -3  11   4  163975    6982
  -1  11   4   34420    4459
   1  11   4   58866    5035
   3  11   4   50372    5110
   5  11   4    5836    4299
   7  11   4  378170   11733
   9  11   4   63138    6814
  11  11   4  354284   13400
  13  11   4   57986    6176
  15  11   4  960301   32178
  17  11   4  335053   17755
  19  11   4    -141    5344
  21  11   4  186385    8718
  23  11   4   72809    8625
  25  11   4   16816    8091
  27  11   4   11844   10811
  29  11   4  -10880   10880
  31  11   4   35467   10949
  33  11   4   50952   10340
 -34  12   4   15559   12802
 -32  12   4  151316   13131
 -30  12   4   84769   12407
 -28  12   4   24726    8994
 -26  12   4  312199   16868
 -24  12   4   -6753    6753
 -22  12   4    8555    6887
 -20  12   4  169064   11408
 -18  12   4   51273    6319
 -16  12   4  237699   11119
 -14  12   4  170388    9321
 -12  12   4   -5207    5207
 -10  12   4    5255    3490
  -8  12   4   77107    5352
  -6  12   4    3381    4720
  -4  12   4   26672    4866
  -2  12   4  291589   10459
   0  12   4   48273    5732
   2  12   4  390282   12621
   4  12   4   58948    6232
   6  12   4  211333    9963
   8  12   4 1011504   26768
  10  12   4 1908114   45976
  12  12   4 1645978   40046
  14  12   4 1435704   32424
  16  12   4   35505    6976
  18  12   4    -754    5671
  20  12   4   -4325    5171
  22  12   4   28700    5901
  24  12   4  132848   10623
  26  12   4  112910    8787
  28  12   4   38537    9142
  30  12   4   87065   13359
  32  12   4   37107   16132
 -33  13   4   -7275   13278
 -31  13   4   80119   11839
 -29  13   4   46277   10773
 -27  13   4   77122   10347
 -25  13   4  218220   14070
 -23  13   4   -7433    7433
 -21  13   4   -7738    7738
 -19  13   4   26242    5515
 -17  13   4  195578   12232
 -15  13   4   25933    6474
 -13  13   4   26555    5907
 -11  13   4    6714    5867
  -9  13   4  182748    8243
  -7  13   4   -5480    5480
  -5  13   4   -4595    4595
  -3  13   4   91979    7134
  -1  13   4  137327    8570
   1  13   4    1755    5245
   3  13   4   -4436    4436
   5  13   4   16217    5974
   7  13   4  131845    8588
   9  13   4   26113    5836
  11  13   4  160408    8851
  13  13   4   29228    5698
  15  13   4  256841   17968
  17  13   4   31325    5856
  19  13   4   -5983    5983
  21  13   4   -5788    5788
  23  13   4   11270    6500
  25  13   4   79718   10538
  27  13   4  192615   16425
  29  13   4   65070   13570
 -30  14   4  150616   16083
 -28  14   4    2739   11512
 -26  14   4   66189   11167
 -24  14   4   94789   11711
 -22  14   4   -3838    8077
 -20  14   4   -7293    7410
 -18  14   4    3596    5176
 -16  14   4   69562    7617
 -14  14   4   60166    7098
 -12  14   4   43637    7578
 -10  14   4   25434    5037
  -8  14   4  374626   14525
  -6  14   4  154160   11014
  -4  14   4  328985   16962
  -2  14   4  525247   16340
   0  14   4  150884   11054
   2  14   4  192690   10156
   4  14   4   14570    5888
   6  14   4   -1708    6416
   8  14   4   83569    8629
  10  14   4    3269    5355
  12  14   4   72363    7288
  14  14   4    1248    6419
  16  14   4   -5238    6573
  18  14   4   -3273    5539
  20  14   4  103880    9343
  22  14   4   79137    8626
  24  14   4  141114   16114
  26  14   4  168109   17546
  28  14   4   29727   33302
 -27  15   4  -13418   13418
 -25  15   4   60057   12238
 -23  15   4   62608   10741
 -21  15   4   29288    9773
 -19  15   4   -4553    8434
 -17  15   4    -146    6614
 -15  15   4    6259    7118
 -13  15   4  125697   10143
 -11  15   4   -5101    5619
  -9  15   4    4133   10164
  -7  15   4   25041    8002
  -5  15   4   27212    6511
  -3  15   4    -522    7094
  -1  15   4   28188    7698
   1  15   4   -6236    6236
   3  15   4    1246    5537
   5  15   4   -5978    5978
   7  15   4   -6636    6636
   9  15   4   14387    7183
  11  15   4   -4533    6432
  13  15   4   55415    7637
  15  15   4   36927    7928
  17  15   4   68659   10965
  19  15   4  119846   10035
  21  15   4   -5829    9210
  23  15   4   15137    8369
  25  15   4  -18403   18403
 -24  16   4   11569   11898
 -22  16   4   43867   11650
 -20  16   4   15813   10200
 -18  16   4    3565    7409
 -16  16   4   85938    9135
 -14  16   4    5143    8474
 -12  16   4  159110    9620
 -10  16   4   25843    6477
  -8  16   4   23331    7203
  -6  16   4  204027   12832
  -4  16   4   95601   12336
  -2  16   4   75805    9298
   0  16   4   44823   10154
   2  16   4   -6540    6540
   4  16   4    -944    7319
   6  16   4   -7709    7709
   8  16   4    4477    7204
  10  16   4    2782    8200
  12  16   4   -8583    8583
  14  16   4    8642   10093
  16  16   4    7896    7554
  18  16   4   16029   13250
  20  16   4   18430   13002
 -19  17   4   10918   16333
 -17  17   4    2132    7681
 -15  17   4   61918    9777
 -13  17   4   -6198    8077
 -11  17   4   31397    7961
  -9  17   4    7525    6916
  -7  17   4   20814    8448
  -5  17   4    2886    8151
  -3  17   4  -12514   12514
  -1  17   4   -8891    9845
   1  17   4   -4587    8234
   3  17   4   -8608    8608
   5  17   4   -7722    7722
   7  17   4   -7974    9000
   9  17   4    3778   12191
  11  17   4   -8933    8933
  13  17   4  -10923   10923
  15  17   4  -12675   12675
  17  17   4   -8942   14076
 -14  18   4   52928   15332
 -12  18   4   47434    9217
 -10  18   4   57594   11008
  -8  18   4   16420    9865
  -6  18   4     841   10073
  -4  18   4   15951   10234
  -2  18   4   14786    9607
   0  18   4   17338    9788
   2  18   4   -8871    8871
   4  18   4   15334   11257
   6  18   4   -9621    9621
   8  18   4  -11126   11126
  10  18   4   15131   13036
 -45   1   5   -6847    6847
 -43   1   5   -4240    6684
 -41   1   5   61296    6950
 -39   1   5   -4696    4696
 -37   1   5   -4956    4956
 -35   1   5  286020   11542
 -33   1   5  232650    9190
 -31   1   5 1363754   25912
 -29   1   5 1017275   20275
 -27   1   5  601075   13793
 -25   1   5 3064724   45549
 -23   1   5  196802    6138
 -21   1   5  653663   11945
 -19   1   5  447066    9040
 -17   1   5   57767    3160
 -15   1   5   24459    1884
 -13   1   5  762430   13199
 -11   1   5 3226624   45882
  -9   1   5 3648666   52526
  -7   1   5 2213757   33415
  -5   1   5 1210072   18140
  -3   1   5   23062    1863
  -1   1   5 1514781   21849
   1   1   5  348035    6418
   3   1   5 6014612   91003
   5   1   5 2076392   31356
   7   1   5  222627    5102
   9   1   5  609974   10384
  11   1   5 2412696   35228
  13   1   5  399762    8168
  15   1   5 2433942   35943
  17   1   5  495388   10075
  19   1   5  168024    5662
  21   1   5   -2536    2536
  23   1   5  127868    5717
  25   1   5  961821   19003
  27   1   5  725376   16818
  29   1   5  172446    8687
  31   1   5  324209   11583
  33   1   5    3060    4910
  35   1   5   25777    5616
  37   1   5  167522    9110
  39   1   5  105650    7751
  41   1   5   71345   11119
 -44   2   5     470    5766
 -42   2   5   -5168    5168
 -40   2   5   71126    7241
 -38   2   5   -4124    4124
 -36   2   5   40862    5148
 -34   2   5   10021    4313
 -32   2   5  125575    6646
 -30   2   5   77966    4992
 -28   2   5   65389    4586
 -26   2   5   78218    4268
 -24   2   5 2488055   37656
 -22   2   5  832473   16688
 -20   2   5  695126   13531
 -18   2   5  222777    6569
 -16   2   5  441912    9869
 -14   2   5  741182   13109
 -12   2   5  405453    8435
 -10   2   5  188683    4646
  -8   2   5   50815    2412
  -6   2   5  477413    9355
  -4   2   5 1019202   15855
  -2   2   5  842325   13328
   0   2   5   26996    2046
   2   2   5 4042245   56879
   4   2   5 3820205   58697
   6   2   5  151737    4178
   8   2   5  862729   13762
  10   2   5  602144   10519
  12   2   5 2466178   36790
  14   2   5    3146    2303
  16   2   5  402428    8459
  18   2   5   98991    4690
  20   2   5  156220    5671
  22   2   5  164322    5707
  24   2   5  213738    7298
  26   2   5    4933    4069
  28   2   5  201427    8187
  30   2   5   50599    5376
  32   2   5   48892    7732
  34   2   5   32954    8070
  36   2   5  260853   14092
  38   2   5   29826    9063
  40   2   5   25240   10859
 -45   3   5   34200    8986
 -43   3   5   -4897    4897
 -41   3   5   -5224    5224
 -39   3   5   92232    6704
 -37   3   5   26012    4519
 -35   3   5   19961    4063
 -33   3   5  184412    7803
 -31   3   5   -4946    4946
 -29   3   5   78443    5326
 -27   3   5  701100   15431
 -25   3   5   77959    4898
 -23   3   5 2414303   37698
 -21   3   5 2777533   42415
 -19   3   5   58921    3995
 -17   3   5  801376   15556
 -15   3   5   -2682    2682
 -13   3   5   67576    3643
 -11   3   5 1441728   21964
  -9   3   5  332019    7077
  -7   3   5  961479   15253
  -5   3   5 1896762   27891
  -3   3   5   37463    2535
  -1   3   5  417671    7995
   1   3   5 2529634   36471
   3   3   5 1429818   23057
   5   3   5 1060839   17649
   7   3   5 1686596   25197
   9   3   5    6164    1999
  11   3   5 4554193   65685
  13   3   5 1891183   30637
  15   3   5  263055    7433
  17   3   5  322104    8611
  19   3   5  242494    7753
  21   3   5 1260079   22247
  23   3   5  621536   14244
  25   3   5   10436    4740
  27   3   5   74369    7024
  29   3   5  341059   12619
  31   3   5    5024    5803
  33   3   5  222832   12711
  35   3   5  260888   14392
  37   3   5   -1772    8555
  39   3   5   51458    8992
  41   3   5   -3528   10098
 -44   4   5   16448    8246
 -42   4   5   -7256    7256
 -40   4   5   -2674    6622
 -38   4   5   90192    8094
 -36   4   5   -5767    5767
 -34   4   5   -4940    5622
 -32   4   5    1267    5388
 -30   4   5   -5104    5104
 -28   4   5   15876    5275
 -26   4   5   -3711    3711
 -24   4   5   -3497    3497
 -22   4   5  516030   11503
 -20   4   5  359460    9716
 -18   4   5 1348836   23313
 -16   4   5  317192    7943
 -14   4   5  201438    5557
 -12   4   5 1062152   17769
 -10   4   5   62132    3084
  -8   4   5   26119    2397
  -6   4   5  163415    4732
  -4   4   5  351249    7466
  -2   4   5    8919    2151
   0   4   5  405676    8808
   2   4   5  160749    4864
   4   4   5  345711    7593
   6   4   5  420177    8323
   8   4   5  878445   14899
  10   4   5   89429    3698
  12   4   5  675758   12045
  14   4   5 1272252   21182
  16   4   5    5676    3326
  18   4   5    -647    3450
  20   4   5    8392    3672
  22   4   5  170613    7488
  24   4   5   38115    5339
  26   4   5   -4709    4709
  28   4   5   10784    5734
  30   4   5   -5430    5430
  32   4   5    3272    6271
  34   4   5  102476    9528
  36   4   5   15048    8770
  38   4   5  148066   13452
  40   4   5   -9417    9417
 -43   5   5   24270    8434
 -41   5   5   -6370    6370
 -39   5   5   26822    7808
 -37   5   5  124125    9087
 -35   5   5  145354    9014
 -33   5   5   -4783    4783
 -31   5   5   42572    6897
 -29   5   5   -4271    4271
 -27   5   5   12678    4604
 -25   5   5  141179    6943
 -23   5   5   94100    5462
 -21   5   5  888589   17585
 -19   5   5 1532869   26766
 -17   5   5  101465    4339
 -15   5   5  568974   10430
 -13   5   5   -1961    1961
 -11   5   5  310636    7113
  -9   5   5 1085510   16977
  -7   5   5  332476    7580
  -5   5   5  105792    4137
  -3   5   5   55398    3079
  -1   5   5  476401   10102
   1   5   5  686966   12396
   3   5   5  473788    9519
   5   5   5    7388    2344
   7   5   5  272199    7350
   9   5   5 1639084   25626
  11   5   5  304044    7025
  13   5   5  135634    5320
  15   5   5  992518   20347
  17   5   5  726480   14613
  19   5   5 1227925   23108
  21   5   5 1510910   31108
  23   5   5  131339    7355
  25   5   5  236704   10137
  27   5   5  153718    9611
  29   5   5  120268    8276
  31   5   5  164821   11311
  33   5   5  172557   14500
  35   5   5   51397    9440
  37   5   5   17454   11620
  39   5   5   -9284    9284
 -42   6   5   44888    9224
 -40   6   5   -7100    7100
 -38   6   5   83356    8083
 -36   6   5   67637    6795
 -34   6   5   24091    7563
 -32   6   5    4206    5229
 -30   6   5   -6066    6066
 -28   6   5   -4950    4950
 -26   6   5    2363    4250
 -24   6   5   -2755    3759
 -22   6   5   29999    3689
 -20   6   5   20795    3612
 -18   6   5  203036    6157
 -16   6   5  392722    8572
 -14   6   5   -2149    2149
 -12   6   5   59393    3431
 -10   6   5   26582    2780
  -8   6   5  141901    5065
  -6   6   5  248750    6768
  -4   6   5 1672862   27479
  -2   6   5 1001295   18458
   0   6   5  198391    5538
   2   6   5  329035    7371
   4   6   5  179818    5445
   6   6   5   22195    3111
   8   6   5  468623    9317
  10   6   5 1862025   28504
  12   6   5  213506    6072
  14   6   5  392863    9589
  16   6   5  866959   16133
  18   6   5   48849    4825
  20   6   5  263433   10291
  22   6   5   -4007    4007
  24   6   5   28199    5507
  26   6   5   39876    8554
  28   6   5  119349    9677
  30   6   5   23005    6744
  32   6   5     818    6582
  34   6   5   -7033    7033
  36   6   5   21867    8912
  38   6   5   -2715   10716
 -41   7   5   55684   12638
 -39   7   5   -6451    6451
 -37   7   5   80733    8107
 -35   7   5  111253    9411
 -33   7   5   -5686    5686
 -31   7   5   21445    5730
 -29   7   5    7077    4724
 -27   7   5    2253    3143
 -25   7   5  321134    9530
 -23   7   5  337078    9695
 -21   7   5  383146    9893
 -19   7   5 1233334   23916
 -17   7   5  151443    5558
 -15   7   5  277540    7245
 -13   7   5  381279    8544
 -11   7   5   -2600    2600
  -9   7   5 1473586   24202
  -7   7   5 1917180   30513
  -5   7   5  198170    6102
  -3   7   5    6580    3355
  -1   7   5   82458    4252
   1   7   5  408093    9310
   3   7   5   91919    3954
   5   7   5  267915    7302
   7   7   5   28565    3125
   9   7   5 1203270   19816
  11   7   5   -2498    2498
  13   7   5  135692    5148
  15   7   5  955376   16704
  17   7   5  122438    6129
  19   7   5 1027108   21923
  21   7   5  107320    6355
  23   7   5   64061    6194
  25   7   5 1034421   25532
  27   7   5  310898   14050
  29   7   5  220616   12773
  31   7   5  287929   13185
  33   7   5   75932    7775
  35   7   5  108195   10760
  37   7   5   80749   11134
 -40   8   5   31100   11419
 -38   8   5   -7655    7655
 -36   8   5   10376    8709
 -34   8   5  175836   11707
 -32   8   5   -5274    5274
 -30   8   5   -3855    3855
 -28   8   5   -4079    4079
 -26   8   5  117195    6720
 -24   8   5    5366    4610
 -22   8   5   -4047    4047
 -20   8   5   -4368    4368
 -18   8   5  868000   19788
 -16   8   5   -3230    3230
 -14   8   5   19368    3150
 -12   8   5   20474    3143
 -10   8   5  469178   10647
  -8   8   5    7343    2612
  -6   8   5  117934    4792
  -4   8   5  430775    9291
  -2   8   5   29047    3628
   0   8   5   91617    5093
   2   8   5  384273    9523
   4   8   5   -2300    3091
   6   8   5    8944    3057
   8   8   5    3239    3531
  10   8   5 1115727   19119
  12   8   5   52251    3894
  14   8   5   30013    3390
  16   8   5    5450    3129
  18   8   5  249017    9795
  20   8   5    2860    4815
  22   8   5    -526    4426
  24   8   5   94067    6644
  26   8   5    5800    4832
  28   8   5   75810    9806
  30   8   5   48656    9826
  32   8   5   -7838    7838
  34   8   5   55814   10612
  36   8   5   20484   11137
 -39   9   5   41262   12228
 -37   9   5   -7595    7595
 -35   9   5    -422    8647
 -33   9   5  177378   11125
 -31   9   5    6794    6418
 -29   9   5   90786   12008
 -27   9   5  222020   12507
 -25   9   5   -1431    4858
 -23   9   5  148162    8994
 -21   9   5   -4761    4761
 -19   9   5    2920    5261
 -17   9   5  497660   14910
 -15   9   5  354811   11128
 -13   9   5  811920   17363
 -11   9   5  906268   17148
  -9   9   5  385820    9315
  -7   9   5    7343    2828
  -5   9   5  513531   10746
  -3   9   5   80994    5321
  -1   9   5   37139    4145
   1   9   5   -3183    3183
   3   9   5   56795    4455
   5   9   5 2139269   37350
   7   9   5 1129121   21073
   9   9   5    8968    2997
  11   9   5  911978   18431
  13   9   5    9795    4114
  15   9   5   30269    4080
  17   9   5  186148    7387
  19   9   5   61547    6959
  21   9   5   29744    4709
  23   9   5  373528   19279
  25   9   5  458537   26042
  27   9   5  220786   15666
  29   9   5  217059   16910
  31   9   5    9343    9605
  33   9   5   72567   15340
  35   9   5  137458   14154
 -38  10   5  -10593   13170
 -36  10   5   -6307    6307
 -34  10   5    5465    7012
 -32  10   5   96838    9387
 -30  10   5   -6539    6539
 -28  10   5   38113    7484
 -26  10   5   27106    7916
 -24  10   5    2112    7746
 -22  10   5  132121    8835
 -20  10   5   84092    7112
 -18  10   5  113086    7097
 -16  10   5  119078    7448
 -14  10   5   -3952    3952
 -12  10   5   74012    5806
 -10  10   5   21906    3779
  -8  10   5   66413    4162
  -6  10   5  103678    4871
  -4  10   5   45240    4559
  -2  10   5   23516    4184
   0  10   5   18940    4115
   2  10   5  307324    9315
   4  10   5    -416    3602
   6  10   5   -2987    3588
   8  10   5    8507    4341
  10  10   5   34014    4704
  12  10   5    2729    3966
  14  10   5   71370    5072
  16  10   5   -5168    5168
  18  10   5   17774    5536
  20  10   5   69044    8597
  22  10   5   24962    8044
  24  10   5   20836   10215
  26  10   5   -7046    7046
  28  10   5    -280    8946
  30  10   5   -7955    7955
  32  10   5   13103   10234
  34  10   5   69185   11972
 -37  11   5  -11005   11005
 -35  11   5   -7604    7604
 -33  11   5    6133    8007
 -31  11   5   -7073    7073
 -29  11   5   10230    7710
 -27  11   5  240573   14357
 -25  11   5  223845   12461
 -23  11   5   32636    7716
 -21  11   5   24425    5373
 -19  11   5    1931    7405
 -17  11   5  155707    9606
 -15  11   5  173469    8660
 -13  11   5   47790    5777
 -11  11   5  274997    8645
  -9  11   5    2730    3519
  -7  11   5   16012    4056
  -5  11   5  583076   14063
  -3  11   5  294361    9589
  -1  11   5  103463    6243
   1  11   5   62467    5517
   3  11   5  458706   12756
   5  11   5  304877   11832
   7  11   5  685205   20455
   9  11   5 2012590   42095
  11  11   5 1331120   31804
  13  11   5   61083    6369
  15  11   5   74674    5948
  17  11   5     107    3831
  19  11   5   17982    4523
  21  11   5   89104    8407
  23  11   5  294458   15890
  25  11   5   21311    8687
  27  11   5  -10349   10349
  29  11   5   54517   13237
  31  11   5   25231   11513
  33  11   5   58330   11880
 -34  12   5    2298   13481
 -32  12   5   73679   15973
 -30  12   5    7970    9087
 -28  12   5    1968    9680
 -26  12   5  234340   14743
 -24  12   5   -3534    7306
 -22  12   5   -6570    6570
 -20  12   5   58534    6325
 -18  12   5   -3760    4500
 -16  12   5   -4762    4762
 -14  12   5   -3066    5051
 -12  12   5  118097    8296
 -10  12   5   62444    4976
  -8  12   5   64778    5842
  -6  12   5  115821    6791
  -4  12   5   82052    6491
  -2  12   5   31413    5545
   0  12   5  247210   10143
   2  12   5    1868    4320
   4  12   5  147036    8295
   6  12   5   76403    7193
   8  12   5  592192   20415
  10  12   5  669404   26056
  12  12   5 1127881   28272
  14  12   5  415190   18076
  16  12   5  269314   10889
  18  12   5   72962    8995
  20  12   5   24141    4795
  22  12   5  471766   22149
  24  12   5   18116    8206
  26  12   5    5716    9749
  28  12   5   -8880    8880
  30  12   5   -9513    9513
 -33  13   5    8919   10464
 -31  13   5  222493   14981
 -29  13   5  150787   14124
 -27  13   5   61739   10755
 -25  13   5  376593   19380
 -23  13   5   14652    8706
 -21  13   5   -4192    5442
 -19  13   5   24055    5755
 -17  13   5   15090    5136
 -15  13   5   90024    7379
 -13  13   5  129318    9512
 -11  13   5   -3552    3552
  -9  13   5   22540    5149
  -7  13   5   59675    6570
  -5  13   5   -1705    5040
  -3  13   5   53757    6972
  -1  13   5   35686    6594
   1  13   5   43384    6127
   3  13   5   63127    7156
   5  13   5   13094    5922
   7  13   5  209487   11249
   9  13   5  622260   19829
  11  13   5   30139    7589
  13  13   5   47871    6849
  15  13   5   28447    5456
  17  13   5   66535    6227
  19  13   5   74986    7628
  21  13   5  516293   23717
  23  13   5  176291   12397
  25  13   5  232854   17281
  27  13   5    -837    8748
  29  13   5   -9897   14292
 -30  14   5   82388   12886
 -28  14   5   62063   14617
 -26  14   5    5844    9169
 -24  14   5  228028   15007
 -22  14   5   -8232    8232
 -20  14   5   -5083    5083
 -18  14   5   20254    6774
 -16  14   5   14359    6653
 -14  14   5   -5657    6585
 -12  14   5    5718    6289
 -10  14   5   41833    6349
  -8  14   5   17834    5641
  -6  14   5  116217    7837
  -4  14   5   37631    7189
  -2  14   5   -6027    6027
   0  14   5   -3990    6035
   2  14   5   -5005    6238
   4  14   5   -5834    5834
   6  14   5   -6256    6256
   8  14   5    2370    6349
  10  14   5   64796    8942
  12  14   5   68828    7391
  14  14   5  106140    9654
  16  14   5   11098    6654
  18  14   5  192310   10812
  20  14   5  196879   14115
  22  14   5   12127    9087
  24  14   5   78232   15717
  26  14   5    5471   12337
 -27  15   5   84798   12607
 -25  15   5    3124   11649
 -23  15   5   81944   11809
 -21  15   5   19689    8865
 -19  15   5   -2175    6882
 -17  15   5   21286    7312
 -15  15   5   64165    9304
 -13  15   5   23118    7472
 -11  15   5  157848   12073
  -9  15   5  284683   15708
  -7  15   5  504740   20394
  -5  15   5  311243   18308
  -3  15   5   83554    8903
  -1  15   5  128169   10241
   1  15   5   95053    8768
   3  15   5    9217    6347
   5  15   5   16689    7742
   7  15   5   57097    8347
   9  15   5   -7270    7270
  11  15   5    7489    8309
  13  15   5  116943   11160
  15  15   5   52487   11092
  17  15   5   37837   10084
  19  15   5  -17511   17511
  21  15   5   28048    9972
  23  15   5  -13106   13106
 -24  16   5   41452   14213
 -22  16   5   38776   11223
 -20  16   5   27094   10228
 -18  16   5   -6384   21270
 -16  16   5   17622    7535
 -14  16   5   -8388    8388
 -12  16   5    6708    7749
 -10  16   5   13424    7411
  -8  16   5    9107    6806
  -6  16   5   31051    7937
  -4  16   5    5068    7589
  -2  16   5   -8277    8277
   0  16   5   -7466    7466
   2  16   5   -7728    7728
   4  16   5    -236    7942
   6  16   5   -8306    8306
   8  16   5   -1304    8512
  10  16   5   -7393    9325
  12  16   5   -7075    8851
  14  16   5   -1754   11511
  16  16   5  -11740   11744
  18  16   5   26403   13669
  20  16   5    9293   12023
 -19  17   5    6848   12444
 -17  17   5   10546    9680
 -15  17   5   -8483    8483
 -13  17   5    5501    8874
 -11  17   5  266460   22435
  -9  17   5   60612   10888
  -7  17   5   95575    9773
  -5  17   5  179231   14314
  -3  17   5   -5571    8445
  -1  17   5    2742    8643
   1  17   5   36219   10271
   3  17   5   -1726   11022
   5  17   5   29045   11558
   7  17   5   32387    9786
   9  17   5   -9159    9159
  11  17   5   40607   13633
  13  17   5   17176   10314
  15  17   5   13573   14785
 -12  18   5   37751   11576
 -10  18   5   48340   12999
  -8  18   5    9051   11003
  -6  18   5   -1438   12242
  -4  18   5   55733   11011
  -2  18   5  -10133   10133
   0  18   5  -11270   11270
   2  18   5   14079    9940
   4  18   5  -10379   10379
   6  18   5    1599   10782
   8  18   5  -11545   11545
 -46   0   6   39659   25764
 -44   0   6   -5707   11348
 -42   0   6   -9134   10300
 -40   0   6   11573    8128
 -38   0   6   47358   10251
 -36   0   6   45901    9143
 -34   0   6  353919   17853
 -32   0   6    5693    5094
 -30   0   6  771518   24515
 -28   0   6  196050   10572
 -26   0   6    -797    3470
 -24   0   6 1775630   40941
 -22   0   6   50975    4659
 -20   0   6  555053   16059
 -18   0   6 5087985  101705
 -16   0   6 2400849   50508
 -14   0   6 7721790  146223
 -12   0   611135701  217181
 -10   0   6 9179297  173115
  -8   0   6 2417354   49591
  -6   0   6  422730   12289
  -4   0   6 1036905   25445
  -2   0   6  797011   18528
   0   0   6  258789    7821
   2   0   6  907098   20584
   4   0   6 1807151   41208
   6   0   6  479049   13210
   8   0   6     -96    2417
  10   0   6   12991    3496
  12   0   6    5309    2987
  14   0   6  597595   15785
  16   0   6  340407   11198
  18   0   6  151895    8415
  20   0   6  531396   15779
  22   0   6  385487   13652
  24   0   6  276288   15347
  26   0   6  747148   25118
  28   0   6  101638   10424
  30   0   6   42226    9349
  32   0   6  896125   29803
  34   0   6  170238   15068
  36   0   6  656895   28348
  38   0   6  467156   33640
  40   0   6   62955   17351
 -45   1   6   12512    8897
 -43   1   6   -3885    6458
 -41   1   6   -7659    7659
 -39   1   6   85455    7067
 -37   1   6   85593    6212
 -35   1   6   -3587    3587
 -33   1   6  120737    6597
 -31   1   6  138998    8002
 -29   1   6  361974   11356
 -27   1   6   30607    4266
 -25   1   6  848541   15224
 -23   1   6  197337    6366
 -21   1   6  233052    7292
 -19   1   6   79995    4437
 -17   1   6  101324    4345
 -15   1   6   53566    3332
 -13   1   6   23519    2357
 -11   1   6  183332    6127
  -9   1   6  411048    7806
  -7   1   6  471638    8794
  -5   1   6  500272    9481
  -3   1   6 1102465   17421
  -1   1   6 1806649   26019
   1   1   6  183646    4493
   3   1   6 1075879   17494
   5   1   6  166365    4890
   7   1   6    3960    2025
   9   1   6  115413    3795
  11   1   6  378080    7984
  13   1   6  145378    4945
  15   1   6  193768    7678
  17   1   6   12032    2873
  19   1   6   33080    3357
  21   1   6   28652    3539
  23   1   6   15932    3438
  25   1   6  314469   10548
  27   1   6   23695    4921
  29   1   6   18831    4608
  31   1   6  301007   11324
  33   1   6   28502    6278
  35   1   6  291314   13021
  37   1   6   72779    6889
  39   1   6   13875   10920
  41   1   6  -15125   15125
 -44   2   6   26707    7771
 -42   2   6   -6211    6211
 -40   2   6   -6694    6694
 -38   2   6   37170    8090
 -36   2   6   -6134    6134
 -34   2   6  156466    9627
 -32   2   6  796037   20245
 -30   2   6  176902    8126
 -28   2   6  977692   20167
 -26   2   6 1359126   25355
 -24   2   6  416485   11435
 -22   2   6  214381    7319
 -20   2   6   28849    3572
 -18   2   6  272772    7830
 -16   2   6 1121760   19467
 -14   2   6 1056758   18203
 -12   2   6  470467    9104
 -10   2   6  557872    9957
  -8   2   6  319717    7181
  -6   2   6  578847   10042
  -4   2   6  119864    3835
  -2   2   6   22321    2040
   0   2   6  101214    3605
   2   2   6 1518970   22397
   4   2   6 4562435   66890
   6   2   6  329782    7368
   8   2   6  273146    6115
  10   2   6 1551716   22924
  12   2   6  813925   13926
  14   2   6 1170791   18986
  16   2   6 1445804   22958
  18   2   6 1592545   26426
  20   2   6 1124546   19103
  22   2   6  524849   12101
  24   2   6  161246    7316
  26   2   6   43052    4815
  28   2   6  423474   14016
  30   2   6  801985   20854
  32   2   6  282347   13275
  34   2   6  439691   16965
  36   2   6   96684   10493
  38   2   6   -9207    9207
  40   2   6    7927   11123
 -45   3   6   -5999    8233
 -43   3   6   -5983    8475
 -41   3   6   -6585    6585
 -39   3   6   -6393    6393
 -37   3   6   -5543    5543
 -35   3   6   20055    6197
 -33   3   6   -1529    5248
 -31   3   6  107308    7456
 -29   3   6  863489   22524
 -27   3   6  845245   18657
 -25   3   6  656844   13909
 -23   3   6  181649    7825
 -21   3   6   -3315    3315
 -19   3   6  121470    5614
 -17   3   6  553981   11419
 -15   3   6 1285084   21124
 -13   3   6  543448   10473
 -11   3   6  320880    7037
  -9   3   6    8954    2169
  -7   3   6  250345    5909
  -5   3   6   16185    2140
  -3   3   6 1109255   19064
  -1   3   6  987998   16879
   1   3   6  486474    8730
   3   3   6 4426392   62524
   5   3   6  485796    9801
   7   3   6  137310    4598
   9   3   6   68657    3446
  11   3   6  172153    5218
  13   3   6  951278   16019
  15   3   6   38178    2794
  17   3   6   20628    3795
  19   3   6   10823    3772
  21   3   6   21876    4244
  23   3   6    4869    4326
  25   3   6   -4842    4842
  27   3   6    1427    5207
  29   3   6   18696    5797
  31   3   6   76141    7603
  33   3   6    2686    6900
  35   3   6   12234    8327
  37   3   6    2638    8423
  39   3   6   -9943    9943
 -44   4   6   30495   11543
 -42   4   6   -6905    6905
 -40   4   6   -6269    7357
 -38   4   6   40791    7168
 -36   4   6   -5405    5405
 -34   4   6   -5344    5344
 -32   4   6   -4881    4881
 -30   4   6   70856    6776
 -28   4   6 1065630   22795
 -26   4   6  928978   22286
 -24   4   6  778429   15827
 -22   4   6 1454775   24966
 -20   4   6  680707   14725
 -18   4   6  285699    7927
 -16   4   6  244961    6954
 -14   4   6  175954    5419
 -12   4   6   -1892    1892
 -10   4   6 1636225   26929
  -8   4   6  448807    9434
  -6   4   6  257703    6237
  -4   4   6 3448270   50559
  -2   4   6   35969    2822
   0   4   6 4100308   59295
   2   4   6 1818254   28002
   4   4   6  352855    8348
   6   4   6 3850049   58742
   8   4   6  232013    7471
  10   4   6    1303    2584
  12   4   6   76805    3905
  14   4   6   72848    3790
  16   4   6 1414965   24633
  18   4   6 1736290   28925
  20   4   6  638523   14990
  22   4   6  161489    7756
  24   4   6    3332    5055
  26   4   6   -5130    5130
  28   4   6  156199    9496
  30   4   6  365669   14375
  32   4   6   27818    7067
  34   4   6   25455    7637
  36   4   6   12247    9992
  38   4   6   -2908   11005
  40   4   6   31132   51825
 -43   5   6   14856    9953
 -41   5   6   -6898    6898
 -39   5   6   -6136    6136
 -37   5   6  150065    9561
 -35   5   6   -6237    6237
 -33   5   6   -5014    5014
 -31   5   6   16705    5455
 -29   5   6    4381    5121
 -27   5   6  143908    7842
 -25   5   6   72360    5837
 -23   5   6   16311    3542
 -21   5   6  212868    7619
 -19   5   6  447259   11217
 -17   5   6    5409    2132
 -15   5   6   21631    2609
 -13   5   6  127140    4565
 -11   5   6  317874    7439
  -9   5   6   -2317    2317
  -7   5   6    2316    2274
  -5   5   6   -2150    2150
  -3   5   6 1354511   22271
  -1   5   6  596676   12130
   1   5   6    2814    2186
   3   5   6 3267203   49164
   5   5   6  183394    5820
   7   5   6 1573185   25857
   9   5   6  821885   14652
  11   5   6  996910   16193
  13   5   6    7903    2409
  15   5   6  107795    5453
  17   5   6  327092    9150
  19   5   6   -3790    3790
  21   5   6  307287   12119
  23   5   6   72480    6313
  25   5   6   -5051    5051
  27   5   6  226902   10647
  29   5   6  130199    9576
  31   5   6   10647    7660
  33   5   6    8186    7570
  35   5   6   -7255    7255
  37   5   6    6810   10208
  39   5   6  104653   13161
 -42   6   6   56553   20207
 -40   6   6   48447   11050
 -38   6   6    -967    7001
 -36   6   6  249670   11957
 -34   6   6   -5455    5455
 -32   6   6   -5159    5159
 -30   6   6  282682   11622
 -28   6   6  136192    8157
 -26   6   6   58029    5553
 -24   6   6  688636   17212
 -22   6   6  110329    6776
 -20   6   6  553354   12265
 -18   6   6  370496    8462
 -16   6   6    7092    2692
 -14   6   6  152639    5349
 -12   6   6  803542   14045
 -10   6   6  320407    8019
  -8   6   6 2013039   31276
  -6   6   6    4124    2050
  -4   6   6   78321    4008
  -2   6   6  610086   12375
   0   6   6   -2280    2280
   2   6   6  153956    5269
   4   6   6  827605   14702
   6   6   6   23840    3162
   8   6   6  376509    8329
  10   6   6 1452614   22775
  12   6   6   16910    2845
  14   6   6  701568   13260
  16   6   6  685648   16079
  18   6   6   30040    4692
  20   6   6  425891   16467
  22   6   6   20227    5611
  24   6   6   26601    6916
  26   6   6  418109   14481
  28   6   6  263289   12599
  30   6   6  199545   11063
  32   6   6  451941   17582
  34   6   6   45342    9819
  36   6   6    3695   12989
  38   6   6   42066   13526
 -41   7   6   11710    8433
 -39   7   6    3492    7562
 -37   7   6   -9921    9921
 -35   7   6   95066    8587
 -33   7   6    8972    6211
 -31   7   6    6986    5549
 -29   7   6   69983    7477
 -27   7   6    6716    4883
 -25   7   6   73820    5774
 -23   7   6  227324    7574
 -21   7   6    2558    3425
 -19   7   6  468563   10554
 -17   7   6  165218    5857
 -15   7   6   -2682    2682
 -13   7   6   88471    4679
 -11   7   6  172438    6052
  -9   7   6  105155    4493
  -7   7   6  267638    6922
  -5   7   6 1486486   24968
  -3   7   6   16987    3098
  -1   7   6   19634    2880
   1   7   6   -2313    2313
   3   7   6   49689    3410
   5   7   6   17830    2988
   7   7   6  323672    8252
   9   7   6   17920    3372
  11   7   6   -2592    2592
  13   7   6   66660    3898
  15   7   6    9667    2405
  17   7   6    -465    4059
  19   7   6   -4790    4790
  21   7   6   19142    5973
  23   7   6    3652    5441
  25   7   6  147138    9682
  27   7   6   90029    9273
  29   7   6   -6597    6597
  31   7   6   25211    7531
  33   7   6   10384    7893
  35   7   6   12095    8581
  37   7   6    7405   12812
 -40   8   6   27976    9204
 -38   8   6    1099    7111
 -36   8   6   12736    7352
 -34   8   6   48352    5783
 -32   8   6   -3883    3883
 -30   8   6   -4651    4651
 -28   8   6   13409    5934
 -26   8   6   -3621    3621
 -24   8   6   25388    3333
 -22   8   6  209050    7693
 -20   8   6  271834    8571
 -18   8   6 1165147   23009
 -16   8   6  245493    7090
 -14   8   6 1389738   22404
 -12   8   6  594575   12659
 -10   8   6  746269   14761
  -8   8   6 1461772   23789
  -6   8   6   38855    3725
  -4   8   6   12561    3256
  -2   8   6   46110    3743
   0   8   6  154811    6535
   2   8   6  280258    8182
   4   8   6   57789    3742
   6   8   6   51303    3804
   8   8   6    5033    3400
  10   8   6    8442    3320
  12   8   6   -3009    3009
  14   8   6   24125    3761
  16   8   6   63208    5237
  18   8   6     534    4411
  20   8   6  351953   13842
  22   8   6   76573    7455
  24   8   6  387092   15207
  26   8   6  383546   17513
  28   8   6  155756    9633
  30   8   6  100765    8414
  32   8   6   56667    6798
  34   8   6  189733   16861
  36   8   6  149193   15290
 -39   9   6   51560   12456
 -37   9   6  -10013   10277
 -35   9   6   33998   10663
 -33   9   6   29755    9150
 -31   9   6   -7723    7723
 -29   9   6    -918    4277
 -27   9   6   -4617    4617
 -25   9   6   14829    5185
 -23   9   6   -1252    4732
 -21   9   6    5926    4606
 -19   9   6   16041    4839
 -17   9   6  499388   13439
 -15   9   6   11707    2978
 -13   9   6   34000    3991
 -11   9   6   12632    3248
  -9   9   6  394790    9871
  -7   9   6   75815    4527
  -5   9   6   -2761    2761
  -3   9   6    1197    3317
  -1   9   6  255712    8251
   1   9   6    1943    3635
   3   9   6   88910    6111
   5   9   6    1541    3356
   7   9   6   -2896    2896
   9   9   6    6044    3653
  11   9   6  171754    7833
  13   9   6   77697    5645
  15   9   6   -3048    3738
  17   9   6  674153   19056
  19   9   6   68692    6954
  21   9   6   50285    6851
  23   9   6   -4842    4842
  25   9   6  175568    9928
  27   9   6    1889    8008
  29   9   6    8409    9607
  31   9   6   19249    9409
  33   9   6   58172   12469
  35   9   6  144810   16828
 -38  10   6   82912   14082
 -36  10   6   -9981    9981
 -34  10   6    8981   10278
 -32  10   6  120911    9789
 -30  10   6   -2023    6761
 -28  10   6   50582    6534
 -26  10   6   45532    5510
 -24  10   6    8304    5053
 -22  10   6   11559    5647
 -20  10   6    4023    4605
 -18  10   6   -4416    4416
 -16  10   6  249171   10925
 -14  10   6   -4634    4634
 -12  10   6   -1772    3351
 -10  10   6  699360   14763
  -8  10   6   41888    4022
  -6  10   6   20802    3589
  -4  10   6 1111760   21644
  -2  10   6    4634    3889
   0  10   6  250278    8744
   2  10   6  225407    8676
   4  10   6  224532   10716
   6  10   6 1853798   34847
   8  10   6  180041   10053
  10  10   6   36948    4847
  12  10   6  173448    7895
  14  10   6   10572    4953
  16  10   6    3006    5136
  18  10   6  235265    9427
  20  10   6   20795    6300
  22  10   6   83635    6924
  24  10   6  553630   30365
  26  10   6   43373    8731
  28  10   6   79978   11741
  30  10   6  109296   12746
  32  10   6    2664   10513
  34  10   6  237594   25671
 -37  11   6   42042   12215
 -35  11   6   -9833   10726
 -33  11   6    1120    5511
 -31  11   6  124716    9387
 -29  11   6    3071    7548
 -27  11   6   14832    6632
 -25  11   6   16979    6588
 -23  11   6   -6706    6706
 -21  11   6   35647    5500
 -19  11   6   -5202    5202
 -17  11   6   -5470    5470
 -15  11   6  269718   12963
 -13  11   6    8731    4268
 -11  11   6  145571    7241
  -9  11   6   24288    3897
  -7  11   6  188278    8693
  -5  11   6   88721    6406
  -3  11   6  216837   10408
  -1  11   6  619667   15383
   1  11   6  465620   13213
   3  11   6  168270    9256
   5  11   6 1356956   29496
   7  11   6   42252    6182
   9  11   6   17664    6143
  11  11   6    2634    6227
  13  11   6  446701   20199
  15  11   6    1295    5786
  17  11   6   -2880    3922
  19  11   6   42260    4843
  21  11   6   -7453    7453
  23  11   6  142773   12049
  25  11   6   -8289    8289
  27  11   6   -8992    8992
  29  11   6   12710   11230
  31  11   6   -1677   11727
 -34  12   6  -15164   15164
 -32  12   6   17476   14669
 -30  12   6  167210   10831
 -28  12   6   72738    8841
 -26  12   6  231091   14135
 -24  12   6  214552   12186
 -22  12   6   -5307    5307
 -20  12   6    8180    5726
 -18  12   6   30312    6255
 -16  12   6    1612    5496
 -14  12   6  234930   11747
 -12  12   6   34526    4968
 -10  12   6   -2720    3649
  -8  12   6   90146    8326
  -6  12   6   71180    6761
  -4  12   6   82319    6949
  -2  12   6  702404   19079
   0  12   6   95524    7382
   2  12   6  417646   14864
   4  12   6  971596   24341
   6  12   6   12631    6915
   8  12   6   -3451    5831
  10  12   6   23217    6512
  12  12   6   46921    7081
  14  12   6    2522    4577
  16  12   6  153632    8076
  18  12   6   90917    6782
  20  12   6  131370   10932
  22  12   6  200710   13783
  24  12   6    7837    7334
  26  12   6     491    8541
  28  12   6   47728   11684
  30  12   6    6046   11286
 -33  13   6  -11073   11073
 -31  13   6   29437   11529
 -29  13   6   30901   12762
 -27  13   6    8247    7799
 -25  13   6   71337    9779
 -23  13   6    8381    5921
 -21  13   6   -5575    5575
 -19  13   6    3430    5937
 -17  13   6   -5442    5462
 -15  13   6   -5891    5891
 -13  13   6   18256    5642
 -11  13   6   12130    4257
  -9  13   6   -4696    4696
  -7  13   6   -5618    5618
  -5  13   6   85862    7817
  -3  13   6  159559   10685
  -1  13   6   25357    6383
   1  13   6   -5948    5948
   3  13   6    7149    6387
   5  13   6  106725    8382
   7  13   6  220931   12094
   9  13   6  112148    8804
  11  13   6  155182   10175
  13  13   6   30452    6053
  15  13   6   17990    6355
  17  13   6   89196    6887
  19  13   6   70168    6620
  21  13   6   76625    8492
  23  13   6   15459    7303
  25  13   6  -10198   10198
  27  13   6    1857   13233
 -30  14   6   64977   12093
 -28  14   6   55046   12319
 -26  14   6   -3535   10408
 -24  14   6  219670   14754
 -22  14   6   28987   10626
 -20  14   6   26947    6921
 -18  14   6   49733    9543
 -16  14   6   21281    6532
 -14  14   6  153353   12538
 -12  14   6  244991   14288
 -10  14   6  124155    8513
  -8  14   6  154512   12142
  -6  14   6  172865   11108
  -4  14   6    3729    6320
  -2  14   6   -4231    6283
   0  14   6   94155    8487
   2  14   6   14724    6737
   4  14   6   -6676    6676
   6  14   6   45589    7972
   8  14   6  319621   16419
  10  14   6  226557   16090
  12  14   6  131330    9420
  14  14   6  384741   16253
  16  14   6  121645    9359
  18  14   6   -4538    6485
  20  14   6    3754    8639
  22  14   6  -11608   16460
  24  14   6  -13904   13904
 -27  15   6   47034   18408
 -25  15   6   10120   11110
 -23  15   6  173612   16015
 -21  15   6   22711    7909
 -19  15   6   -3735    8301
 -17  15   6   17958    9463
 -15  15   6   20410    7127
 -13  15   6   39971    9770
 -11  15   6  109114   11930
  -9  15   6   12793    5873
  -7  15   6   10523    7682
  -5  15   6   -4111    7926
  -3  15   6     951    8888
  -1  15   6   -2642    7290
   1  15   6   -7066    7066
   3  15   6   -6913    6913
   5  15   6   -7567    7567
   7  15   6   -7738    7738
   9  15   6   -7291    7291
  11  15   6   16869    7773
  13  15   6   25631    8395
  15  15   6   31786    9270
  17  15   6   31227   11836
  19  15   6   29437    9492
  21  15   6  -19461   19461
 -22  16   6  201958   17502
 -20  16   6   40575   10260
 -18  16   6   -8905    9129
 -16  16   6    9508   11387
 -14  16   6    4028    9590
 -12  16   6   32794    9498
 -10  16   6  154682   11456
  -8  16   6   46745    8179
  -6  16   6  159388   17967
  -4  16   6  183802   14283
  -2  16   6   13640    8076
   0  16   6   25595    8881
   2  16   6    4648    9062
   4  16   6   -8490    8490
   6  16   6   49833    9702
   8  16   6   18536    9641
  10  16   6   23378    9135
  12  16   6  283385   21833
  14  16   6  145312   14222
  16  16   6   38725   11234
  18  16   6   49160   11166
 -17  17   6   32555   13766
 -15  17   6   14005   10631
 -13  17   6    2300   10422
 -11  17   6   13036    9025
  -9  17   6    -103    7734
  -7  17   6   -5112    8289
  -5  17   6   -7982    7982
  -3  17   6   -8626    8626
  -1  17   6   -8264    8264
   1  17   6   -9276    9276
   3  17   6   -9040    9040
   5  17   6   -2856   11069
   7  17   6    6488    9797
   9  17   6   17736   14040
  11  17   6   27791   13075
  13  17   6  -11354   11354
 -10  18   6   54179   13181
  -8  18   6   35635   13411
  -6  18   6   46827   14526
  -4  18   6   17548   10331
  -2  18   6    6924   10136
   0  18   6  -10769   10769
   2  18   6  -10344   10344
   4  18   6   25163   12200
 -45   1   7   84966   10061
 -43   1   7   -7045    7045
 -41   1   7    -478    6190
 -39   1   7   28402    7397
 -37   1   7   -4909    4909
 -35   1   7     741    5657
 -33   1   7   49394    7983
 -31   1   7   -4537    4537
 -29   1   7  188363    8278
 -27   1   7  140153    6919
 -25   1   7  130761    6442
 -23   1   7  432552   11206
 -21   1   7  207903    7136
 -19   1   7  615218   13083
 -17   1   7 1092144   18108
 -15   1   7 2246426   33417
 -13   1   7 2765536   39669
 -11   1   7  579194   10357
  -9   1   7  223537    6042
  -7   1   7 1368710   21515
  -5   1   7 2633512   39865
  -3   1   7 1351371   20276
  -1   1   7 6808801   94656
   1   1   7    9360    2173
   3   1   7  657301   11558
   5   1   7  404035    8718
   7   1   7  368611    8177
   9   1   7  163984    5274
  11   1   7  107533    4148
  13   1   7  668365   11965
  15   1   7 1249070   20960
  17   1   7  515596   11475
  19   1   7  147562    5662
  21   1   7  669357   13950
  23   1   7  207638    8078
  25   1   7   69644    5313
  27   1   7 1086962   26053
  29   1   7  267018   10837
  31   1   7  689633   20182
  33   1   7  514433   16727
  35   1   7   28552    6439
  37   1   7   20220   10129
  39   1   7  -11095   11095
 -44   2   7   48784    8938
 -42   2   7    3859    7805
 -40   2   7   -7233    7233
 -38   2   7   -6784    6784
 -36   2   7   13291    6349
 -34   2   7   63431    7360
 -32   2   7  154579    9932
 -30   2   7   -4470    4470
 -28   2   7  376098   14057
 -26   2   7   61580    5161
 -24   2   7   10688    4016
 -22   2   7  488596   11551
 -20   2   7  160285    6599
 -18   2   7  133456    5631
 -16   2   7  207520    6392
 -14   2   7  243011    6356
 -12   2   7   47119    3111
 -10   2   7     797    2171
  -8   2   7   44702    2829
  -6   2   7  318802    6817
  -4   2   7  132537    4585
  -2   2   7  115869    4048
   0   2   7 1190636   19004
   2   2   7  165497    4681
   4   2   7  181429    4914
   6   2   7 1764938   30031
   8   2   7  335435    7815
  10   2   7   85352    3519
  12   2   7    8528    2399
  14   2   7  237795    6640
  16   2   7 1090486   22088
  18   2   7  289102    8276
  20   2   7   65191    4449
  22   2   7   19306    4136
  24   2   7   12169    4342
  26   2   7  137948    7448
  28   2   7  197780   10031
  30   2   7  169414    9824
  32   2   7  132491    9033
  34   2   7  103061   10633
  36   2   7    2596    8651
  38   2   7    2518   10943
 -45   3   7   -3724    8042
 -43   3   7  135322   11610
 -41   3   7   -6327    6327
 -39   3   7   -5985    5985
 -37   3   7    1626    5967
 -35   3   7    2836    5985
 -33   3   7  314788   12460
 -31   3   7  432857   14396
 -29   3   7  374930   12591
 -27   3   7  803799   19648
 -25   3   7   -3866    3866
 -23   3   7   35847    4706
 -21   3   7  566938   12920
 -19   3   7 1074554   21377
 -17   3   7  329400    8513
 -15   3   7  683331   12841
 -13   3   7  791040   13537
 -11   3   7  975897   16842
  -9   3   7 1720386   28995
  -7   3   7  283973    7866
  -5   3   7 4983759   69242
  -3   3   7 1020676   17318
  -1   3   7  944474   15803
   1   3   7  311978    6760
   3   3   7 1536445   23904
   5   3   7  674412   12268
   7   3   7  464414   10449
   9   3   7   22820    2590
  11   3   7  929061   15678
  13   3   7 4409227   63219
  15   3   7 1569233   25451
  17   3   7 1662757   27259
  19   3   7 1070336   21258
  21   3   7   13453    4596
  23   3   7  160544    8540
  25   3   7  274845   12557
  27   3   7   -2063    5651
  29   3   7  534032   17320
  31   3   7  293170   14568
  33   3   7   11074    7061
  35   3   7  212558   12955
  37   3   7   94986   12142
  39   3   7   85268   13073
 -44   4   7    2743    8477
 -42   4   7    6980    8581
 -40   4   7   -7206    7206
 -38   4   7   11274    6867
 -36   4   7    4884    6382
 -34   4   7    8662    6193
 -32   4   7  270674   12257
 -30   4   7  592281   16990
 -28   4   7  220432   10305
 -26   4   7   43314    5907
 -24   4   7   44808    5215
 -22   4   7   36618    4544
 -20   4   7   24344    3993
 -18   4   7   -2952    2952
 -16   4   7  112509    5167
 -14   4   7  314334    7461
 -12   4   7   40361    3670
 -10   4   7   82330    4121
  -8   4   7   11191    2639
  -6   4   7  756469   13403
  -4   4   7  146902    5183
  -2   4   7 1209693   20665
   0   4   7  600393   11557
   2   4   7  759045   12980
   4   4   7 1671900   25890
   6   4   7   63554    3546
   8   4   7  124939    4835
  10   4   7  348462    8173
  12   4   7   18875    3133
  14   4   7  489550   10466
  16   4   7    5276    2659
  18   4   7   14893    4123
  20   4   7   96670    6765
  22   4   7  423050   13128
  24   4   7   35128    6157
  26   4   7    9833    6156
  28   4   7  140025    9484
  30   4   7   37769    7124
  32   4   7    2431    7180
  34   4   7   16610    7850
  36   4   7   14972   12525
  38   4   7   45084   11557
 -43   5   7    6049   10392
 -41   5   7  -10456   10456
 -39   5   7   -7278    7278
 -37   5   7   -4609    7142
 -35   5   7   15377    6684
 -33   5   7   -4252    6049
 -31   5   7  130869    8808
 -29   5   7  531031   16864
 -27   5   7  749114   19068
 -25   5   7  416051   12544
 -23   5   7  252825    9922
 -21   5   7  246240    8062
 -19   5   7  364922    9213
 -17   5   7  129870    5298
 -15   5   7  911246   15648
 -13   5   7    -868    2484
 -11   5   7  166611    6026
  -9   5   7  890642   16071
  -7   5   7  455662    9671
  -5   5   7   69170    3874
  -3   5   7  971228   18069
  -1   5   7  887693   16008
   1   5   7 5199480   76699
   3   5   7 2111358   32623
   5   5   7  609656   12186
   7   5   7 1530888   25701
   9   5   7  915179   15735
  11   5   7  747921   13839
  13   5   7  242846    6707
  15   5   7  337923    9196
  17   5   7  960879   19918
  19   5   7   81968    6449
  21   5   7  172390    8954
  23   5   7   22692    5942
  25   5   7   -4631    5984
  27   5   7  149286    9220
  29   5   7  133988    9800
  31   5   7  155906   11331
  33   5   7  160531   11816
  35   5   7   37353   10004
  37   5   7  224364   14777
 -42   6   7   17395   10185
 -40   6   7   -8337    8413
 -38   6   7   -7394    7394
 -36   6   7     362    6928
 -34   6   7   -6458    6458
 -32   6   7    2335    5614
 -30   6   7   25562    5781
 -28   6   7   -4598    4598
 -26   6   7   89301    6010
 -24   6   7  318313   10899
 -22   6   7   -4162    4162
 -20   6   7  235946    8078
 -18   6   7  456891   10147
 -16   6   7  255010    7043
 -14   6   7  284942    7557
 -12   6   7   -2589    2589
 -10   6   7  181612    6258
  -8   6   7  332256    8543
  -6   6   7   34980    3356
  -4   6   7   23513    3021
  -2   6   7  648200   13641
   0   6   7    2777    2443
   2   6   7   22217    3014
   4   6   7   58999    3918
   6   6   7  800421   15491
   8   6   7  637834   13253
  10   6   7   -2715    2715
  12   6   7    2999    2817
  14   6   7    1044    2569
  16   6   7      94    3883
  18   6   7   90894    6414
  20   6   7   -3723    4874
  22   6   7   -4969    4969
  24   6   7    6633    6024
  26   6   7   93219    8479
  28   6   7   77935    9931
  30   6   7    8298    7878
  32   6   7   -2157    7615
  34   6   7    1292    8109
  36   6   7   -8873    8873
 -41   7   7   21789    9930
 -39   7   7    2296    8491
 -37   7   7   31153    7977
 -35   7   7  215489   11762
 -33   7   7   -6089    6802
 -31   7   7   -4728    4728
 -29   7   7  108252    8215
 -27   7   7   65727    6389
 -25   7   7  415508   14959
 -23   7   7 1055553   24021
 -21   7   7   -2688    2688
 -19   7   7  471876   12586
 -17   7   7 1152669   19127
 -15   7   7   -2602    2892
 -13   7   7 1281858   22337
 -11   7   7  504241   11415
  -9   7   7   14677    3371
  -7   7   7  882346   16388
  -5   7   7   -2767    2767
  -3   7   7  140062    5648
  -1   7   7  851642   15757
   1   7   7   46557    3808
   3   7   7     202    2710
   5   7   7  168445    6052
   7   7   7    -518    3007
   9   7   7  194797    6653
  11   7   7  121815    5421
  13   7   7   -1075    2900
  15   7   7  157723    6739
  17   7   7  182907    8508
  19   7   7   -4853    4853
  21   7   7  153527    9281
  23   7   7   73790    7602
  25   7   7  219049   11587
  27   7   7  252298   12390
  29   7   7   97030    9605
  31   7   7  184085   14432
  33   7   7  193117   12498
  35   7   7   22254    9969
 -40   8   7   -8362    8362
 -38   8   7   -7821    8131
 -36   8   7   22485    6994
 -34   8   7  128910    9714
 -32   8   7    -386    5360
 -30   8   7   11027    6023
 -28   8   7    9894    5280
 -26   8   7   10691    5476
 -24   8   7    2432    3058
 -22   8   7  462055   12155
 -20   8   7   -3169    3169
 -18   8   7  352143    9719
 -16   8   7  559407   12875
 -14   8   7  657438   13640
 -12   8   7   16870    3645
 -10   8   7    8631    3674
  -8   8   7 1181468   19974
  -6   8   7 1030943   18632
  -4   8   7    5936    3244
  -2   8   7  655363   13432
   0   8   7  116528    5204
   2   8   7   -2527    2527
   4   8   7   11025    3172
   6   8   7    3757    3028
   8   8   7  194499    7029
  10   8   7   -3522    3522
  12   8   7   63571    5529
  14   8   7   -2709    4047
  16   8   7   11155    4115
  18   8   7  190703   10326
  20   8   7   -4413    5429
  22   8   7   65554    7488
  24   8   7   -3769    5922
  26   8   7  165881   12617
  28   8   7      82    7415
  30   8   7    1430    7576
  32   8   7   81479   10027
  34   8   7     997    9227
 -39   9   7   47186   12433
 -37   9   7   90050   13430
 -35   9   7   -7455    7455
 -33   9   7  157677   12536
 -31   9   7   -7057    7057
 -29   9   7    8833    6632
 -27   9   7  141274   11813
 -25   9   7  297488   11596
 -23   9   7    7632    3840
 -21   9   7  369540   12995
 -19   9   7  245799    8426
 -17   9   7  200097    8250
 -15   9   7  952495   19746
 -13   9   7   14571    3951
 -11   9   7    -197    3518
  -9   9   7  665829   13329
  -7   9   7  624650   12866
  -5   9   7  113455    5675
  -3   9   7 1366131   22766
  -1   9   7  417491   11411
   1   9   7 2736439   45495
   3   9   7 1133575   22051
   5   9   7     108    3075
   7   9   7   30660    3907
   9   9   7   75731    5464
  11   9   7   -2208    4274
  13   9   7   68680    5836
  15   9   7    2382    4159
  17   9   7   -2523    5460
  19   9   7   -5484    5484
  21   9   7   15348    6559
  23   9   7   27007    7557
  25   9   7  207650   11424
  27   9   7   94998    8424
  29   9   7   55033    6937
  31   9   7   69608   23041
  33   9   7   92414   14091
 -38  10   7   17767   10271
 -36  10   7    9143    9619
 -34  10   7   22824   10759
 -32  10   7   75337   11885
 -30  10   7   -6099    6099
 -28  10   7   76059    7985
 -26  10   7   -4872    4872
 -24  10   7    2134    6003
 -22  10   7   45242    6221
 -20  10   7  357352   13722
 -18  10   7  137851    8928
 -16  10   7   25588    5018
 -14  10   7   -4187    4187
 -12  10   7   34287    4794
 -10  10   7  186949    7349
  -8  10   7   43641    4548
  -6  10   7   51993    4573
  -4  10   7   79700    5868
  -2  10   7   28714    4643
   0  10   7 1224644   23496
   2  10   7  146605    7325
   4  10   7   11003    4774
   6  10   7   -3849    4381
   8  10   7    8489    4344
  10  10   7   -3547    4107
  12  10   7   76181    6568
  14  10   7   87999    6715
  16  10   7  146444    7734
  18  10   7   33512    7343
  20  10   7   -5103    6514
  22  10   7   35202    7271
  24  10   7   35135    6216
  26  10   7   -4010    8718
  28  10   7   -8741    8741
  30  10   7   26942   11963
  32  10   7   -4442   12013
 -35  11   7    9408   10587
 -33  11   7  100778   15328
 -31  11   7  188919   15428
 -29  11   7   12104    5774
 -27  11   7   -4873    4873
 -25  11   7    3677    5058
 -23  11   7   -4759    4759
 -21  11   7   51416    6555
 -19  11   7   91952    7785
 -17  11   7  276543   13006
 -15  11   7  315989   11758
 -13  11   7  321425   11578
 -11  11   7   21686    5323
  -9  11   7   33401    4528
  -7  11   7  181916    9086
  -5  11   7  501259   14735
  -3  11   7  661590   15891
  -1  11   7  385458   11994
   1  11   7   25880    6362
   3  11   7    2189    5465
   5  11   7   76423    6214
   7  11   7   42492    6251
   9  11   7   62684    7402
  11  11   7  445859   15313
  13  11   7 1234282   26911
  15  11   7   96864    8242
  17  11   7   35571    4809
  19  11   7   90083    8880
  21  11   7   -6236    6236
  23  11   7  114934    9558
  25  11   7   31815    9827
  27  11   7   14241   11571
  29  11   7   60519   12467
  31  11   7  -12276   12276
 -34  12   7    3658   12555
 -32  12   7   51380   12961
 -30  12   7  133925   10592
 -28  12   7   -6077    6895
 -26  12   7   -5394    5394
 -24  12   7   -5680    5891
 -22  12   7    2386    5436
 -20  12   7   34179    7719
 -18  12   7    6010    5761
 -16  12   7  125207    9038
 -14  12   7  106526    7166
 -12  12   7   29738    4875
 -10  12   7   -4265    4265
  -8  12   7   29939    6166
  -6  12   7    3869    6032
  -4  12   7   18080    5847
  -2  12   7    1341    5410
   0  12   7   -2915    5480
   2  12   7   41352    6735
   4  12   7   -3736    6109
   6  12   7  141228    8790
   8  12   7   11417    6520
  10  12   7   40572    6596
  12  12   7  182355   11028
  14  12   7   30165    5410
  16  12   7  191164    9665
  18  12   7  121378    7585
  20  12   7   16895    6405
  22  12   7   40700    8173
  24  12   7    3336    7935
  26  12   7   -9918   12047
  28  12   7    9767   11338
 -31  13   7   17747    8980
 -29  13   7  146013   15048
 -27  13   7   -7931    9174
 -25  13   7   -4693    9485
 -23  13   7   14256    6781
 -21  13   7    9375    9123
 -19  13   7  171288   13441
 -17  13   7   97461    9186
 -15  13   7   84234    8248
 -13  13   7   91045    8533
 -11  13   7   -3738    3738
  -9  13   7   52074    7124
  -7  13   7    5830    6105
  -5  13   7  259590   14366
  -3  13   7  510683   20402
  -1  13   7 1274399   30688
   1  13   7  446758   17573
   3  13   7   66725    7975
   5  13   7   54638    8385
   7  13   7   14729    6909
   9  13   7  562405   18308
  11  13   7  509340   21827
  13  13   7  189649   11066
  15  13   7  502799   22435
  17  13   7   82137    7054
  19  13   7   -1155    6367
  21  13   7   70410   12699
  23  13   7   18031    9877
  25  13   7   12941   11640
 -28  14   7   70285   10975
 -26  14   7     739   10256
 -24  14   7   19964    8598
 -22  14   7    8642    7493
 -20  14   7   62615    7953
 -18  14   7   28167    8655
 -16  14   7   19139    6530
 -14  14   7   14205    5696
 -12  14   7   35096    7110
 -10  14   7   -6588    6588
  -8  14   7  175411   11534
  -6  14   7   68848    9126
  -4  14   7   76912    8920
  -2  14   7   14309    7494
   0  14   7  133775   11102
   2  14   7   -6461    6461
   4  14   7   -5661    7254
   6  14   7   -6475    6475
   8  14   7  114234    9679
  10  14   7   65826    8755
  12  14   7   24535    7287
  14  14   7    3945    6239
  16  14   7    7870    7294
  18  14   7   -5271    5271
  20  14   7   65664    7886
  22  14   7    9025   11558
  24  14   7  -14433   14433
 -25  15   7   29352   10317
 -23  15   7   37924    9016
 -21  15   7   52845    9421
 -19  15   7   16393    8631
 -17  15   7    1585    7821
 -15  15   7  169839   14085
 -13  15   7  124491   13113
 -11  15   7   79381    7957
  -9  15   7    9223    7095
  -7  15   7   13758    7616
  -5  15   7   72727   10578
  -3  15   7   33430    8237
  -1  15   7   -4357    7410
   1  15   7   42814    9221
   3  15   7   -8753    8962
   5  15   7   -8205    8205
   7  15   7    2717    7652
   9  15   7  139519   10595
  11  15   7   85779    9547
  13  15   7  202632   12179
  15  15   7  122048   10096
  17  15   7    9752   16771
  19  15   7    9413   10103
 -22  16   7   20244   12149
 -20  16   7    2832   11251
 -18  16   7     712   12178
 -16  16   7   30913    8244
 -14  16   7   21479   13309
 -12  16   7   54381   11399
 -10  16   7    6777    9794
  -8  16   7   29532    9085
  -6  16   7   28837   10094
  -4  16   7   25049    9642
  -2  16   7   -8432    8432
   0  16   7   -7987    7987
   2  16   7   -8873    8873
   4  16   7   -9043    9043
   6  16   7   -6821    9715
   8  16   7   66418   10772
  10  16   7   45772   10685
  12  16   7   24393   14987
  14  16   7   -3360   11186
  16  16   7   -2225   13197
 -17  17   7    9013   29603
 -15  17   7   22220   10561
 -13  17   7   -8936   11693
 -11  17   7   -5163   17966
  -9  17   7   51078   11447
  -7  17   7   13656   11298
  -5  17   7   14865    9790
  -3  17   7   -9416    9416
  -1  17   7   -8505    8892
   1  17   7    -283   11257
   3  17   7    8838   12668
   5  17   7   -1399   10511
   7  17   7   18965   10531
   9  17   7   13418   11531
  11  17   7   18596   11466
  -4  18   7  -12819   12819
  -2  18   7  -10543   11354
   0  18   7   11575   31698
 -44   0   8   37896   13805
 -42   0   8    -618   16389
 -40   0   8  271642   23382
 -38   0   8   -6482    6482
 -36   0   8    7141    4460
 -34   0   8   78564    6633
 -32   0   8   33519    5123
 -30   0   8   -5937    5937
 -28   0   8  298537   12198
 -26   0   8   33588    4673
 -24   0   8  415474   13319
 -22   0   8  408872   12742
 -20   0   8  152752    8729
 -18   0   8 1869482   40686
 -16   0   8 2026161   43440
 -14   0   8   -3038    3038
 -12   0   8  701519   17512
 -10   0   8    8508    4313
  -8   0   8 3693323   86382
  -6   0   8 5113740  106877
  -4   0   8   13917    5180
  -2   0   8 2591779   51619
   0   0   8 1594716   34602
   2   0   8 1991930   41927
   4   0   8  190494    8730
   6   0   8   69885    6020
   8   0   8   37908    4981
  10   0   8  101505    7070
  12   0   8 1276403   29053
  14   0   8  276528   11157
  16   0   8 2034320   57360
  18   0   8  454507   16188
  20   0   8  272752   14044
  22   0   8 2711999   88310
  24   0   8 1721295   47661
  26   0   8 1177457   43359
  28   0   8  935539   32083
  30   0   8   23299    7942
  32   0   8  178780   16268
  34   0   8  113835   13038
  36   0   8   37361   11716
  38   0   8   95481   18615
 -45   1   8   20029   10811
 -43   1   8     802    7574
 -41   1   8   36775    6829
 -39   1   8    4403    7188
 -37   1   8   -2129    5708
 -35   1   8    8688    5918
 -33   1   8    5774    5115
 -31   1   8   -4495    4495
 -29   1   8    6822    4350
 -27   1   8  270619    9926
 -25   1   8   -3131    3131
 -23   1   8  206368    7561
 -21   1   8  289025    9106
 -19   1   8   22659    3160
 -17   1   8   13157    2602
 -15   1   8  255822    6756
 -13   1   8   13589    2470
 -11   1   8 1556828   23647
  -9   1   8  422285    9200
  -7   1   8 2733361   43526
  -5   1   8  315062    7850
  -3   1   8   36033    2597
  -1   1   8  248737    6256
   1   1   8  114953    4073
   3   1   8 1081274   17837
   5   1   8  127368    5018
   7   1   8   30078    2867
   9   1   8  395284    8947
  11   1   8   -2529    2529
  13   1   8   92506    4493
  15   1   8   12602    3004
  17   1   8  236869    8552
  19   1   8  137006    6333
  21   1   8  506921   14236
  23   1   8  150179    7389
  25   1   8   19493    5190
  27   1   8   24818    5398
  29   1   8  211457   10560
  31   1   8    3133    4783
  33   1   8  116882    9674
  35   1   8   84277    9625
  37   1   8   -8375   10137
 -44   2   8   47386   10788
 -42   2   8   80165    9651
 -40   2   8   -6339    6339
 -38   2   8   66986    8287
 -36   2   8   -4944    4944
 -34   2   8    6694    5819
 -32   2   8    5858    5148
 -30   2   8    -103    5130
 -28   2   8   24114    5308
 -26   2   8  109926    6685
 -24   2   8  316537    9925
 -22   2   8  484302   12137
 -20   2   8  786107   16295
 -18   2   8  307644    8792
 -16   2   8    1158    2021
 -14   2   8  235884    6436
 -12   2   8 1967983   30374
 -10   2   8 1885725   29313
  -8   2   8 4938106   70096
  -6   2   8 3754565   53901
  -4   2   8 1649830   27371
  -2   2   8 1468638   22912
   0   2   8  424977    9115
   2   2   8   52075    3086
   4   2   8  838627   15245
   6   2   8  262806    7348
   8   2   8  824856   15413
  10   2   8   10612    2756
  12   2   8  268929    7341
  14   2   8  634766   12088
  16   2   8     581    2845
  18   2   8  117602    5591
  20   2   8  203875    8382
  22   2   8  188888    8082
  24   2   8  553788   26685
  26   2   8  100893    7200
  28   2   8   16547    6122
  30   2   8   81376    8397
  32   2   8  115328    9554
  34   2   8  201314   12867
  36   2   8  194733   15126
  38   2   8  172120   15677
 -43   3   8   16307    8210
 -41   3   8    -973    6547
 -39   3   8   -6264    6264
 -37   3   8   55087    8429
 -35   3   8   -5643    5643
 -33   3   8   54518    7433
 -31   3   8   -1375    5638
 -29   3   8   77676    6986
 -27   3   8   -4755    4755
 -25   3   8  175940    7849
 -23   3   8   23943    4661
 -21   3   8  100018    5993
 -19   3   8   19562    3781
 -17   3   8   19498    3065
 -15   3   8  118359    4657
 -13   3   8   35099    3086
 -11   3   8   89152    4619
  -9   3   8  108572    4371
  -7   3   8   26880    2858
  -5   3   8  183893    5557
  -3   3   8  438072    9373
  -1   3   8  141949    5016
   1   3   8  615198   11243
   3   3   8   79086    3678
   5   3   8  150324    4914
   7   3   8   77657    4173
   9   3   8    5157    2169
  11   3   8     753    2540
  13   3   8   87498    4182
  15   3   8  425838   10644
  17   3   8  285826    7902
  19   3   8  114229    5456
  21   3   8  561475   17104
  23   3   8  346158   13022
  25   3   8   97601    8100
  27   3   8   -5706    5706
  29   3   8   14889    7191
  31   3   8  276786   13171
  33   3   8   94456    9473
  35   3   8    4624    8356
  37   3   8   26201   11499
 -44   4   8   -3645   10574
 -42   4   8  137123   15305
 -40   4   8   -6198    7593
 -38   4   8   39932    7764
 -36   4   8  201010   11448
 -34   4   8  108110    8779
 -32   4   8  242852   13390
 -30   4   8  117336    8676
 -28   4   8   31483    6060
 -26   4   8  196617    9226
 -24   4   8     523    4959
 -22   4   8  102143    5865
 -20   4   8  850335   17191
 -18   4   8   84767    5089
 -16   4   8   42999    3252
 -14   4   8   -1360    2769
 -12   4   8   98142    4872
 -10   4   8 1312457   21249
  -8   4   8 2131444   31791
  -6   4   8  993473   16530
  -4   4   8  903027   15521
  -2   4   8  148005    5546
   0   4   8  139571    5016
   2   4   8 1282554   20414
   4   4   8   38265    3230
   6   4   8   13812    2864
   8   4   8 2360716   38646
  10   4   8 1021907   18512
  12   4   8  187364    6000
  14   4   8  120875    5468
  16   4   8    3682    3106
  18   4   8  207917    8230
  20   4   8  110393    7439
  22   4   8   11267    6077
  24   4   8   16904    6092
  26   4   8   94922    8376
  28   4   8  108627    9317
  30   4   8  459529   19480
  32   4   8   92034    9584
  34   4   8   67755   10207
  36   4   8  211477   15644
 -43   5   8   24914   10400
 -41   5   8    9443    8562
 -39   5   8   23946    8194
 -37   5   8   -6991    6991
 -35   5   8   15668    7611
 -33   5   8   89377    8330
 -31   5   8   60790    7528
 -29   5   8  345768   12495
 -27   5   8   51350    6251
 -25   5   8   30053    5473
 -23   5   8   -4403    4403
 -21   5   8   49205    5197
 -19   5   8  666846   15397
 -17   5   8   -1472    2318
 -15   5   8    2674    2494
 -13   5   8 1519746   26669
 -11   5   8  523869   11174
  -9   5   8  146526    5461
  -7   5   8  771388   14110
  -5   5   8   71684    4289
  -3   5   8  958459   18626
  -1   5   8  164307    5871
   1   5   8   83206    4480
   3   5   8  338391    8273
   5   5   8  273366    7755
   7   5   8   83417    5226
   9   5   8  303989    8569
  11   5   8     604    2949
  13   5   8  197272    6433
  15   5   8    6177    3196
  17   5   8  156239    7926
  19   5   8   68741    6162
  21   5   8  207061    9728
  23   5   8   66928    7071
  25   5   8    5018    6214
  27   5   8    8787    6878
  29   5   8   55149    8065
  31   5   8   22517    8658
  33   5   8   10880    8673
  35   5   8   -4067    9512
  37   5   8  -13813   13813
 -42   6   8   -3896    9022
 -40   6   8   40854   10743
 -38   6   8   -2295    7733
 -36   6   8   -2854    6897
 -34   6   8   62968    7392
 -32   6   8   -5436    5436
 -30   6   8   46815    6558
 -28   6   8  213718    9960
 -26   6   8   66801    7441
 -24   6   8  476230   18015
 -22   6   8 1120508   28381
 -20   6   8   36899    4883
 -18   6   8 1154124   19521
 -16   6   8  139901    5572
 -14   6   8  195400    6924
 -12   6   8  493401   11769
 -10   6   8   28784    3764
  -8   6   8  827909   15010
  -6   6   8 3520743   49798
  -4   6   8   50810    3925
  -2   6   8 1980332   33369
   0   6   8  988151   16772
   2   6   8  971241   16861
   4   6   8  209091    7061
   6   6   8  605057   12855
   8   6   8  711974   14702
  10   6   8  562348   12178
  12   6   8   60714    4247
  14   6   8   75792    4680
  16   6   8  122909    7147
  18   6   8   21982    5230
  20   6   8   61364    6437
  22   6   8  267869   11703
  24   6   8    4305    6452
  26   6   8  145199   11407
  28   6   8  209717   14350
  30   6   8   19129    8098
  32   6   8   57473    9016
  34   6   8   31275   10250
  36   6   8   44241   11036
 -41   7   8  -10350   10350
 -39   7   8   13793    9318
 -37   7   8   -2895   10574
 -35   7   8   41176    8290
 -33   7   8   22194    7046
 -31   7   8   -5500    5793
 -29   7   8   53763    7126
 -27   7   8  237911   10925
 -25   7   8   62446    5903
 -23   7   8   90067    7207
 -21   7   8   65343    5841
 -19   7   8    7860    3522
 -17   7   8  421588   11332
 -15   7   8   57357    4560
 -13   7   8   -3480    3480
 -11   7   8  149444    6153
  -9   7   8  103709    5488
  -7   7   8  456985   10421
  -5   7   8  401992    9920
  -3   7   8  115913    5745
  -1   7   8   11299    2954
   1   7   8    7429    3090
   3   7   8   15160    3185
   5   7   8    5979    3200
   7   7   8   -2522    3219
   9   7   8    -564    3405
  11   7   8   31840    4047
  13   7   8   25910    3875
  15   7   8   83868    5082
  17   7   8    6434    5482
  19   7   8  338465   14130
  21   7   8   14846    6402
  23   7   8   79076    7840
  25   7   8   36260    7850
  27   7   8  311676   15365
  29   7   8   72181    9249
  31   7   8    6832    8719
  33   7   8  -10214   10214
  35   7   8   -9661    9661
 -40   8   8   35949   10672
 -38   8   8   61610   10564
 -36   8   8   26531    7301
 -34   8   8   -5806    5806
 -32   8   8   17167    6711
 -30   8   8    -663    5552
 -28   8   8   81004    7424
 -26   8   8  576020   18752
 -24   8   8  615097   20173
 -22   8   8 1003260   22255
 -20   8   8  386400   10571
 -18   8   8  528990   15089
 -16   8   8 1258801   24181
 -14   8   8  155865    7029
 -12   8   8   57926    4509
 -10   8   8   16479    3371
  -8   8   8  113785    5869
  -6   8   8  138160    6499
  -4   8   8  254907    8332
  -2   8   8  387968    9816
   0   8   8   92403    5152
   2   8   8  264313    8166
   4   8   8  420564   10223
   6   8   8  368107    9524
   8   8   8   46132    4637
  10   8   8  246262    9021
  12   8   8  658739   15753
  14   8   8    5129    3878
  16   8   8  122754    6740
  18   8   8  141428    8916
  20   8   8  433701   16193
  22   8   8  487973   24435
  24   8   8  265379   13170
  26   8   8  299627   13874
  28   8   8  156316   10688
  30   8   8   26356    8159
  32   8   8    9261    9881
  34   8   8  -10510   10510
 -39   9   8    2873   11293
 -37   9   8   20108    8594
 -35   9   8   -5688    5688
 -33   9   8   78512    7628
 -31   9   8   52989    5685
 -29   9   8   -3791    3791
 -27   9   8   91399    8586
 -25   9   8  276878   11197
 -23   9   8   34679    4088
 -21   9   8  148571    6908
 -19   9   8   13087    4750
 -17   9   8  106951    6267
 -15   9   8  247906    9738
 -13   9   8    1714    4169
 -11   9   8    5488    3989
  -9   9   8    7176    3634
  -7   9   8  286932    8944
  -5   9   8   34107    4415
  -3   9   8  836981   18009
  -1   9   8  269594   12263
   1   9   8   16967    3859
   3   9   8   60082    4625
   5   9   8    8501    3626
   7   9   8    8671    3867
   9   9   8   65793    5597
  11   9   8   37446    5558
  13   9   8   18654    5245
  15   9   8    2432    4184
  17   9   8   17855    6185
  19   9   8    2664    5739
  21   9   8   -1756    6461
  23   9   8    7343    6594
  25   9   8   87384    8717
  27   9   8   51008    9594
  29   9   8   -7879    7879
  31   9   8   -6112   10852
 -38  10   8   44291   33290
 -36  10   8   21574   11239
 -34  10   8    3398    7941
 -32  10   8   60574    9889
 -30  10   8   -2890    8839
 -28  10   8    4647    8704
 -26  10   8  322457   18343
 -24  10   8  187433   10171
 -22  10   8  249639   12832
 -20  10   8  677692   17197
 -18  10   8  106145    6469
 -16  10   8  328392   12753
 -14  10   8  447433   14227
 -12  10   8   32934    5050
 -10  10   8  287279   10317
  -8  10   8  835596   18339
  -6  10   8  146756    7114
  -4  10   8 1803060   31304
  -2  10   8 1352385   25174
   0  10   8  237768   12485
   2  10   8  390850   12968
   4  10   8   12357    5847
   6  10   8   52182    4706
   8  10   8  651485   16619
  10  10   8    4221    5987
  12  10   8  327068   11684
  14  10   8  145030    9195
  16  10   8   22306    4953
  18  10   8   59867    7430
  20  10   8  145335    9420
  22  10   8   -6841    6841
  24  10   8   50281    9140
  26  10   8    4002    7043
  28  10   8   -9215    9215
  30  10   8   -2020   10899
 -35  11   8   38548   11704
 -33  11   8  -10773   10773
 -31  11   8   39275    7296
 -29  11   8   11042    8472
 -27  11   8    6728    5935
 -25  11   8    3860    6134
 -23  11   8    9589    6078
 -21  11   8    3229    5837
 -19  11   8   30338    6602
 -17  11   8    1894    5379
 -15  11   8   83944    7025
 -13  11   8  226280   10792
 -11  11   8   13560    5856
  -9  11   8  181297    8720
  -7  11   8   15475    4089
  -5  11   8  654421   16679
  -3  11   8    8188    4561
  -1  11   8   39435    5896
   1  11   8   20680    6250
   3  11   8  348992   17084
   5  11   8   28991    5948
   7  11   8   36247    6685
   9  11   8    5670    6231
  11  11   8  409070   13541
  13  11   8  106509    7062
  15  11   8   52235    7810
  17  11   8     212    5870
  19  11   8   33899    7222
  21  11   8   36088    8992
  23  11   8   25539    9681
  25  11   8   -8533    8533
  27  11   8  -11385   11385
  29  11   8  -14676   17452
 -34  12   8   29671   12530
 -32  12   8    1287    9864
 -30  12   8   30459   13868
 -28  12   8   16524    7848
 -26  12   8   -6338    6338
 -24  12   8   31876    7778
 -22  12   8  181945   12042
 -20  12   8   33494    7036
 -18  12   8   -2737    5835
 -16  12   8   44486    5920
 -14  12   8   22644    5052
 -12  12   8  325553   12680
 -10  12   8   12407    6064
  -8  12   8   -5472    5472
  -6  12   8  101799    8182
  -4  12   8   -3549    5962
  -2  12   8   24752    6435
   0  12   8   -5711    5711
   2  12   8   24799    6494
   4  12   8   76246    8240
   6  12   8  361598   21970
   8  12   8  447847   18456
  10  12   8  206020   10866
  12  12   8  221075   12806
  14  12   8   71916    6448
  16  12   8  103549    9291
  18  12   8   57674    5794
  20  12   8   41561    7765
  22  12   8  219032   13839
  24  12   8   12677   11245
  26  12   8     -55   11661
 -31  13   8    8526   14402
 -29  13   8   23536    9688
 -27  13   8   -1368    9982
 -25  13   8  -10059   10059
 -23  13   8   23730    8562
 -21  13   8    6215    6965
 -19  13   8   -2962    6154
 -17  13   8   21141    8696
 -15  13   8  127108   10031
 -13  13   8     221    4968
 -11  13   8   56415    6856
  -9  13   8   -5625    5625
  -7  13   8   -1089    6786
  -5  13   8   33605    7354
  -3  13   8   33452    7465
  -1  13   8   40262    8061
   1  13   8   56850    8222
   3  13   8    -490    6535
   5  13   8   -6481    6481
   7  13   8    7967    7461
   9  13   8     981    6490
  11  13   8  117875    9215
  13  13   8  123565    9568
  15  13   8   76962    8226
  17  13   8   48107    6084
  19  13   8    -572    7457
  21  13   8   -3257    9659
  23  13   8   -2106   13076
  25  13   8   -8008   15701
 -28  14   8   86788   15024
 -26  14   8     377   16457
 -24  14   8   14510    9143
 -22  14   8   12498    7303
 -20  14   8   -6714    6714
 -18  14   8   37096    7565
 -16  14   8   -6488    6488
 -14  14   8   15712    5863
 -12  14   8   -2136    7564
 -10  14   8    3721    8190
  -8  14   8   36690    7685
  -6  14   8  273747   13844
  -4  14   8  342953   17298
  -2  14   8  137208   11042
   0  14   8   80706    9229
   2  14   8   -6748    7757
   4  14   8   -7218    7218
   6  14   8    1944    6967
   8  14   8   -7770    7770
  10  14   8   76890    8478
  12  14   8   46908    7645
  14  14   8   31066    8577
  16  14   8  101458    9162
  18  14   8   -2126    9662
  20  14   8   -6106   11841
  22  14   8   41925   16104
 -25  15   8   -5665    9864
 -23  15   8     274   11600
 -21  15   8   14346   11539
 -19  15   8   23701   14555
 -17  15   8   61385   10561
 -15  15   8   21666    7698
 -13  15   8   31085   10815
 -11  15   8   26091   10307
  -9  15   8   -5080    7788
  -7  15   8   20554    7921
  -5  15   8   -6914    6914
  -3  15   8   -6208    8266
  -1  15   8   -7161    7161
   1  15   8   48494   10027
   3  15   8   -8315    8328
   5  15   8   -7973    7973
   7  15   8   -8971    8971
   9  15   8  151045   12030
  11  15   8   24900    8402
  13  15   8   34242    9713
  15  15   8   74501   11277
  17  15   8   -3707   10920
  19  15   8   -9789   24001
 -20  16   8   66592   10669
 -18  16   8    2212   10018
 -16  16   8    8392   11090
 -14  16   8   69523   13591
 -12  16   8   27099   11823
 -10  16   8   58679   12086
  -8  16   8    5301    8208
  -6  16   8    6368    7510
  -4  16   8  121826   11545
  -2  16   8   23688   10228
   0  16   8   -8681    8681
   2  16   8   36175   10191
   4  16   8   -9336    9336
   6  16   8   -9322    9322
   8  16   8  217939   17081
  10  16   8   19746   15105
  12  16   8   34934   15911
  14  16   8  150626   14296
 -13  17   8   43554   12503
 -11  17   8    4300   10495
  -9  17   8    -810    9279
  -7  17   8   -9007    9007
  -5  17   8   21596   10008
  -3  17   8    1475    9984
  -1  17   8   -8669    8669
   1  17   8    1334   11492
   3  17   8   -2809   11019
   5  17   8  -10574   10574
   7  17   8   83124   13634
 -43   1   9     647    9618
 -41   1   9   -5660    5660
 -39   1   9   54771    6498
 -37   1   9   36771    7415
 -35   1   9    9713    6193
 -33   1   9  113871    7688
 -31   1   9   33766    5760
 -29   1   9   32644    4981
 -27   1   9   72560    6035
 -25   1   9   -3728    3728
 -23   1   9  371725   10596
 -21   1   9  144889    5922
 -19   1   9   -2068    2774
 -17   1   9  154715    5632
 -15   1   9  568391   10832
 -13   1   9  383332    8110
 -11   1   9   23998    2883
  -9   1   9 1335246   23190
  -7   1   9 1867536   32243
  -5   1   9  553455   10928
  -3   1   9 1826286   27342
  -1   1   9  306797    7096
   1   1   9  222595    5830
   3   1   9  498671   10126
   5   1   9   79344    4218
   7   1   9   73944    4069
   9   1   9   -1160    2786
  11   1   9   77848    4388
  13   1   9   32422    3695
  15   1   9    2587    2786
  17   1   9  201863    7906
  19   1   9  571304   14858
  21   1   9  976876   28001
  23   1   9  600648   21476
  25   1   9   10745    4900
  27   1   9   22396    5498
  29   1   9    2876    6022
  31   1   9   51423    6921
  33   1   9  558702   24734
  35   1   9  285846   19985
  37   1   9   59802   14310
 -44   2   9   25576   10236
 -42   2   9   -2406    6522
 -40   2   9   80067    8130
 -38   2   9   -5791    5791
 -36   2   9   -4037    5633
 -34   2   9    8130    6017
 -32   2   9   -6008    6774
 -30   2   9   22097    5846
 -28   2   9   -2888    5017
 -26   2   9  336627   13179
 -24   2   9   13004    4290
 -22   2   9   -1157    3434
 -20   2   9  198957    7493
 -18   2   9  353010    8745
 -16   2   9  266290    7357
 -14   2   9     -82    2430
 -12   2   9  372540    8703
 -10   2   9  608747   11940
  -8   2   9  106317    4653
  -6   2   9  135304    5739
  -4   2   9 1919366   30020
  -2   2   9  436250    9158
   0   2   9   -1811    2346
   2   2   9   33435    3013
   4   2   9 2709185   41022
   6   2   9  196222    6518
   8   2   9   -2332    2824
  10   2   9  339400    8604
  12   2   9   64884    4308
  14   2   9   27233    3912
  16   2   9  393669   11277
  18   2   9  205772    7316
  20   2   9   12904    4384
  22   2   9   31061    4595
  24   2   9  637407   15844
  26   2   9   -4616    4616
  28   2   9   -3506    6464
  30   2   9   10714    6896
  32   2   9  359250   15090
  34   2   9   19791    8915
  36   2   9    4928   11964
 -43   3   9  100906   15155
 -41   3   9  123452   12142
 -39   3   9   -8686    9310
 -37   3   9   88290    9928
 -35   3   9   13862    7441
 -33   3   9   -5554    5554
 -31   3   9  108671    8433
 -29   3   9   -4964    4964
 -27   3   9   -4734    4734
 -25   3   9  230912    9784
 -23   3   9   -4103    4103
 -21   3   9    8952    3593
 -19   3   9  703780   14927
 -17   3   9      58    2481
 -15   3   9  374561    8913
 -13   3   9  923524   16824
 -11   3   9   63493    3874
  -9   3   9  978865   16463
  -7   3   9   39247    3208
  -5   3   9  147144    5340
  -3   3   9 2619018   40443
  -1   3   9  743953   13704
   1   3   9  806937   14051
   3   3   9 2094923   31828
   5   3   9 1279499   21286
   7   3   9 2014310   33925
   9   3   9 3040665   48904
  11   3   9   52445    4191
  13   3   9  137532    5269
  15   3   9  322762    8854
  17   3   9   40355    4019
  19   3   9  460259   15444
  21   3   9    6454    4002
  23   3   9   73364    8022
  25   3   9  292300   11993
  27   3   9  102462    8663
  29   3   9  263367   12952
  31   3   9  419458   21541
  33   3   9   51319    9017
  35   3   9   68884   11411
 -42   4   9   77592   10784
 -40   4   9   42650   10161
 -38   4   9   14489    7432
 -36   4   9    2555    7573
 -34   4   9   27135    6861
 -32   4   9  134868    9511
 -30   4   9   -5459    5459
 -28   4   9   51494    6540
 -26   4   9   -5141    5141
 -24   4   9   55412    5929
 -22   4   9   31114    4935
 -20   4   9   50098    4806
 -18   4   9    4559    3438
 -16   4   9   -2700    2700
 -14   4   9  111768    5806
 -12   4   9  106276    5033
 -10   4   9   -2426    2426
  -8   4   9   -2330    2330
  -6   4   9  261234    6939
  -4   4   9   23806    3341
  -2   4   9   57729    4032
   0   4   9   78599    4066
   2   4   9   16591    2990
   4   4   9  114734    4814
   6   4   9   -2583    2583
   8   4   9   -2863    2863
  10   4   9   29090    3447
  12   4   9  588221   12225
  14   4   9   10658    3629
  16   4   9  810958   21439
  18   4   9    4593    3733
  20   4   9  117299    7516
  22   4   9  139314    9044
  24   4   9   11398    6329
  26   4   9  102246    8307
  28   4   9   13897    7295
  30   4   9   44688    7664
  32   4   9    6310    7906
  34   4   9   -9856    9856
  36   4   9  -11398   11398
 -43   5   9   -1030   17690
 -41   5   9  103818   11751
 -39   5   9  144558   11271
 -37   5   9   33847    9751
 -35   5   9   40876    8130
 -33   5   9   14094    6019
 -31   5   9   -5308    5308
 -29   5   9   -5097    5097
 -27   5   9   38449    6184
 -25   5   9  318373   11993
 -23   5   9  166038    8298
 -21   5   9  188845    9038
 -19   5   9  174130    7361
 -17   5   9  161243    5881
 -15   5   9   24651    3548
 -13   5   9 1656890   28778
 -11   5   9 1284882   21977
  -9   5   9 1002188   17400
  -7   5   9 1881571   30008
  -5   5   9 1583602   26345
  -3   5   9 1027895   19350
  -1   5   9  411171    9610
   1   5   9 1082406   18440
   3   5   9 2373563   35678
   5   5   9 1264177   21167
   7   5   9  724973   14300
   9   5   9  281001    9092
  11   5   9  374055   10322
  13   5   9      61    3585
  15   5   9   -2328    3592
  17   5   9  155654    6444
  19   5   9   -3160    4868
  21   5   9    6399    5847
  23   5   9   95748    9434
  25   5   9     478    6623
  27   5   9  128400   11243
  29   5   9  200986   12089
  31   5   9  160799   12065
  33   5   9   54085   10385
  35   5   9     628   11264
 -42   6   9   -5988    9499
 -40   6   9   46087   10937
 -38   6   9   16733    8156
 -36   6   9   -6578    6578
 -34   6   9    1670    6389
 -32   6   9   -5228    5228
 -30   6   9   -5268    5268
 -28   6   9   -2182    5345
 -26   6   9    4501    5464
 -24   6   9   36961    5793
 -22   6   9  118481    6821
 -20   6   9   24810    4724
 -18   6   9  382475   10111
 -16   6   9    2326    3196
 -14   6   9    9726    3721
 -12   6   9  306145    9226
 -10   6   9  319245    9149
  -8   6   9 1644873   26636
  -6   6   9 1491145   24781
  -4   6   9   48350    4174
  -2   6   9    -975    3189
   0   6   9  152825    6169
   2   6   9  349357    9015
   4   6   9   23110    3855
   6   6   9  180238    6889
   8   6   9  137383    6017
  10   6   9   13086    4374
  12   6   9   31449    4246
  14   6   9  189254    7071
  16   6   9   -1068    3151
  18   6   9   75745    6902
  20   6   9   67624    7054
  22   6   9   13718    6732
  24   6   9   -4090    6610
  26   6   9   55471    8047
  28   6   9   62578    8168
  30   6   9     607    7783
  32   6   9   -8604    8604
  34   6   9     674   10565
 -41   7   9   -2249    9350
 -39   7   9   81561   11096
 -37   7   9   16413    7151
 -35   7   9   32297    7441
 -33   7   9   19824    7763
 -31   7   9   -6867    6867
 -29   7   9   31089    6068
 -27   7   9  492927   16558
 -25   7   9   45386    6590
 -23   7   9  618602   19794
 -21   7   9  486131   14230
 -19   7   9   -3291    3291
 -17   7   9 1472381   26501
 -15   7   9   21627    4437
 -13   7   9    6758    3773
 -11   7   9 1707109   29458
  -9   7   9    1149    3503
  -7   7   9  659317   13197
  -5   7   9  783422   15497
  -3   7   9   -2499    2499
  -1   7   9  738244   14649
   1   7   9 1151237   19533
   3   7   9  327927    9908
   5   7   9   62117    4635
   7   7   9  236601    8296
   9   7   9    6721    3849
  11   7   9  102309    6471
  13   7   9  136694    6770
  15   7   9   96629    5788
  17   7   9  674420   17640
  19   7   9  261298   11075
  21   7   9  557602   22715
  23   7   9  580032   27339
  25   7   9  120585   10102
  27   7   9  110930   11513
  29   7   9   82940   10764
  31   7   9   -8876    8876
  33   7   9   19504   13534
 -40   8   9   -1404   11789
 -38   8   9   29817   11637
 -36   8   9   31111    9190
 -34   8   9    6076    6420
 -32   8   9   42141    7226
 -30   8   9   -2222    5765
 -28   8   9    1727    5328
 -26   8   9  432427   15984
 -24   8   9   38451    5824
 -22   8   9   92495    6078
 -20   8   9  302241   10773
 -18   8   9  169837    8037
 -16   8   9  421724   12762
 -14   8   9   31404    5108
 -12   8   9  394490   11085
 -10   8   9  454779   11382
  -8   8   9  213990    7555
  -6   8   9  174299    7112
  -4   8   9  547333   12893
  -2   8   9  108775    5561
   0   8   9   45386    4650
   2   8   9   -3409    3409
   4   8   9   20532    3989
   6   8   9  172831   10217
   8   8   9   46542    5235
  10   8   9   34998    5087
  12   8   9  115178    7703
  14   8   9    7895    6206
  16   8   9  347424   11020
  18   8   9   23945    6164
  20   8   9   23559    6489
  22   8   9  100777   11228
  24   8   9   -7670    7733
  26   8   9  106807   10119
  28   8   9   17873    8280
  30   8   9   -9601    9601
  32   8   9  -10300   10300
 -37   9   9   87342   10443
 -35   9   9    3467    8730
 -33   9   9   -6186    6186
 -31   9   9   -5084    5084
 -29   9   9   -6114    6114
 -27   9   9   34031    6159
 -25   9   9  552430   16591
 -23   9   9   75906    5130
 -21   9   9  349259   12591
 -19   9   9  726305   18638
 -17   9   9   26318    5287
 -15   9   9  521074   14992
 -13   9   9  329146   11601
 -11   9   9   18027    4301
  -9   9   9 1012172   22258
  -7   9   9  829362   17587
  -5   9   9   50967    5254
  -3   9   9  595543   13623
  -1   9   9  106386    5959
   1   9   9  146455    7105
   3   9   9  461709   12982
   5   9   9   49858    5025
   7   9   9    5521    4630
   9   9   9   42734    6039
  11   9   9   34926    5776
  13   9   9  200724   11169
  15   9   9  523342   16607
  17   9   9  158942   10743
  19   9   9  408971   21285
  21   9   9  747918   25206
  23   9   9   67235    9036
  25   9   9   40859    9646
  27   9   9   -5193    8639
  29   9   9  -10476   10476
  31   9   9  -10714   10714
 -36  10   9    -528   11824
 -34  10   9    8058    9938
 -32  10   9    -198    8980
 -30  10   9    6409    7247
 -28  10   9   -5561    6518
 -26  10   9   14201    9013
 -24  10   9  314967   10386
 -22  10   9   93075    6094
 -20  10   9   23233    4897
 -18  10   9   23348    5415
 -16  10   9   57832    6258
 -14  10   9   26870    5644
 -12  10   9   15441    5117
 -10  10   9   99578    7350
  -8  10   9    6834    5175
  -6  10   9  275468   10964
  -4  10   9   -3624    3624
  -2  10   9   -3312    3312
   0  10   9    3589    3848
   2  10   9  123494    7006
   4  10   9  140747    8806
   6  10   9    3943    5523
   8  10   9   26947    5994
  10  10   9   -4850    4850
  12  10   9   -4860    4860
  14  10   9   64339    6946
  16  10   9  203244    9697
  18  10   9   77470    9357
  20  10   9   49625    8377
  22  10   9   -7392    7392
  24  10   9     756    8677
  26  10   9    3868    8827
  28  10   9   -8473    8473
 -35  11   9    6793   10486
 -33  11   9   -3395   10411
 -31  11   9    3881   11695
 -29  11   9    3872    8927
 -27  11   9   10702    5708
 -25  11   9   -1645    5561
 -23  11   9  164313   10758
 -21  11   9  316544   13812
 -19  11   9  191180    9287
 -17  11   9  297251   12508
 -15  11   9  135572    8562
 -13  11   9  114386    7632
 -11  11   9   95608    7169
  -9  11   9   -5451    5451
  -7  11   9   -5405    5405
  -5  11   9     552    5462
  -3  11   9  224115   10460
  -1  11   9  421910   15297
   1  11   9  368551   15549
   3  11   9  901147   24575
   5  11   9  965984   25285
   7  11   9  466077   17091
   9  11   9  152735    8682
  11  11   9   86701    6799
  13  11   9  296877   12320
  15  11   9  336231   14164
  17  11   9  207296   10045
  19  11   9  101423   10644
  21  11   9   -6794    6839
  23  11   9    8744    8602
  25  11   9   79146   10538
  27  11   9  -12047   14686
 -32  12   9   -2185   10797
 -30  12   9   37255   10735
 -28  12   9     552    7181
 -26  12   9   40530    8658
 -24  12   9   53859    7970
 -22  12   9  108121    9822
 -20  12   9  125407    9943
 -18  12   9   45358    5856
 -16  12   9   70245    6295
 -14  12   9  122858    8707
 -12  12   9   -4745    4745
 -10  12   9    5668    5071
  -8  12   9   73590    8079
  -6  12   9   10271    6553
  -4  12   9  329163   14472
  -2  12   9  307629   17560
   0  12   9   91332    9242
   2  12   9   33648    7685
   4  12   9  197899   12506
   6  12   9    7855    7619
   8  12   9   -3595    6920
  10  12   9   25452    7315
  12  12   9  246121   10458
  14  12   9   36819    6680
  16  12   9   93798    8145
  18  12   9  286103   13872
  20  12   9   16510   10020
  22  12   9   16808    9740
  24  12   9  -11002   11002
  26  12   9  -28659   28659
 -29  13   9   97408   21332
 -27  13   9   28190    7765
 -25  13   9    2383    7739
 -23  13   9  101341    9509
 -21  13   9   81208   10029
 -19  13   9   34036    8026
 -17  13   9  299635   14246
 -15  13   9   90911    8513
 -13  13   9  120056    8379
 -11  13   9  191473   11801
  -9  13   9    4573    7517
  -7  13   9   17878    7058
  -5  13   9   80955    9527
  -3  13   9   25315    8180
  -1  13   9  413112   20546
   1  13   9  290756   20834
   3  13   9      -7    8112
   5  13   9   27157    7591
   7  13   9   -3502    8040
   9  13   9    4713    7451
  11  13   9  146641   10344
  13  13   9    -713    6694
  15  13   9   32018    7414
  17  13   9  311982   13195
  19  13   9   22138    9935
  21  13   9  -12436   17483
  23  13   9   54086   12804
 -26  14   9    9043   15423
 -24  14   9   14334   11173
 -22  14   9   -8916    8916
 -20  14   9   15703    6881
 -18  14   9   -6309    6309
 -16  14   9   86683    9224
 -14  14   9   30982    6666
 -12  14   9  119599   11984
 -10  14   9  662682   23161
  -8  14   9   66806    8559
  -6  14   9   -7007    7007
  -4  14   9   -7774    7774
  -2  14   9    7647    7991
   0  14   9    -485    7807
   2  14   9   35713    8910
   4  14   9    4194    8470
   6  14   9   -7672    7672
   8  14   9   -9636    9636
  10  14   9   91866   10058
  12  14   9   16319    8769
  14  14   9   -7575    7575
  16  14   9   64623   16190
  18  14   9   -7306    9693
  20  14   9    9846   12725
 -23  15   9  -10109   10109
 -21  15   9   -7796    8468
 -19  15   9   -5053   10336
 -17  15   9   -5533    9737
 -15  15   9   11794   12674
 -13  15   9   38909    8934
 -11  15   9   58335    9914
  -9  15   9   95165   10614
  -7  15   9   10390    7882
  -5  15   9   59516    9258
  -3  15   9   65230    9163
  -1  15   9   -3014    8273
   1  15   9   72108   10401
   3  15   9   49085    9906
   5  15   9   23579   13826
   7  15   9    4615    9731
   9  15   9   48027   14560
  11  15   9    -678   11808
  13  15   9   -1413   13145
  15  15   9   58844   10886
 -18  16   9  -10977   10977
 -16  16   9   -7096   11540
 -14  16   9  -10103   10820
 -12  16   9    1822    9881
 -10  16   9   14113   10708
  -8  16   9   -8435    8435
  -6  16   9   -4421    8066
  -4  16   9   16920    9439
  -2  16   9  -13100   13100
   0  16   9    5114    9771
   2  16   9   -9595    9595
   4  16   9    1600   11855
   6  16   9   -9706    9706
   8  16   9   -1473   12473
  10  16   9  -11112   11112
  12  16   9  -18488   18488
 -11  17   9  -15358   15358
  -9  17   9   14436   11080
  -7  17   9   -9390    9390
  -5  17   9    8364    9912
  -3  17   9   17534   10670
  -1  17   9   -9131    9131
   1  17   9   10932    9710
   3  17   9   33495   13214
 -44   0  10   52312   15892
 -42   0  10    1798   13019
 -40   0  10   43536   11267
 -38   0  10   88118   17638
 -36   0  10  -10906   11488
 -34   0  10  -11010   11010
 -32   0  10   19489   12424
 -30   0  10  158820   18003
 -28   0  10  721874   27017
 -26   0  10   -4043    4043
 -24   0  10   -1101    6662
 -22   0  10  217492   11521
 -20   0  10  179270    8961
 -18   0  10  244954   10067
 -16   0  10 4044467   80247
 -14   0  10  809991   22626
 -12   0  10   35296    5785
 -10   0  10  261602   11707
  -8   0  10  105371    7494
  -6   0  10  954691   26267
  -4   0  10 2214842   49394
  -2   0  10  204726   10145
   0   0  10 3524752   69759
   2   0  10  340390   10572
   4   0  10   24208    5161
   6   0  10 1826299   43272
   8   0  10  102416    8870
  10   0  10  145465    9626
  12   0  10 4477732  122661
  14   0  10 1258564   47143
  16   0  10 1108808   41180
  18   0  10  451747   17718
  20   0  10  749335   28155
  22   0  10  828884   41522
  24   0  10 1015232   34136
  26   0  10 1271044   50531
  28   0  10   27610    8972
  30   0  10  341046   23173
  32   0  10  205926   17802
  34   0  10  158403   31417
  36   0  10   52396   54712
 -43   1  10   16490    9634
 -41   1  10  -10042   10042
 -39   1  10   -8368    8368
 -37   1  10    4813    6435
 -35   1  10   -6266    6266
 -33   1  10   -5321    5321
 -31   1  10   -4823    5553
 -29   1  10   17670    5090
 -27   1  10   82841    6964
 -25   1  10    2995    5272
 -23   1  10   75064    6285
 -21   1  10   19242    3404
 -19   1  10  505376   11006
 -17   1  10   27064    3302
 -15   1  10   42819    3663
 -13   1  10  225399    7288
 -11   1  10   -3067    3067
  -9   1  10  431352   10615
  -7   1  10   10002    3530
  -5   1  10  172263    5924
  -3   1  10   64183    3516
  -1   1  10  430046    9008
   1   1  10    -886    2474
   3   1  10  467514   10120
   5   1  10  642266   12983
   7   1  10  907399   18026
   9   1  10  305718    9290
  11   1  10  309385   11720
  13   1  10  798219   17938
  15   1  10  239408    8278
  17   1  10  140098    7308
  19   1  10  841422   22748
  21   1  10   51718    5923
  23   1  10    4281    5185
  25   1  10   17785    5255
  27   1  10   81133    7519
  29   1  10   52650    8226
  31   1  10   51926    9042
  33   1  10   29825    9553
  35   1  10   14352   11581
 -42   2  10   21121    8123
 -40   2  10   12054   10666
 -38   2  10   78930    9930
 -36   2  10  205812   13689
 -34   2  10   43300    9877
 -32   2  10  276652   14869
 -30   2  10  195597    9957
 -28   2  10  112587    8123
 -26   2  10   96726    7372
 -24   2  10   10213    4601
 -22   2  10  105619    6297
 -20   2  10  952467   17944
 -18   2  10  284666    8845
 -16   2  10  259517    7407
 -14   2  10  155647    5847
 -12   2  10   64399    4398
 -10   2  10   68677    4008
  -8   2  10   52617    3794
  -6   2  10   29333    3416
  -4   2  10  597100   11913
  -2   2  10 1586132   24833
   0   2  10 1108913   18175
   2   2  10  221973    6836
   4   2  10 1549370   25254
   6   2  10   -1388    3140
   8   2  10   42938    3965
  10   2  10  124199    5632
  12   2  10  251065    9615
  14   2  10  975677   23558
  16   2  10  584298   16841
  18   2  10  114657    7638
  20   2  10  230390    9573
  22   2  10   25693    5066
  24   2  10  239831   10339
  26   2  10  109024    7086
  28   2  10  103015    8602
  30   2  10  104866    9382
  32   2  10   82714   10354
  34   2  10  159355   16308
 -43   3  10   -1169   11001
 -41   3  10   10085   10427
 -39   3  10    6121    7765
 -37   3  10   -7196    7196
 -35   3  10   23502    7234
 -33   3  10   26892    6691
 -31   3  10   50980    7186
 -29   3  10    7159    5435
 -27   3  10   14520    5922
 -25   3  10   34746    5796
 -23   3  10   31504    4576
 -21   3  10   -3973    3973
 -19   3  10    2435    3102
 -17   3  10   -2649    2649
 -15   3  10  274101    8178
 -13   3  10   -2760    2760
 -11   3  10   57060    3890
  -9   3  10    2566    2299
  -7   3  10   -2241    2241
  -5   3  10   28253    3257
  -3   3  10    4651    2778
  -1   3  10    2398    2891
   1   3  10   70152    4175
   3   3  10   84551    4329
   5   3  10   82363    4931
   7   3  10  237109    7702
   9   3  10   67875    4729
  11   3  10   -2556    3450
  13   3  10    6598    4082
  15   3  10  271238   12789
  17   3  10  244927   10036
  19   3  10    4219    3505
  21   3  10   31934    5661
  23   3  10    -868    3640
  25   3  10   48037    8844
  27   3  10   81497    7652
  29   3  10   20420    7834
  31   3  10    6172    7330
  33   3  10    5234    9611
  35   3  10   34865   12742
 -42   4  10   55769   12178
 -40   4  10    6078    8344
 -38   4  10    7032    8550
 -36   4  10   38839    8536
 -34   4  10  122897    9046
 -32   4  10   16507    6078
 -30   4  10  188447    9698
 -28   4  10   49534    6344
 -26   4  10   -5072    5072
 -24   4  10  159088    8552
 -22   4  10   75299    6340
 -20   4  10  337650   10769
 -18   4  10  486390   11879
 -16   4  10   -3223    3223
 -14   4  10  525846   11420
 -12   4  10  855044   15910
 -10   4  10  560256   11478
  -8   4  10  222938    7009
  -6   4  10  967717   16922
  -4   4  10 1431246   26232
  -2   4  10  736525   14591
   0   4  10 1648130   25492
   2   4  10 2057593   31441
   4   4  10 1832062   28366
   6   4  10  309612    8161
   8   4  10  334841   11920
  10   4  10  171528    9213
  12   4  10  112189    7151
  14   4  10  719499   18567
  16   4  10   46236    4775
  18   4  10   77641    5692
  20   4  10  144575    7130
  22   4  10   25195    7603
  24   4  10   59432    7943
  26   4  10  235117   11290
  28   4  10   -3557    6893
  30   4  10   11470    8748
  32   4  10  115973   12829
  34   4  10   -4637   10964
 -41   5  10   34428   20868
 -39   5  10   15686    7892
 -37   5  10   53434    8395
 -35   5  10   -6850    6850
 -33   5  10   -3215    6208
 -31   5  10   52702    7209
 -29   5  10  159161    9115
 -27   5  10   -5134    5134
 -25   5  10  159719   11234
 -23   5  10  195581    9078
 -21   5  10   66711    6004
 -19   5  10   94691    5607
 -17   5  10  223708    8853
 -15   5  10  754700   16042
 -13   5  10   34267    4102
 -11   5  10   76879    4479
  -9   5  10  456757   10485
  -7   5  10  104602    5181
  -5   5  10   14491    3338
  -3   5  10   79840    5488
  -1   5  10  120280    5383
   1   5  10  470378   10328
   3   5  10    6058    3211
   5   5  10  271252    7830
   7   5  10  702067   13672
   9   5  10  474334   12333
  11   5  10   82029    6090
  13   5  10  437499   14927
  15   5  10  155976    7541
  17   5  10    6893    4093
  19   5  10  198328   12764
  21   5  10   31481    6431
  23   5  10    8676    7846
  25   5  10    3269    6605
  27   5  10   72575    9105
  29   5  10    9224    7958
  31   5  10   -1862    8971
  33   5  10  -10921   10921
 -40   6  10   36947   10860
 -38   6  10   89426    9133
 -36   6  10    4132    7447
 -34   6  10   82515    8516
 -32   6  10   53319    7356
 -30   6  10   10882    6412
 -28   6  10   -5665    5665
 -26   6  10   89985    7596
 -24   6  10    2456    5155
 -22   6  10  277832   11184
 -20   6  10    6237    4865
 -18   6  10   14749    3311
 -16   6  10 2093806   39895
 -14   6  10  112028    6709
 -12   6  10  494437   11117
 -10   6  10 1504304   24923
  -8   6  10   31399    4139
  -6   6  10  885363   16691
  -4   6  10   47656    4419
  -2   6  10  365691   10738
   0   6  10 2166254   34477
   2   6  10 1621344   26994
   4   6  10  713958   14953
   6   6  10   82538    5352
   8   6  10   17230    4310
  10   6  10   14562    5032
  12   6  10   10224    5058
  14   6  10   26881    4828
  16   6  10   78714    5467
  18   6  10 1257901   37046
  20   6  10  592901   25602
  22   6  10  595792   20451
  24   6  10  363193   16788
  26   6  10  127197   12054
  28   6  10  157516   14303
  30   6  10   84527   13208
  32   6  10   -9932    9932
 -39   7  10   32451    9486
 -37   7  10    1620    7498
 -35   7  10   22184    6956
 -33   7  10     458    6704
 -31   7  10   33893    7279
 -29   7  10   -5630    5630
 -27   7  10   -5452    6047
 -25   7  10     205    5739
 -23   7  10  122386    7827
 -21   7  10   32317    5859
 -19   7  10   -3993    3993
 -17   7  10    9049    4227
 -15   7  10  169175    9257
 -13   7  10   34224    4769
 -11   7  10  160950    7094
  -9   7  10  817499   16014
  -7   7  10   44799    4486
  -5   7  10    -775    3640
  -3   7  10   -3258    3258
  -1   7  10   57920    4795
   1   7  10   39517    4370
   3   7  10  529489   12799
   5   7  10   35583    4749
   7   7  10   48418    5358
   9   7  10  496917   14064
  11   7  10   70314    6151
  13   7  10   13080    5286
  15   7  10  533266   15209
  17   7  10  621712   20661
  19   7  10  168889   10386
  21   7  10  170399   10814
  23   7  10   18137    7612
  25   7  10   53656   10939
  27   7  10   23727    8501
  29   7  10   -9611    9611
  31   7  10   -9360   10258
 -38   8  10   62260   10335
 -36   8  10    8881   12641
 -34   8  10   -1425    8549
 -32   8  10   -3947    6922
 -30   8  10   -2484    6129
 -28   8  10   -5442    5442
 -26   8  10  106332    8880
 -24   8  10  241275   11824
 -22   8  10   -1245    4784
 -20   8  10   95388    7823
 -18   8  10   19525    5690
 -16   8  10  267625   10766
 -14   8  10  632100   16529
 -12   8  10  389412   13218
 -10   8  10  544259   14043
  -8   8  10  193979    8194
  -6   8  10  385375   10722
  -4   8  10  149198    6897
  -2   8  10  346951   10768
   0   8  10  899266   19986
   2   8  10  299457   10413
   4   8  10  393377   13000
   6   8  10   36846    5073
   8   8  10   31923    5050
  10   8  10  239399   10017
  12   8  10  136919    7876
  14   8  10  548239   15538
  16   8  10  814824   22235
  18   8  10  524743   18194
  20   8  10  282463   13327
  22   8  10  277978   14441
  24   8  10    2625    8429
  26   8  10   -9122    9122
  28   8  10   25557   10141
  30   8  10   29309   10768
 -37   9  10   30383   11253
 -35   9  10   15724    9622
 -33   9  10   -5977    7170
 -31   9  10   10158    8982
 -29   9  10   -6049    6049
 -27   9  10   -6211    6211
 -25   9  10   75919    7572
 -23   9  10   -4269    5182
 -21   9  10    5230    4422
 -19   9  10   17300    5569
 -17   9  10   80091    6381
 -15   9  10   13616    5335
 -13   9  10   18094    5259
 -11   9  10   62980    6145
  -9   9  10   18327    5160
  -7   9  10   47499    6123
  -5   9  10  407014   13084
  -3   9  10  133683    7140
  -1   9  10  119588    6727
   1   9  10  169805    7731
   3   9  10    4394    4237
   5   9  10   54282    5793
   7   9  10  522005   15556
   9   9  10   25547    6498
  11   9  10   42978    6293
  13   9  10  362850   13940
  15   9  10   19292    5583
  17   9  10  121119    8659
  19   9  10   -1673    6965
  21   9  10   42958    7947
  23   9  10   -7033    9082
  25   9  10   -8666    8666
  27   9  10   25366   10455
  29   9  10   -9750    9750
 -36  10  10  112869   14825
 -34  10  10   26803   11069
 -32  10  10   -9934    9934
 -30  10  10   65534    6642
 -28  10  10   -4311    4923
 -26  10  10   15776    5836
 -24  10  10  377275   12886
 -22  10  10    9004    5522
 -20  10  10  112941    7642
 -18  10  10  149404    8691
 -16  10  10  118420    8522
 -14  10  10  294139   12628
 -12  10  10  134351    8647
 -10  10  10   -4416    4416
  -8  10  10   10031    5016
  -6  10  10   -5349    5349
  -4  10  10   14566    5210
  -2  10  10 1185020   26529
   0  10  10  972070   32209
   2  10  10  501533   16425
   4  10  10 1013952   31319
   6  10  10  100737    7629
   8  10  10    4968    5461
  10  10  10  162317   10239
  12  10  10   48085    6767
  14  10  10  582580   25619
  16  10  10  185341    9296
  18  10  10   58209    8900
  20  10  10  363480   19623
  22  10  10   15853    7833
  24  10  10   15062   10254
  26  10  10  137878   15176
  28  10  10   55942   16172
 -33  11  10   -8678   10604
 -31  11  10   27360    8948
 -29  11  10   54749   10813
 -27  11  10    2976    8531
 -25  11  10    5175    8755
 -23  11  10  349961   12853
 -21  11  10   49239    8263
 -19  11  10  181544    9663
 -17  11  10  155720   10124
 -15  11  10   53470    9135
 -13  11  10  343255   12905
 -11  11  10  178123   10526
  -9  11  10   -2977    6386
  -7  11  10   73836    6376
  -5  11  10   85817    8807
  -3  11  10  146745   11669
  -1  11  10  223942   13820
   1  11  10   43357    8370
   3  11  10   17016    8109
   5  11  10  110511    9324
   7  11  10    7892    5094
   9  11  10   -7525    7525
  11  11  10    5610    6334
  13  11  10  277688   12007
  15  11  10   12156    6088
  17  11  10   -4725    4725
  19  11  10   59312    9386
  21  11  10   -8958    8958
  23  11  10  -10750   10750
  25  11  10   -1397   11337
 -32  12  10   40980   15572
 -30  12  10   22045    9095
 -28  12  10   69051   12247
 -26  12  10    7163    9506
 -24  12  10    7507    8982
 -22  12  10  301130   15273
 -20  12  10   35371    6699
 -18  12  10    6490    5938
 -16  12  10  139563    9338
 -14  12  10    4183    6214
 -12  12  10   83962    8100
 -10  12  10   61546    7828
  -8  12  10    5152    4648
  -6  12  10   29481    7920
  -4  12  10  223613   12726
  -2  12  10  775723   27124
   0  12  10  849655   29608
   2  12  10  110126   10381
   4  12  10   62195    9237
   6  12  10   58698    9051
   8  12  10   22057    8048
  10  12  10   60652    9146
  12  12  10  221703   11280
  14  12  10  121567    8575
  16  12  10   86127    9304
  18  12  10   51477    9065
  20  12  10   -9718    9718
  22  12  10    7789   11727
  24  12  10   87061   20685
 -29  13  10    5965   11984
 -27  13  10   -8202    8202
 -25  13  10   10281    8374
 -23  13  10   72540   10823
 -21  13  10  188502   11306
 -19  13  10  254670   13131
 -17  13  10   71044    8086
 -15  13  10   68036    7611
 -13  13  10   -5947    5947
 -11  13  10   -5208    5208
  -9  13  10    5445    7341
  -7  13  10    7253    7238
  -5  13  10   13568    7788
  -3  13  10   -7178    7178
  -1  13  10   17006    7776
   1  13  10    7433    8067
   3  13  10   30747    9117
   5  13  10    7943    8201
   7  13  10   -7698    7698
   9  13  10    -514    9168
  11  13  10   54559   10211
  13  13  10    8020    8087
  15  13  10    4852    8545
  17  13  10   -2144    6596
  19  13  10   -7164    9827
  21  13  10  -12075   12075
 -26  14  10   13627   11646
 -24  14  10     173   11762
 -22  14  10   15198   10285
 -20  14  10   88136   11514
 -18  14  10  197186   17311
 -16  14  10  273385   18870
 -14  14  10  225114   13430
 -12  14  10  166870   14965
 -10  14  10   64428    9967
  -8  14  10   81121    9711
  -6  14  10    6621    8393
  -4  14  10   60534    9012
  -2  14  10    -116    7800
   0  14  10  223269   14868
   2  14  10   56080   10297
   4  14  10   13093    9220
   6  14  10  155187   14011
   8  14  10   -3060    8745
  10  14  10   88439   12843
  12  14  10   47600   11653
  14  14  10    9885   17921
  16  14  10   64220   13409
  18  14  10    1627   15417
 -21  15  10    1305    9438
 -19  15  10   45804   12444
 -17  15  10   47293   12953
 -15  15  10  140513   11842
 -13  15  10   42486   11698
 -11  15  10   63049   11272
  -9  15  10  146065   11028
  -7  15  10   23374    8354
  -5  15  10   23837    8206
  -3  15  10    6102    8848
  -1  15  10  124536   13121
   1  15  10    5517    8864
   3  15  10    9315   10341
   5  15  10   42732   12644
   7  15  10  -10373   10373
   9  15  10   -6802   11467
  11  15  10   49066   11954
  13  15  10   -3366   14872
 -16  16  10   23257   13923
 -14  16  10  147581   17576
 -12  16  10  103373   10887
 -10  16  10   11490   12585
  -8  16  10   50047   10965
  -6  16  10  -10135   10135
  -4  16  10   -4648    9815
  -2  16  10   17709    9794
   0  16  10     151    9849
   2  16  10   12568    9620
   4  16  10  102600   12851
   6  16  10  -10492   10492
   8  16  10   -3589   14301
 -43   1  11   54107   12422
 -41   1  11   -9614    9614
 -39   1  11   13345   12259
 -37   1  11   94476   10842
 -35   1  11   53228    8727
 -33   1  11   88186    7307
 -31   1  11  302259   13406
 -29   1  11   78753    7272
 -27   1  11  282784   12480
 -25   1  11  126874    8333
 -23   1  11   -3786    3786
 -21   1  11  719378   15469
 -19   1  11  349077    9040
 -17   1  11 1113667   18947
 -15   1  11  722096   14531
 -13   1  11   89110    5477
 -11   1  11   80344    5380
  -9   1  11  620894   14435
  -7   1  11  677012   15339
  -5   1  11  850789   16406
  -3   1  11 1223311   20228
  -1   1  11  101010    4722
   1   1  11  721319   13372
   3   1  11    3811    3152
   5   1  11  393246   10246
   7   1  11 4264203   64979
   9   1  11 1536537   28601
  11   1  11 1967206   38077
  13   1  11 1111851   26864
  15   1  11   81158    6971
  17   1  11  380719   15372
  19   1  11    1516    4381
  21   1  11   20465    5467
  23   1  11  245966   11382
  25   1  11  159402    8091
  27   1  11   11325    5172
  29   1  11   85833    7911
  31   1  11    4167    7490
  33   1  11  -10928   10928
 -42   2  11   12745   10821
 -40   2  11    2473    9719
 -38   2  11   -6733    6805
 -36   2  11   61146    9596
 -34   2  11   -4820    6453
 -32   2  11   10066    7324
 -30   2  11   60095    6440
 -28   2  11    7665    5365
 -26   2  11  278600   12705
 -24   2  11     161    4506
 -22   2  11  352253   12402
 -20   2  11   -2275    3526
 -18   2  11   -2814    2814
 -16   2  11   -3099    3500
 -14   2  11   33060    4043
 -12   2  11  239225    7414
 -10   2  11  517551   11933
  -8   2  11  498369   11327
  -6   2  11  276336    7954
  -4   2  11   23242    3549
  -2   2  11   92237    4509
   0   2  11  591010   11825
   2   2  11    2613    3318
   4   2  11  224518    7179
   6   2  11 1379369   23000
   8   2  11   93914    5302
  10   2  11  121755    6250
  12   2  11   89032    5966
  14   2  11  726352   18560
  16   2  11    4773    5031
  18   2  11  195199   10001
  20   2  11  214695   10907
  22   2  11   75847    7685
  24   2  11   47760    6590
  26   2  11   18526    5391
  28   2  11   28193    8490
  30   2  11   -9895    9895
  32   2  11    3363    9603
  34   2  11   -5129   18266
 -41   3  11   40793   12184
 -39   3  11   -7456    7456
 -37   3  11   18097    7171
 -35   3  11  475181   17624
 -33   3  11  142329    9408
 -31   3  11   41871    6743
 -29   3  11   89769    7906
 -27   3  11   22684    5469
 -25   3  11  206104   10229
 -23   3  11  115216    7928
 -21   3  11    4225    4578
 -19   3  11  729980   15486
 -17   3  11  922818   19315
 -15   3  11  115246    4949
 -13   3  11 1146924   19710
 -11   3  11  668684   13974
  -9   3  11    8761    3250
  -7   3  11   68367    4278
  -5   3  11  110688    4833
  -3   3  11  508235   11691
  -1   3  11 1509595   25009
   1   3  11  247753    8015
   3   3  11 1059977   19944
   5   3  11 1033753   19619
   7   3  11   36413    4742
   9   3  11  633355   15352
  11   3  11  832055   19164
  13   3  11    9842    4509
  15   3  11   98137    6597
  17   3  11   62343    6338
  19   3  11  114086    8574
  21   3  11  250412   11825
  23   3  11   -4886    4886
  25   3  11   27821    6686
  27   3  11   67716    9143
  29   3  11   -9202    9202
  31   3  11   -6592   10016
  33   3  11   54604   11371
 -42   4  11   -1745   11841
 -40   4  11   -1303    9408
 -38   4  11   -7653    7653
 -36   4  11    -736    7369
 -34   4  11   95691    8644
 -32   4  11   51072    7360
 -30   4  11    3436    5827
 -28   4  11  105420    8239
 -26   4  11   36177    7040
 -24   4  11   10393    5253
 -22   4  11    5574    4713
 -20   4  11  351174   10612
 -18   4  11    3238    3585
 -16   4  11   30325    4305
 -14   4  11  573588   13220
 -12   4  11   82150    4698
 -10   4  11   27325    3372
  -8   4  11  318309    8118
  -6   4  11  476921   10397
  -4   4  11  190052    7451
  -2   4  11  157783    6397
   0   4  11  506743   10880
   2   4  11    2350    3209
   4   4  11  648591   14071
   6   4  11   79056    5912
   8   4  11   39662    5231
  10   4  11  452073   13315
  12   4  11   13629    5036
  14   4  11  181481    9883
  16   4  11   36137    6003
  18   4  11   38208    5619
  20   4  11  185960    9710
  22   4  11   30661    5750
  24   4  11  183174   10866
  26   4  11   16744    7275
  28   4  11    6902   10393
  30   4  11   38112   15114
  32   4  11  -10534   11730
 -41   5  11   10581    8518
 -39   5  11   17150    9400
 -37   5  11   30088    8986
 -35   5  11   82233    9569
 -33   5  11  310938   15833
 -31   5  11   37757    6889
 -29   5  11   -6460    6460
 -27   5  11   -5546    5546
 -25   5  11   56147    6960
 -23   5  11   20814    5757
 -21   5  11  148800    7889
 -19   5  11   66795    5133
 -17   5  11   71033    8209
 -15   5  11   72010    5509
 -13   5  11  181153    7219
 -11   5  11   65653    4615
  -9   5  11   -2923    2923
  -7   5  11   17860    3602
  -5   5  11  880466   16623
  -3   5  11 1018759   20697
  -1   5  11 1447321   24079
   1   5  11 1141074   19442
   3   5  11  711798   14190
   5   5  11  293195    8700
   7   5  11  471621   11615
   9   5  11    7412    3914
  11   5  11   19251    5592
  13   5  11  188275   10316
  15   5  11   32337    6596
  17   5  11   39692    5215
  19   5  11   75524    6024
  21   5  11  176156   10027
  23   5  11  107752    9771
  25   5  11   77871    9063
  27   5  11  144706   12289
  29   5  11   -8056    8056
  31   5  11   18827   12175
 -40   6  11   -9067    9067
 -38   6  11    3782    8179
 -36   6  11   -5505    7444
 -34   6  11   -6633    6633
 -32   6  11   16414    7160
 -30   6  11   -6012    6012
 -28   6  11   20324    6668
 -26   6  11   -5743    5743
 -24   6  11   -5054    5054
 -22   6  11   90893    7269
 -20   6  11   -3723    3723
 -18   6  11    1694    3929
 -16   6  11   65551    5513
 -14   6  11   15077    4534
 -12   6  11  244806    8664
 -10   6  11   27845    4557
  -8   6  11   -3802    3802
  -6   6  11   74006    5195
  -4   6  11   -3379    3379
  -2   6  11  109703    6220
   0   6  11   22665    4393
   2   6  11  309933   10786
   4   6  11  167734    7467
   6   6  11  140453    7138
   8   6  11  200402    9459
  10   6  11    -608    4288
  12   6  11    -436    4698
  14   6  11  368793   13107
  16   6  11   86946    7386
  18   6  11  131893    7152
  20   6  11   45484    6684
  22   6  11    2422    6432
  24   6  11   32826    8763
  26   6  11   -4054    8124
  28   6  11   -9241    9241
  30   6  11    3046   10290
 -39   7  11   20352   14031
 -37   7  11   61148   11424
 -35   7  11   -7439    7439
 -33   7  11   68249    8771
 -31   7  11   48941    7707
 -29   7  11   -7241    7241
 -27   7  11   -1748    5595
 -25   7  11   -5320    5320
 -23   7  11    7802    6283
 -21   7  11  193002   10271
 -19   7  11   45852    6397
 -17   7  11  520040   15122
 -15   7  11 1018763   23291
 -13   7  11    6589    4744
 -11   7  11   -4135    4135
  -9   7  11   34818    5018
  -7   7  11  178998    7780
  -5   7  11  323285   10783
  -3   7  11   -3875    3875
  -1   7  11  158155    7926
   1   7  11 1309132   24525
   3   7  11  545661   15466
   5   7  11    -576    4365
   7   7  11  336266   11672
   9   7  11   16330    5535
  11   7  11   58700    5344
  13   7  11  988461   22840
  15   7  11  253022   12253
  17   7  11  847694   24074
  19   7  11  980118   32504
  21   7  11   88149    9466
  23   7  11  254081   14130
  25   7  11   48319    8768
  27   7  11   19229   10637
  29   7  11  195243   16095
 -38   8  11   11291    8120
 -36   8  11   58333   10900
 -34   8  11    1491    7886
 -32   8  11   11939    8008
 -30   8  11   45375    8132
 -28   8  11   -1161    6681
 -26   8  11   19054    6801
 -24   8  11    2826    5956
 -22   8  11  169281    8647
 -20   8  11   26160    5079
 -18   8  11  166204    9146
 -16   8  11   44216    5778
 -14   8  11  161526    8526
 -12   8  11     738    5402
 -10   8  11  166340    8439
  -8   8  11  574213   14755
  -6   8  11   86116    6308
  -4   8  11    6345    4909
  -2   8  11  259890    9232
   0   8  11    8661    4781
   2   8  11  138316    9116
   4   8  11    9701    4950
   6   8  11   15218    4968
   8   8  11  140607    8522
  10   8  11    6179    5148
  12   8  11   99271    8557
  14   8  11    7414    6431
  16   8  11  213366   13956
  18   8  11  136798   11046
  20   8  11   13839    8498
  22   8  11   35484    8104
  24   8  11   -5592    8323
  26   8  11    4389   11706
  28   8  11   71461   12265
 -35   9  11  106723   12520
 -33   9  11   -8107    8107
 -31   9  11   -2992    7296
 -29   9  11  161008   10509
 -27   9  11   -2357    5697
 -25   9  11   66984    7941
 -23   9  11   48400    9543
 -21   9  11    5276    5825
 -19   9  11  241276   11675
 -17   9  11   -1695    4993
 -15   9  11    2760    5288
 -13   9  11   13119    4616
 -11   9  11   -4173    4806
  -9   9  11   66728    6763
  -7   9  11  601556   17785
  -5   9  11  610504   17033
  -3   9  11  681577   16560
  -1   9  11  374610   15881
   1   9  11   91295    8221
   3   9  11  432655   16017
   5   9  11  259423   10919
   7   9  11    3662    6557
   9   9  11  321679   12945
  11   9  11  208084   10139
  13   9  11  140430    8399
  15   9  11  271326   14326
  17   9  11   49041    6236
  19   9  11     670    9005
  21   9  11  276212   17496
  23   9  11  116198   11980
  25   9  11  160670   14460
  27   9  11  287809   20853
 -34  10  11   18814    9370
 -32  10  11   11029    8597
 -30  10  11   13057    8099
 -28  10  11   32318    8206
 -26  10  11   13583    7311
 -24  10  11    6941    5514
 -22  10  11   -4837    4837
 -20  10  11   57722    7944
 -18  10  11   79491    7299
 -16  10  11    9053    6056
 -14  10  11  185833   10686
 -12  10  11   60180    6714
 -10  10  11   -4238    5219
  -8  10  11   38040    6733
  -6  10  11   47000    7117
  -4  10  11    7516    4891
  -2  10  11   78771    9927
   0  10  11   30387    6855
   2  10  11   18740    5858
   4  10  11   20188    6141
   6  10  11   70686    6826
   8  10  11   25407    6012
  10  10  11   22238    6586
  12  10  11    9180    5982
  14  10  11   43878    7315
  16  10  11    7783    5656
  18  10  11    3936    9753
  20  10  11   22387    9503
  22  10  11  -10100   10100
  24  10  11  -10674   12932
  26  10  11   -8510   11546
 -33  11  11   -4692   11086
 -31  11  11   21707   10759
 -29  11  11    4219    9309
 -27  11  11    9820    9116
 -25  11  11    2280    8654
 -23  11  11   99367    8353
 -21  11  11   64169    9906
 -19  11  11   51278    7362
 -17  11  11    7136    6980
 -15  11  11   17089    7616
 -13  11  11  163705   12012
 -11  11  11  115637    9195
  -9  11  11   93459    8785
  -7  11  11  321201   16238
  -5  11  11   12940    6208
  -3  11  11  428351   15884
  -1  11  11  614488   19368
   1  11  11   20463    6098
   3  11  11   77381    7315
   5  11  11   60230    7142
   7  11  11   99354    7422
   9  11  11  355639   13788
  11  11  11   12836    6910
  13  11  11     775    8311
  15  11  11   29165    9953
  17  11  11   -2402    6690
  19  11  11   -5167    9895
  21  11  11   10938   10917
  23  11  11   -3041   10821
 -30  12  11   29675   14725
 -28  12  11  -10329   10329
 -26  12  11   -4112   12096
 -24  12  11   -5716    7908
 -22  12  11  106598    9403
 -20  12  11   -5974    5974
 -18  12  11   21929    6340
 -16  12  11   -6780    6780
 -14  12  11   -6762    7537
 -12  12  11   69577    8394
 -10  12  11   12635    6599
  -8  12  11    6305    5193
  -6  12  11  495754   18810
  -4  12  11  176305   12317
  -2  12  11    7140    8312
   0  12  11  186095   13799
   2  12  11   14662    8877
   4  12  11     260    9291
   6  12  11   18348    8765
   8  12  11   75285   10337
  10  12  11   -8273    8316
  12  12  11   27320    7600
  14  12  11    -471   10285
  16  12  11    6382   10367
  18  12  11  -11829   11829
  20  12  11   27769   13141
 -27  13  11   43120   11743
 -25  13  11   21500    9174
 -23  13  11    1585   16002
 -21  13  11  150344   12210
 -19  13  11    6729    6804
 -17  13  11     896    6821
 -15  13  11    9864    7132
 -13  13  11   -7102    7102
 -11  13  11   22775    5483
  -9  13  11  100374   10057
  -7  13  11   -3643    7141
  -5  13  11  162528   11432
  -3  13  11  256761   15100
  -1  13  11   13585    8361
   1  13  11   94982   10589
   3  13  11   17221    9157
   5  13  11   22015   10000
   7  13  11  497678   25857
   9  13  11   66915   11373
  11  13  11   62220   14161
  13  13  11   93487   11781
  15  13  11     -57   11468
  17  13  11   41755   11234
  19  13  11    4486   16146
 -24  14  11   19434   11358
 -22  14  11   64698   10672
 -20  14  11  231976   17049
 -18  14  11  103764    9392
 -16  14  11   15362    7836
 -14  14  11   16348   10859
 -12  14  11    9023    7947
 -10  14  11   24717    8467
  -8  14  11   88565   10507
  -6  14  11   35971    8535
  -4  14  11   -6579    9596
  -2  14  11     241    8375
   0  14  11   18242    9056
   2  14  11   28912    9242
   4  14  11   17917    9456
   6  14  11   58136   11439
   8  14  11     881   12140
  10  14  11   15090   10636
  12  14  11   48518   15615
  14  14  11    7672   13982
 -19  15  11  424614   23791
 -17  15  11  349028   29104
 -15  15  11   55202   12748
 -13  15  11   94357   14142
 -11  15  11   11897    9539
  -9  15  11   -3254   10383
  -7  15  11   21351    9052
  -5  15  11   14866    9216
  -3  15  11   11531   10084
  -1  15  11   10526   10089
   1  15  11   26609   10569
   3  15  11   13626   10714
   5  15  11  107334   13004
   7  15  11   18951   12367
   9  15  11   46482   12662
  11  15  11   45040   27427
 -12  16  11    5040   11511
 -10  16  11    6096   12831
  -8  16  11   37816   13692
  -6  16  11   -6445    9769
  -4  16  11   -9842    9842
  -2  16  11   -7924   11761
   0  16  11    8091   10863
   2  16  11   21050   13358
 -42   0  12   87560   19254
 -40   0  12  -17539   21554
 -38   0  12   12188   15912
 -36   0  12    7527   14541
 -34   0  12   12042   14880
 -32   0  12  319360   24911
 -30   0  12  715089   35654
 -28   0  12  560356   21320
 -26   0  12  250918   17760
 -24   0  12   75537    7774
 -22   0  12  105508    8509
 -20   0  12   93357    8325
 -18   0  12    5528    6567
 -16   0  12   93656    8909
 -14   0  12  895743   26380
 -12   0  12  312433   13949
 -10   0  12 1082180   30163
  -8   0  12 1137328   30867
  -6   0  12    7277    5004
  -4   0  12   64239    7032
  -2   0  12  240883    9808
   0   0  12   33068    5318
   2   0  12 2590228   58616
   4   0  12   -3062    5443
   6   0  12  961767   29288
   8   0  12 2402139   64153
  10   0  12  100701   11630
  12   0  12   54147    9945
  14   0  12   -2830    8446
  16   0  12   61637   15077
  18   0  12   36566    9981
  20   0  12  597762   30812
  22   0  12 1415555   72273
  24   0  12  490558   42040
  26   0  12   96348   12932
  28   0  12     579    9944
  30   0  12  238181   20780
  32   0  12   46789   13158
 -41   1  12   10418   13158
 -39   1  12  -11147   12773
 -37   1  12   -6685   10944
 -35   1  12   -9895    9895
 -33   1  12   24397    5075
 -31   1  12   11138    6203
 -29   1  12   12237    5629
 -27   1  12    -823    5819
 -25   1  12  336261   12345
 -23   1  12   -3507    3507
 -21   1  12   -3202    3202
 -19   1  12  164941    7859
 -17   1  12   65156    5787
 -15   1  12   89506    6338
 -13   1  12    6536    4081
 -11   1  12  338341   10139
  -9   1  12   13941    4204
  -7   1  12   44587    4618
  -5   1  12  111759    5718
  -3   1  12   74191    4144
  -1   1  12   49015    3738
   1   1  12  108422    5060
   3   1  12 1512241   24925
   5   1  12   18359    4567
   7   1  12    6540    5205
   9   1  12  507034   15128
  11   1  12  211887   10572
  13   1  12  153306    9790
  15   1  12  460943   20689
  17   1  12 1290424   41940
  19   1  12  116560    9687
  21   1  12   18651    8061
  23   1  12  120719   11508
  25   1  12   17694    6128
  27   1  12   -5635    5635
  29   1  12   10083    7507
  31   1  12     843    9245
 -42   2  12   13897   25245
 -40   2  12   -2784   11924
 -38   2  12   -7032    7032
 -36   2  12    5343    6589
 -34   2  12   55531    7837
 -32   2  12   50930    7479
 -30   2  12  208614   12364
 -28   2  12  119708   10178
 -26   2  12    -788    6009
 -24   2  12   -4697    4697
 -22   2  12   29387    4907
 -20   2  12   -3851    3851
 -18   2  12  544357   14433
 -16   2  12  280770    9085
 -14   2  12  680323   16409
 -12   2  12  751746   16229
 -10   2  12  390701   11372
  -8   2  12  537630   12261
  -6   2  12  301136    8674
  -4   2  12   41114    3977
  -2   2  12  400204    9375
   0   2  12  657427   12948
   2   2  12   58472    4917
   4   2  12 1101212   21332
   6   2  12 2287624   40611
   8   2  12  872390   19519
  10   2  12 2945564   56330
  12   2  12  463608   19372
  14   2  12     394    6651
  16   2  12  386054   18392
  18   2  12   72078    8472
  20   2  12  405336   19124
  22   2  12  388328   19298
  24   2  12   72334    8300
  26   2  12   43650    7201
  28   2  12   -3401    5106
  30   2  12  -10401   10401
  32   2  12  -11689   11689
 -41   3  12   42968   15225
 -39   3  12   -3693    7974
 -37   3  12   -7627    7627
 -35   3  12    6616    6958
 -33   3  12    5037    6548
 -31   3  12   -6419    6419
 -29   3  12   80906    8516
 -27   3  12   37697    8003
 -25   3  12  389412   14483
 -23   3  12   18762    5060
 -21   3  12  250940    8985
 -19   3  12    1565    3685
 -17   3  12   28943    3733
 -15   3  12   55912    5011
 -13   3  12   22874    4167
 -11   3  12   55681    4836
  -9   3  12   44952    4334
  -7   3  12   -3263    3263
  -5   3  12     230    3082
  -3   3  12   15721    4151
  -1   3  12    6038    3527
   1   3  12   62574    4507
   3   3  12     749    3967
   5   3  12  393764   12758
   7   3  12   56914    5802
   9   3  12  577504   17165
  11   3  12  341007   12711
  13   3  12  599402   19419
  15   3  12  218520   10834
  17   3  12   16475    5575
  19   3  12   24347    5881
  21   3  12  290842   14164
  23   3  12  565280   23151
  25   3  12  197680   11326
  27   3  12   49360   10015
  29   3  12   67520   14522
  31   3  12  -10910   10910
 -40   4  12  118547   12090
 -38   4  12   17403   12713
 -36   4  12   13135    8342
 -34   4  12  184971   11540
 -32   4  12   -7044    7044
 -30   4  12   10172    6902
 -28   4  12  290416   17547
 -26   4  12   -5101    5820
 -24   4  12  624745   18627
 -22   4  12   17119    5668
 -20   4  12   24141    5011
 -18   4  12  561217   14164
 -16   4  12  346780   10446
 -14   4  12  598028   14046
 -12   4  12 1487424   27184
 -10   4  12  156378    6167
  -8   4  12   15782    3383
  -6   4  12  224609    7630
  -4   4  12  619259   14700
  -2   4  12  452042   11146
   0   4  12  529812   11943
   2   4  12    9003    3612
   4   4  12 1315836   25604
   6   4  12 2349340   45338
   8   4  12   46756    6090
  10   4  12  310839   11138
  12   4  12  173187    8653
  14   4  12   -5070    5070
  16   4  12  165868   10288
  18   4  12  222356   12677
  20   4  12  550711   18611
  22   4  12  486464   22523
  24   4  12   52581   11720
  26   4  12   75704   13531
  28   4  12   -2103   12164
  30   4  12   -8174   11184
 -39   5  12   60510   11603
 -37   5  12   -8401    8472
 -35   5  12   -7703    7703
 -33   5  12  116966   10748
 -31   5  12   -6836    6836
 -29   5  12   -6430    6430
 -27   5  12  119265    9290
 -25   5  12   -5158    5744
 -23   5  12   11688    5827
 -21   5  12     -10    4169
 -19   5  12  137532    8075
 -17   5  12   -2609    3579
 -15   5  12   39757    4580
 -13   5  12    -732    3385
 -11   5  12  205583    7983
  -9   5  12    3797    3557
  -7   5  12   -3556    3556
  -5   5  12  241810    8888
  -3   5  12     831    4332
  -1   5  12   31926    4762
   1   5  12  183936    7929
   3   5  12   11716    4247
   5   5  12  178752    8165
   7   5  12  279548   10787
   9   5  12  172912    9431
  11   5  12   -4816    5162
  13   5  12   -1886    5839
  15   5  12    5887    6024
  17   5  12   11450    6892
  19   5  12   65879    8323
  21   5  12  127915    9061
  23   5  12   -9794    9794
  25   5  12   14803   10965
  27   5  12  -12387   12387
  29   5  12  -11662   11662
 -38   6  12   45015   14706
 -36   6  12   13528   10168
 -34   6  12   -7443    7443
 -32   6  12  277478   13203
 -30   6  12   -6799    6799
 -28   6  12   -6575    6575
 -26   6  12  296338   12586
 -24   6  12  182517   10439
 -22   6  12  128383    9145
 -20   6  12  236224   10728
 -18   6  12  114776    7245
 -16   6  12   -1208    4740
 -14   6  12  466193   12788
 -12   6  12    7923    4234
 -10   6  12   89680    6140
  -8   6  12  319139   11053
  -6   6  12    8117    4520
  -4   6  12  410427   13109
  -2   6  12   24879    5171
   0   6  12  295940   11769
   2   6  12 1576188   30514
   4   6  12  468631   13001
   6   6  12  875527   22314
   8   6  12  373646   14316
  10   6  12   -2193    4786
  12   6  12  352262   18222
  14   6  12  422150   16982
  16   6  12  156662    9983
  18   6  12  235933   16450
  20   6  12  353410   19061
  22   6  12   26052    6242
  24   6  12  107999   10562
  26   6  12  -11418   11418
  28   6  12  -13083   13083
 -37   7  12    6790    8922
 -35   7  12    1147    9579
 -33   7  12   -1044    7993
 -31   7  12   79356    9360
 -29   7  12   -6855    6855
 -27   7  12   21018    7150
 -25   7  12   29195    7356
 -23   7  12   23953    7360
 -21   7  12    5969    3712
 -19   7  12   25292    6001
 -17   7  12    4487    4638
 -15   7  12   36298    6015
 -13   7  12   41546    5810
 -11   7  12    5878    4645
  -9   7  12  126489    7356
  -7   7  12  286930   10707
  -5   7  12  200510    9124
  -3   7  12   42942    5834
  -1   7  12   62558    6308
   1   7  12  401310   13409
   3   7  12   55420    6231
   5   7  12  163782    8557
   7   7  12  417708   12689
   9   7  12   -4313    4607
  11   7  12    7005    4866
  13   7  12   31623    6357
  15   7  12   31157    5664
  17   7  12   14069    5039
  19   7  12   10732    7686
  21   7  12   -9254    9254
  23   7  12   35883    8993
  25   7  12   -7883   12243
  27   7  12   12780   11047
 -36   8  12   22741    9349
 -34   8  12   26139   10177
 -32   8  12   30697    9924
 -30   8  12   69971    8761
 -28   8  12   38055    8177
 -26   8  12   85518    8436
 -24   8  12  241341   14080
 -22   8  12  114011    8323
 -20   8  12  299433   14405
 -18   8  12     451    4765
 -16   8  12   87962    7430
 -14   8  12    6006    5679
 -12   8  12   66260    6412
 -10   8  12  319968   12852
  -8   8  12  122852    7978
  -6   8  12   20436    5291
  -4   8  12   14548    5237
  -2   8  12   47865    5972
   0   8  12   96597    7973
   2   8  12  481347   15081
   4   8  12  288934   11411
   6   8  12  151614    8937
   8   8  12   -2822    5025
  10   8  12   11039    5710
  12   8  12   13844    6476
  14   8  12  118214    8312
  16   8  12   89345    7757
  18   8  12  142258   11879
  20   8  12  124284   12073
  22   8  12  136550   12772
  24   8  12  194491   16511
  26   8  12   57036   11867
 -35   9  12   14404    9957
 -33   9  12     446    9215
 -31   9  12    5282    9731
 -29   9  12   13016    7847
 -27   9  12  137825   12174
 -25   9  12   50736    8126
 -23   9  12    3365    6850
 -21   9  12   10081    7361
 -19   9  12  258595   11733
 -17   9  12   66825    7137
 -15   9  12  136525    9054
 -13   9  12   93423    7486
 -11   9  12   90194    7906
  -9   9  12   20136    6291
  -7   9  12   18722    5946
  -5   9  12   48775    6428
  -3   9  12  248797   11343
  -1   9  12  135596    8800
   1   9  12   37501    7001
   3   9  12   56735    6815
   5   9  12  200392   10667
   7   9  12   44011    7892
   9   9  12    3467    7017
  11   9  12  122519    8966
  13   9  12   19183    5747
  15   9  12   26340    7255
  17   9  12  274969   11981
  19   9  12   40487   10303
  21   9  12   27737   10354
  23   9  12   32677   11811
  25   9  12   -9963   12080
 -32  10  12   -8716    8716
 -30  10  12   29680    9324
 -28  10  12  116876   10524
 -26  10  12   40174    9059
 -24  10  12   28838    8092
 -22  10  12    9145    7465
 -20  10  12  108440    8209
 -18  10  12   38286    6609
 -16  10  12   17249    7385
 -14  10  12   63712    6902
 -12  10  12  345600   16613
 -10  10  12  298644   19458
  -8  10  12  165832   10634
  -6  10  12  117571    8216
  -4  10  12  121248   11369
  -2  10  12   79321    8644
   0  10  12  194050   11986
   2  10  12  390036   21506
   4  10  12  742368   21767
   6  10  12  433394   17169
   8  10  12   14211    6941
  10  10  12  137345   10086
  12  10  12    3673    6733
  14  10  12   -2271    7588
  16  10  12   74744    7716
  18  10  12   -8889    8889
  20  10  12    3902   10193
  22  10  12   74333   13414
  24  10  12  -19894   19894
 -31  11  12   20234   12194
 -29  11  12    4775   15796
 -27  11  12   77416   12353
 -25  11  12  102187   11132
 -23  11  12    3208    6707
 -21  11  12   38586    7036
 -19  11  12    4022    9243
 -17  11  12   12705    6700
 -15  11  12   73658    8687
 -13  11  12   79821    8239
 -11  11  12   11509    7066
  -9  11  12   -6396    6396
  -7  11  12   -6236    6236
  -5  11  12  480063   18750
  -3  11  12   13305    6528
  -1  11  12   71544    8423
   1  11  12   62750    9089
   3  11  12    2081    8220
   5  11  12   -2507    5806
   7  11  12    6938    7720
   9  11  12    -122    7569
  11  11  12   -7349    7349
  13  11  12    5808    7777
  15  11  12   17625    8624
  17  11  12   -8602    8602
  19  11  12  -14606   14606
  21  11  12     711   15202
 -28  12  12  -10721   12362
 -26  12  12   70587   15118
 -24  12  12   18235   10566
 -22  12  12   -2589   10578
 -20  12  12   48633    8264
 -18  12  12   22668    8201
 -16  12  12  172361   11576
 -14  12  12  163866   11524
 -12  12  12   30237   10490
 -10  12  12   69747    9743
  -8  12  12   67488    7728
  -6  12  12    1638    5844
  -4  12  12  135356   12775
  -2  12  12   79781   10508
   0  12  12   62645   10106
   2  12  12  197946   15748
   4  12  12   -2518    9039
   6  12  12   79819   10939
   8  12  12  290569   14875
  10  12  12   78486    8130
  12  12  12     662    8460
  14  12  12  -11840   11840
  16  12  12   20007    8960
  18  12  12   19171   13158
 -25  13  12   14566   11046
 -23  13  12   10431   13721
 -21  13  12    4461   12141
 -19  13  12   -5943    9331
 -17  13  12   -8605    8605
 -15  13  12   -8056    9109
 -13  13  12   -3126    7851
 -11  13  12   23278    8608
  -9  13  12   30781    9472
  -7  13  12   26791    9569
  -5  13  12  108246   11494
  -3  13  12   21414    9710
  -1  13  12   47335   10321
   1  13  12   61088   10366
   3  13  12   19722   10573
   5  13  12   16143    9883
   7  13  12   70007   10642
   9  13  12    7539   10422
  11  13  12    8847   11986
  13  13  12   -5913   11532
  15  13  12    3501   16850
 -22  14  12   12158   16010
 -20  14  12   37977   10406
 -18  14  12    8889   10470
 -16  14  12   37594   10500
 -14  14  12   47537   10071
 -12  14  12   19412    8506
 -10  14  12  227455   16680
  -8  14  12  145549   11400
  -6  14  12     456    9159
  -4  14  12   51671   10122
  -2  14  12   13239   10428
   0  14  12   46773   10661
   2  14  12  116596   13011
   4  14  12   12152    9957
   6  14  12  183756   25505
   8  14  12  140213   14796
  10  14  12    6073   10450
  12  14  12   30406   11036
 -15  15  12    3562   13279
 -13  15  12    7626    9168
 -11  15  12   -5054   10293
  -9  15  12    8394   10819
  -7  15  12   24824   10830
  -5  15  12   19441   10774
  -3  15  12   34886   10118
  -1  15  12   38608   10602
   1  15  12   -9581    9581
   3  15  12   23301   12177
   5  15  12   -1147   14247
 -41   1  13   42999   11041
 -39   1  13  -12115   18523
 -37   1  13   23816   10100
 -35   1  13   15061   11192
 -33   1  13   10109    5935
 -31   1  13  292540   13317
 -29   1  13  195936   11482
 -27   1  13  113429    8775
 -25   1  13   17337    4542
 -23   1  13  140996    6776
 -21   1  13    3430    4638
 -19   1  13  372251   13530
 -17   1  13  347183   13029
 -15   1  13  815335   20456
 -13   1  13 1258799   27824
 -11   1  13  590520   16378
  -9   1  13  723856   19729
  -7   1  13  350800   11390
  -5   1  13   -1698    4481
  -3   1  13  254284    7767
  -1   1  13   25586    3650
   1   1  13  193790    7680
   3   1  13 1451215   29196
   5   1  13    5813    5288
   7   1  13  735910   19634
   9   1  13 2160543   44631
  11   1  13  164335    9679
  13   1  13  113909    8921
  15   1  13  486550   19973
  17   1  13  532393   25522
  19   1  13  272303   14745
  21   1  13  135903   11249
  23   1  13  176258   13579
  25   1  13  274124   21262
  27   1  13  208031   14974
  29   1  13  101845   11662
 -40   2  13   48899   13848
 -38   2  13    1460   10420
 -36   2  13   -5633    5633
 -34   2  13   -7913    7913
 -32   2  13   -1579    5679
 -30   2  13  117083   10069
 -28   2  13   11146    6406
 -26   2  13   -4464    5058
 -24   2  13   53274    4644
 -22   2  13  523022   15341
 -20   2  13  124457    7075
 -18   2  13   43011    5790
 -16   2  13   41672    6281
 -14   2  13   14959    5468
 -12   2  13  278062   11279
 -10   2  13    1181    5065
  -8   2  13  427319   13379
  -6   2  13  416883   11772
  -4   2  13   75676    5085
  -2   2  13  302412    9104
   0   2  13  113985    6150
   2   2  13  146533    7259
   4   2  13  826925   19288
   6   2  13    4652    5717
   8   2  13     714    6160
  10   2  13   35343    7226
  12   2  13    4569    6321
  14   2  13  148836    9567
  16   2  13   29638    7293
  18   2  13   -1652    6812
  20   2  13   11343    7890
  22   2  13   -5439    6641
  24   2  13  102284    9333
  26   2  13   13355    8160
  28   2  13    2233    6660
  30   2  13   37323   13519
 -39   3  13  128782   14715
 -37   3  13   -7687    7687
 -35   3  13    8173    7450
 -33   3  13   43219   10480
 -31   3  13   -7117    7117
 -29   3  13  312203   14655
 -27   3  13  224828   11405
 -25   3  13   29292    5208
 -23   3  13  267544   11697
 -21   3  13    -343    3716
 -19   3  13   11035    4614
 -17   3  13  370740   11312
 -15   3  13   -3991    3991
 -13   3  13   -3495    3495
 -11   3  13  381714   12023
  -9   3  13   15406    4280
  -7   3  13  220335    8212
  -5   3  13  509944   12401
  -3   3  13   23047    4981
  -1   3  13  434171   11422
   1   3  13   98106    5914
   3   3  13  700096   18504
   5   3  13 3296713   59693
   7   3  13  637492   16802
   9   3  13  100107    6911
  11   3  13   50161    5891
  13   3  13   96848    7033
  15   3  13   68905    7601
  17   3  13  156964   10934
  19   3  13  400709   26785
  21   3  13  407445   19530
  23   3  13  315064   17885
  25   3  13   77726    9372
  27   3  13  219418   17019
  29   3  13  105196   14637
 -40   4  13    2895   30975
 -38   4  13   10856   11390
 -36   4  13   -7616    7616
 -34   4  13    7969    8195
 -32   4  13    6797    7498
 -30   4  13   -1280    7633
 -28   4  13   48256    8208
 -26   4  13  122774    8932
 -24   4  13   -5891    5891
 -22   4  13   -4695    4695
 -20   4  13   -3427    3427
 -18   4  13   97503    6108
 -16   4  13  144393    7449
 -14   4  13  163436    8094
 -12   4  13   -4165    4165
 -10   4  13  494351   13363
  -8   4  13   -3396    3396
  -6   4  13   33479    4411
  -4   4  13  198055    9626
  -2   4  13  632131   15400
   0   4  13   27587    4196
   2   4  13  544021   14059
   4   4  13  184672    9288
   6   4  13  164548   10676
   8   4  13   49392    6416
  10   4  13   73107    7085
  12   4  13  249247   10460
  14   4  13   13731    6794
  16   4  13   87297    9020
  18   4  13   24341    7131
  20   4  13   14203    8826
  22   4  13   29841    7462
  24   4  13  -11746   11746
  26   4  13    2430   12956
  28   4  13   11785   11796
 -39   5  13   21331   12675
 -37   5  13   30349   10913
 -35   5  13   -8417    8417
 -33   5  13   80690    9833
 -31   5  13   32611    8841
 -29   5  13   13995    7795
 -27   5  13  147160    9500
 -25   5  13  139874   10222
 -23   5  13   45254    7283
 -21   5  13    7813    4634
 -19   5  13  102134    6626
 -17   5  13    2600    3849
 -15   5  13  196477    8724
 -13   5  13  238349    9302
 -11   5  13   10645    3824
  -9   5  13  517800   13371
  -7   5  13  305310   10436
  -5   5  13   12147    4748
  -3   5  13  446697   13528
  -1   5  13  287022   12789
   1   5  13  116821    6872
   3   5  13  639064   16689
   5   5  13  853145   21592
   7   5  13  324430   12471
   9   5  13   63907    7101
  11   5  13    7060    5401
  13   5  13   26035    7977
  15   5  13   50644    8208
  17   5  13  168307   14956
  19   5  13  125594   10907
  21   5  13   55953    8387
  23   5  13    3646   10575
  25   5  13   23964   13490
  27   5  13   35879   13666
 -38   6  13   17090   12908
 -36   6  13   -4772   10180
 -34   6  13   -7686    7686
 -32   6  13   69993    9781
 -30   6  13    6103    7728
 -28   6  13     631    7001
 -26   6  13   26019    8314
 -24   6  13   51061    8156
 -22   6  13     473    4942
 -20   6  13   -4775    4775
 -18   6  13   44802    6533
 -16   6  13   37376    5246
 -14   6  13  389488   12527
 -12   6  13  478950   14216
 -10   6  13   50869    5871
  -8   6  13   32174    5296
  -6   6  13  121477    7968
  -4   6  13   21415    5556
  -2   6  13     780    5278
   0   6  13   -5097    5097
   2   6  13   39488    5983
   4   6  13  408896   16506
   6   6  13  115467    8407
   8   6  13   28015    8257
  10   6  13   56195    7823
  12   6  13  169781   11818
  14   6  13   25723    8438
  16   6  13   26770    7513
  18   6  13   23297    7101
  20   6  13   89790    8056
  22   6  13  -10412   10412
  24   6  13   31308   12758
  26   6  13   67326   14406
 -37   7  13   31481   13537
 -35   7  13   -9612    9612
 -33   7  13    9056    8492
 -31   7  13  259503   13938
 -29   7  13   80410   10378
 -27   7  13  164390   11708
 -25   7  13  489175   19337
 -23   7  13  261129   14327
 -21   7  13   94479    7340
 -19   7  13    -568    4893
 -17   7  13  100097    7882
 -15   7  13   85342    7005
 -13   7  13  308628   12927
 -11   7  13   63561    6549
  -9   7  13  302088   11899
  -7   7  13   18540    5256
  -5   7  13   11219    5246
  -3   7  13    9522    5813
  -1   7  13   -5413    5413
   1   7  13  224536   10579
   3   7  13  475949   14733
   5   7  13  129656    9221
   7   7  13  202603   11794
   9   7  13  271152   13587
  11   7  13   80086    7046
  13   7  13  795316   26519
  15   7  13  340310   20040
  17   7  13   37025    8307
  19   7  13  409478   22572
  21   7  13   16913   11086
  23   7  13   17505   13710
  25   7  13   10833   12420
 -34   8  13    7920   11021
 -32   8  13   25239    8913
 -30   8  13  150420   13231
 -28   8  13   30673   10168
 -26   8  13   21997    8738
 -24   8  13   70907    9953
 -22   8  13   10952    4768
 -20   8  13   19388    6471
 -18   8  13   -4833    4833
 -16   8  13    5114    5928
 -14   8  13   17925    6219
 -12   8  13   65468    6642
 -10   8  13    4287    5712
  -8   8  13   54084    6253
  -6   8  13   44902    8764
  -4   8  13   56481    6601
  -2   8  13  183737    9801
   0   8  13   -5392    5392
   2   8  13    1321    5525
   4   8  13   82686    7205
   6   8  13    6649    6207
   8   8  13   32559    6611
  10   8  13    3683    5562
  12   8  13  124321    9864
  14   8  13   18347   10446
  16   8  13   -4748    7313
  18   8  13  212501    9268
  20   8  13   -2333    7010
  22   8  13   -8353   11131
  24   8  13    6937   12738
 -33   9  13   59235   12479
 -31   9  13   -8660   10769
 -29   9  13  192126   13833
 -27   9  13   76351   10851
 -25   9  13    4680    7270
 -23   9  13  151826    8611
 -21   9  13   20940    6774
 -19   9  13   28460    6372
 -17   9  13   26312    6376
 -15   9  13   80786    7558
 -13   9  13  308224   13311
 -11   9  13  619667   20607
  -9   9  13  336692   19935
  -7   9  13    3424    5584
  -5   9  13    7059    6233
  -3   9  13   13073    6732
  -1   9  13  210097   11169
   1   9  13  169888   10616
   3   9  13   49401    7165
   5   9  13  161476    9596
   7   9  13   16736    6754
   9   9  13   59045    9649
  11   9  13  311757   14764
  13   9  13  125468    9527
  15   9  13  146430   10235
  17   9  13  278033   15117
  19   9  13   30975    9003
  21   9  13   25754   11260
  23   9  13  202643   17215
 -32  10  13   -7530   15381
 -30  10  13   -8031   12489
 -28  10  13   29007   10564
 -26  10  13   -3383    8159
 -24  10  13   29093    8294
 -22  10  13   11857    7289
 -20  10  13   -6251    6251
 -18  10  13   10968    7281
 -16  10  13   23280    7199
 -14  10  13   37888    6893
 -12  10  13   31769    6645
 -10  10  13    3274    7417
  -8  10  13   -6274    6274
  -6  10  13   -3063    7003
  -4  10  13   76346    9444
  -2  10  13   29478    9989
   0  10  13    5893    6658
   2  10  13  184374   12660
   4  10  13  271320   14639
   6  10  13  130409   12424
   8  10  13   -4552    6750
  10  10  13   94151    8917
  12  10  13   49943    8322
  14  10  13    2777    7260
  16  10  13    6443    7217
  18  10  13   10599   10146
  20  10  13  -10553   10553
 -29  11  13    4756   13818
 -27  11  13  143409   15627
 -25  11  13   32343   11108
 -23  11  13   37462    8084
 -21  11  13   10480    6629
 -19  11  13   -7821    7821
 -17  11  13   75928    9195
 -15  11  13   -1266    7509
 -13  11  13   -6387    6387
 -11  11  13  189449   12225
  -9  11  13   -6203    6203
  -7  11  13   23306    7061
  -5  11  13  182637   11208
  -3  11  13    3787    8723
  -1  11  13   55283    9348
   1  11  13  213429   14258
   3  11  13  150871   12822
   5  11  13   86224    8968
   7  11  13   46081    8472
   9  11  13   45254    9079
  11  11  13   44470    8637
  13  11  13    5939    8806
  15  11  13   11377   11612
  17  11  13   12898   11594
  19  11  13    1313   11990
 -26  12  13   67668   16775
 -24  12  13    5690   11889
 -22  12  13  -10910   10910
 -20  12  13    2286    8074
 -18  12  13   12290    7257
 -16  12  13   22936    8137
 -14  12  13   54065   12030
 -12  12  13   -8510    8510
 -10  12  13   88674    9236
  -8  12  13   32515    8169
  -6  12  13   21244    7581
  -4  12  13  108153    9116
  -2  12  13   13154    6648
   0  12  13   -6608    8213
   2  12  13   22165    9029
   4  12  13   37354    8634
   6  12  13   15441    6848
   8  12  13   -5223   12255
  10  12  13   20298   12934
  12  12  13   -1650    8076
  14  12  13   97824   13206
  16  12  13   30231   10648
 -23  13  13   19541   14255
 -21  13  13     427   11245
 -19  13  13   44572   11954
 -17  13  13    1163    8257
 -15  13  13  168050   13712
 -13  13  13  187965   13479
 -11  13  13   10942    9077
  -9  13  13  202726   19983
  -7  13  13   70036   10730
  -5  13  13   -6332   10363
  -3  13  13  167141   13147
  -1  13  13    1521    9220
   1  13  13   50321   10840
   3  13  13  157149   16036
   5  13  13   15667   11454
   7  13  13   96274   13680
   9  13  13   20263   14006
  11  13  13   22075   11030
  13  13  13   -7345   19664
 -18  14  13    -751   12135
 -16  14  13    3633   12001
 -14  14  13   13266   10985
 -12  14  13    1089    9422
 -10  14  13   42715   12182
  -8  14  13    8619   11778
  -6  14  13   22000   10194
  -4  14  13   29429   10019
  -2  14  13   57189   10498
   0  14  13   12519   10383
   2  14  13    5240   10471
   4  14  13    6281   15526
   6  14  13    1115   13621
   8  14  13   -6659   20447
  -9  15  13   24388   11538
  -7  15  13    8909   12900
  -5  15  13   13032   11154
  -3  15  13   -9537    9537
  -1  15  13  105543   23232
 -38   0  14   -7061   13525
 -36   0  14  101333   18466
 -34   0  14   23218   12089
 -32   0  14    2092   10658
 -30   0  14  139005    9113
 -28   0  14    7215    7368
 -26   0  14   -7114    9173
 -24   0  14    6953    7906
 -22   0  14   -3964    8452
 -20   0  14  417991   22210
 -18   0  14  614460   27025
 -16   0  14   -8334    8334
 -14   0  14  330944   17946
 -12   0  14   53265    9843
 -10   0  14   -7701    7701
  -8   0  14  312098   19022
  -6   0  14   62819    9882
  -4   0  14    6929    8763
  -2   0  14  476389   16664
   0   0  14   22762    5891
   2   0  14  960168   32233
   4   0  14  169105   13688
   6   0  14  809467   31309
   8   0  14 6130627  161606
  10   0  14 2977281   83625
  12   0  14  819576   34381
  14   0  14   45544   11340
  16   0  14   95456   14126
  18   0  14   14085   11171
  20   0  14  111763   18891
  22   0  14  372718   30614
  24   0  14  661396   65358
  26   0  14  841038   53986
  28   0  14    3562   13278
 -39   1  14   10773   10390
 -37   1  14   18673   10218
 -35   1  14   27736    8719
 -33   1  14   10935    6701
 -31   1  14   -8311    8311
 -29   1  14   50214    7319
 -27   1  14   14795    4851
 -25   1  14   70510    5574
 -23   1  14   10931    6380
 -21   1  14  210279   11673
 -19   1  14   14286    5948
 -17   1  14   66597    7862
 -15   1  14  219238   11204
 -13   1  14     322    6121
 -11   1  14   -5310    5310
  -9   1  14  179308   10004
  -7   1  14  161755   10028
  -5   1  14   -4396    5610
  -3   1  14   60856    4764
  -1   1  14   92956    5787
   1   1  14  102877    6899
   3   1  14  123610    8388
   5   1  14  115246    8490
   7   1  14  180434   10357
   9   1  14   54329    7464
  11   1  14   67792    8589
  13   1  14  349430   15327
  15   1  14   46406    8561
  17   1  14   12354    7755
  19   1  14   76248    9771
  21   1  14   -5460    7957
  23   1  14   -3134    8245
  25   1  14   -3806    9418
  27   1  14   92908   14467
 -38   2  14   -9950   14976
 -36   2  14   -4811   11509
 -34   2  14   33466    8073
 -32   2  14  101577    9847
 -30   2  14   57211   10354
 -28   2  14  193820   10545
 -26   2  14  241590   10462
 -24   2  14   -4468    4468
 -22   2  14  133420    7482
 -20   2  14   49269    6882
 -18   2  14   30950    6269
 -16   2  14  532083   17509
 -14   2  14    -478    5997
 -12   2  14  139794    8825
 -10   2  14  231516   11171
  -8   2  14   57939    6749
  -6   2  14  523149   15636
  -4   2  14  316737   11450
  -2   2  14  284632    9455
   0   2  14   28450    6307
   2   2  14   -4686    4686
   4   2  14   77403    7094
   6   2  14   83949    8319
   8   2  14  455976   16252
  10   2  14  680968   24243
  12   2  14  777898   25510
  14   2  14  319592   14412
  16   2  14   -7949    8050
  18   2  14   52573   10733
  20   2  14  133869   11106
  22   2  14  369221   23627
  24   2  14  329221   17930
  26   2  14  261316   16348
  28   2  14  299675   27247
 -39   3  14    -171   17449
 -37   3  14  -13518   13518
 -35   3  14   -8757    8757
 -33   3  14    6379    8813
 -31   3  14   -8591    8591
 -29   3  14   22258    6916
 -27   3  14    4049    5145
 -25   3  14   11455    6037
 -23   3  14   91156    7630
 -21   3  14  225678    9697
 -19   3  14   42545    4993
 -17   3  14   -5460    5460
 -15   3  14    9357    6739
 -13   3  14   -5782    5782
 -11   3  14   64048    7114
  -9   3  14   68701    5685
  -7   3  14      49    4589
  -5   3  14  222160   10609
  -3   3  14   16571    4898
  -1   3  14  383936   10981
   1   3  14  366016   15218
   3   3  14   12773    5464
   5   3  14   -5315    5941
   7   3  14  140992    8435
   9   3  14   13190    7582
  11   3  14  296361   15194
  13   3  14   30559    8060
  15   3  14   23663    8076
  17   3  14  178237   12600
  19   3  14   89730   15285
  21   3  14   53770    9107
  23   3  14   -1803    9069
  25   3  14   -8033    8033
  27   3  14   23760   13750
 -38   4  14   72323   10559
 -36   4  14    9910   10316
 -34   4  14   27291    8921
 -32   4  14   31039    8357
 -30   4  14   18277    6952
 -28   4  14  257364   13334
 -26   4  14  155806   10855
 -24   4  14  211034   12831
 -22   4  14  155408    8093
 -20   4  14   -4522    4522
 -18   4  14   16150    5029
 -16   4  14  257413   10084
 -14   4  14   67987    6474
 -12   4  14   76415    6088
 -10   4  14   62890    6268
  -8   4  14    9337    5307
  -6   4  14   96968    6049
  -4   4  14  221166   11052
  -2   4  14  369478   12503
   0   4  14  585327   15435
   2   4  14  229372   10833
   4   4  14  184213   10331
   6   4  14  750520   20645
   8   4  14   65963    7138
  10   4  14   42393    6793
  12   4  14  953642   24736
  14   4  14   30779    8715
  16   4  14   44359    7888
  18   4  14  125550    9853
  20   4  14   -1372    7348
  22   4  14   86489   11237
  24   4  14   28614    7775
  26   4  14  -13254   13730
 -37   5  14   83603   12296
 -35   5  14   -4114   14059
 -33   5  14   18305    8638
 -31   5  14    5326    8423
 -29   5  14   11803    7858
 -27   5  14  101596   10182
 -25   5  14   39874    7981
 -23   5  14   27133    6127
 -21   5  14   11824    5161
 -19   5  14   56146    5960
 -17   5  14   35007    6336
 -15   5  14  379499   14724
 -13   5  14  206581   10416
 -11   5  14  216688   11640
  -9   5  14  203013    8984
  -7   5  14  185003    8882
  -5   5  14  182771    9228
  -3   5  14  218182   10753
  -1   5  14  127926    8241
   1   5  14   -4706    4706
   3   5  14  130231    8864
   5   5  14  295269   14505
   7   5  14   14110    6233
   9   5  14   67439    7539
  11   5  14   36617    7643
  13   5  14  173179   11140
  15   5  14   34370   10705
  17   5  14    2885    7984
  19   5  14  201427   13739
  21   5  14   74388    9399
  23   5  14  -12038   12378
  25   5  14   -3607   13015
 -36   6  14  110040   12180
 -34   6  14   -6054   10019
 -32   6  14   79495   10281
 -30   6  14  119777   11602
 -28   6  14   56702   10811
 -26   6  14  195672   12942
 -24   6  14  204368   12655
 -22   6  14  144684    8004
 -20   6  14   20786    5966
 -18   6  14   -4553    4705
 -16   6  14    1247    4341
 -14   6  14  399296   12880
 -12   6  14  323472   11700
 -10   6  14   17782    5114
  -8   6  14  845240   21012
  -6   6  14  163483    9385
  -4   6  14  271064   12068
  -2   6  14  598453   18547
   0   6  14   -5187    5187
   2   6  14   39528    5863
   4   6  14  207624    9777
   6   6  14   -1709    6224
   8   6  14   21840    6998
  10   6  14   42958    8451
  12   6  14  247719   13159
  14   6  14  992239   31617
  16   6  14  476979   21583
  18   6  14   38913   10387
  20   6  14   67130    7554
  22   6  14   -3102   12305
  24   6  14   -9488   12562
 -35   7  14   71662   12779
 -33   7  14   -1572   11093
 -31   7  14   25874    9359
 -29   7  14    3409    8932
 -27   7  14   -8343    8343
 -25   7  14   39439    8717
 -23   7  14   82944    8384
 -21   7  14    9199    4913
 -19   7  14   23122    5706
 -17   7  14   11020    5945
 -15   7  14   86684    7544
 -13   7  14  109231    8167
 -11   7  14   46355    7047
  -9   7  14    4092    5445
  -7   7  14   28788    6237
  -5   7  14   -5389    5389
  -3   7  14    1312    5591
  -1   7  14   81853    8538
   1   7  14   -5431    5431
   3   7  14    1473    5452
   5   7  14   85793    7683
   7   7  14   49869    6278
   9   7  14   35822    8680
  11   7  14   13219    6852
  13   7  14  100344   11984
  15   7  14    3319    7394
  17   7  14    3201    8815
  19   7  14    5783    8310
  21   7  14   44782   12332
  23   7  14   -1678   11660
 -34   8  14   60248   14839
 -32   8  14   40298   17150
 -30   8  14   44251   13732
 -28   8  14   32521    9681
 -26   8  14     708    8472
 -24   8  14   31664    8734
 -22   8  14   70711    7090
 -20   8  14   36430    6295
 -18   8  14   66821    7181
 -16   8  14   31010    6824
 -14   8  14  143754    9608
 -12   8  14  112190    8197
 -10   8  14   19771    5960
  -8   8  14  103175    8359
  -6   8  14   55861    7261
  -4   8  14   28883    6372
  -2   8  14    9990    6352
   0   8  14   39936    7021
   2   8  14  219017   10554
   4   8  14  129173    8622
   6   8  14  133548    9629
   8   8  14  343021   21206
  10   8  14  484243   25684
  12   8  14  491339   24691
  14   8  14  447952   24398
  16   8  14  364783   20416
  18   8  14  185831   16923
  20   8  14   27084   11863
  22   8  14   -1564   11911
 -31   9  14   -2998   10233
 -29   9  14   90294   13683
 -27   9  14   36691   10865
 -25   9  14   -6553    7136
 -23   9  14  108722    7202
 -21   9  14   25964    6887
 -19   9  14   13030    6622
 -17   9  14    9369    6596
 -15   9  14  350857   15922
 -13   9  14   51390    7803
 -11   9  14   19814    7473
  -9   9  14    3000    6160
  -7   9  14    5536    5910
  -5   9  14  287982   14017
  -3   9  14   91967    8224
  -1   9  14   60033    9594
   1   9  14   38345    7708
   3   9  14   31678    8104
   5   9  14  139964    9738
   7   9  14    -486    6792
   9   9  14   17706    8756
  11   9  14    4512    6997
  13   9  14   61399   12123
  15   9  14   -3093    9265
  17   9  14   29828    8503
  19   9  14   -2401   11849
  21   9  14  -15343   39659
 -30  10  14   -1597   11160
 -28  10  14  127834   14613
 -26  10  14   71876   11470
 -24  10  14   14549   10663
 -22  10  14  379544   16402
 -20  10  14   63560    8920
 -18  10  14  138506    9120
 -16  10  14   97380    9458
 -14  10  14   50054    8080
 -12  10  14  198754   12432
 -10  10  14  494861   19125
  -8  10  14   14945    7116
  -6  10  14  469079   22017
  -4  10  14  317732   16981
  -2  10  14    1489    7130
   0  10  14    1319    7749
   2  10  14    6674    7762
   4  10  14    2690    7718
   6  10  14   46341   12242
   8  10  14    4113    8579
  10  10  14   14572    9260
  12  10  14   84540    8599
  14  10  14   15538   12849
  16  10  14  146745   13997
  18  10  14  121073   15343
 -27  11  14   32206   15560
 -25  11  14   -1913   11030
 -23  11  14    2513    9436
 -21  11  14   81068   11801
 -19  11  14   11426    7976
 -17  11  14    4779    7719
 -15  11  14   -7207    7207
 -13  11  14  112921   12821
 -11  11  14    7734    8394
  -9  11  14   78413   10081
  -7  11  14   58266    9193
  -5  11  14   47536    8206
  -3  11  14   22521    7395
  -1  11  14   91062   11497
   1  11  14   29292    8911
   3  11  14    5869    7574
   5  11  14   -2467    7833
   7  11  14   -4599    8324
   9  11  14   -8081    8575
  11  11  14    7514    9725
  13  11  14   -3767   11201
  15  11  14   96861   12220
 -24  12  14     941   12614
 -22  12  14   13941   16104
 -20  12  14   23498   10880
 -18  12  14  108371   11702
 -16  12  14   -2891    9179
 -14  12  14   34458   10455
 -12  12  14   -1694    9696
 -10  12  14    1987    7949
  -8  12  14  110149   10370
  -6  12  14  112688   11076
  -4  12  14   79039    9767
  -2  12  14  162455   11047
   0  12  14    7908   12530
   2  12  14   29771    8325
   4  12  14   13624    8193
   6  12  14  -10020   16290
   8  12  14   43077   10480
  10  12  14   75173   17786
  12  12  14   24838   12675
 -19  13  14    1286   13312
 -17  13  14   -2292   12586
 -15  13  14  -10066   10066
 -13  13  14   -8133    8133
 -11  13  14   -8552    8552
  -9  13  14   -2737    9178
  -7  13  14   36481   10644
  -5  13  14   -3739    9469
  -3  13  14   23283   10670
  -1  13  14  -13741   13741
   1  13  14   -8484   12676
   3  13  14  -10331   10331
   5  13  14  -10253   10253
   7  13  14   32059   13342
   9  13  14  -40527   40527
 -12  14  14  -10913   10913
 -10  14  14   11458   12499
  -8  14  14   67914   13314
  -6  14  14   76056   12116
  -4  14  14   -4159   10885
  -2  14  14   33554   14566
   0  14  14   22126   10836
   2  14  14   -1624   18192
 -37   1  15   13762   11124
 -35   1  15   -3960   12043
 -33   1  15  -10842   10842
 -31   1  15   -8525    8525
 -29   1  15   56525    7594
 -27   1  15   34092    6484
 -25   1  15  499978   19764
 -23   1  15  163375   10136
 -21   1  15   74615    8155
 -19   1  15  397385   16352
 -17   1  15  119196    8965
 -15   1  15    7105    6268
 -13   1  15  100934    8337
 -11   1  15    4588    6676
  -9   1  15   89958    9005
  -7   1  15    -487    6968
  -5   1  15   -1439    6616
  -3   1  15   64502    6701
  -1   1  15   20995    4431
   1   1  15   74157    6567
   3   1  15  163151   10048
   5   1  15  144372   10167
   7   1  15  512627   17532
   9   1  15 1557333   39396
  11   1  15  556435   22424
  13   1  15    7309    7672
  15   1  15   25078    8789
  17   1  15   -8166    8166
  19   1  15   39779   10598
  21   1  15  171463   18115
  23   1  15   91665   13105
  25   1  15   59635   12217
 -38   2  15  -20146   20146
 -36   2  15   -9995    9995
 -34   2  15   -9602    9602
 -32   2  15   -8304    8304
 -30   2  15   -7635    7635
 -28   2  15   34937   11369
 -26   2  15   18885    4547
 -24   2  15   15275    6307
 -22   2  15   36691    7042
 -20   2  15   75402    8033
 -18   2  15   15568    7146
 -16   2  15   35903    7142
 -14   2  15   28238    6593
 -12   2  15  393023   14457
 -10   2  15  171587   10403
  -8   2  15   67060    8403
  -6   2  15   72134    8790
  -4   2  15  389699   13361
  -2   2  15  194605    9021
   0   2  15   95440    7494
   2   2  15  113884    7583
   4   2  15   -5839    5839
   6   2  15   18585    7118
   8   2  15   10002    6873
  10   2  15   50839    8355
  12   2  15  118846    9940
  14   2  15   30245    8964
  16   2  15    2424    9448
  18   2  15   80229   11849
  20   2  15   -5754    8540
  22   2  15   18306   10722
  24   2  15  -12308   14874
 -37   3  15   43138   15738
 -35   3  15   -9484   11247
 -33   3  15   43161   13431
 -31   3  15   10011   10180
 -29   3  15   -7916    7916
 -27   3  15  268198   13403
 -25   3  15   30014    6832
 -23   3  15   25618    5413
 -21   3  15  408210   17422
 -19   3  15   -6389    6389
 -17   3  15  104693    8975
 -15   3  15  255101   12036
 -13   3  15   84688    8008
 -11   3  15  524721   17710
  -9   3  15  586284   19055
  -7   3  15  357595   17063
  -5   3  15 2012823   47761
  -3   3  15  325851   12890
  -1   3  15     983    4537
   1   3  15   37157    6533
   3   3  15  133146    9097
   5   3  15  131635    8136
   7   3  15  605469   18977
   9   3  15  164640   10779
  11   3  15  262113   13994
  13   3  15  635487   27520
  15   3  15   11332    8525
  17   3  15   96959   12704
  19   3  15  181917   14696
  21   3  15   -9493    9493
  23   3  15  302597   18626
  25   3  15  178327   20153
 -36   4  15  -11143   11143
 -34   4  15  -12063   12063
 -32   4  15   27459    7631
 -30   4  15   -7393    7393
 -28   4  15   -5896    6544
 -26   4  15   11036    9361
 -24   4  15   -6561    6561
 -22   4  15  143616    8610
 -20   4  15    -444    5024
 -18   4  15   93415    6703
 -16   4  15   17853    6541
 -14   4  15  158279    9766
 -12   4  15   80193    6452
 -10   4  15   27969    5761
  -8   4  15  165801    9895
  -6   4  15   46433    7756
  -4   4  15  140619    8064
  -2   4  15   -2776    5667
   0   4  15    7404    5594
   2   4  15   -4537    5234
   4   4  15  129380    9624
   6   4  15    9899    5922
   8   4  15   -2623    5818
  10   4  15   42931    8373
  12   4  15  190021   12219
  14   4  15  120754   11593
  16   4  15   72894    9793
  18   4  15   49772    9757
  20   4  15   -3314   10993
  22   4  15     228   11499
  24   4  15   30957   14038
 -35   5  15   22600   12134
 -33   5  15    1821   14750
 -31   5  15   65704   11558
 -29   5  15   23383   12022
 -27   5  15   92396   11678
 -25   5  15   78086    7859
 -23   5  15  166770   10213
 -21   5  15   34303    8268
 -19   5  15   23756    5968
 -17   5  15    4345    5702
 -15   5  15   17814    5274
 -13   5  15   74970    7750
 -11   5  15   91717    7728
  -9   5  15  692240   20106
  -7   5  15 1599525   35001
  -5   5  15  750716   19415
  -3   5  15  485614   15329
  -1   5  15  124444    8497
   1   5  15   12028    5278
   3   5  15   10910    6537
   5   5  15   33901    7053
   7   5  15   -6105    6105
   9   5  15   -1412    6966
  11   5  15  247114   12657
  13   5  15  254416   14920
  15   5  15  218013   13599
  17   5  15  115666   11097
  19   5  15   41558   13965
  21   5  15   55117    9908
  23   5  15   58873   14153
 -34   6  15   -5254   13937
 -32   6  15   -7947   10630
 -30   6  15    2885    9265
 -28   6  15   16627   10633
 -26   6  15   57149    8594
 -24   6  15   36062    8417
 -22   6  15    4717    5811
 -20   6  15    -949    6185
 -18   6  15    1054    4429
 -16   6  15   18518    5104
 -14   6  15   -3985    5747
 -12   6  15   25338    5540
 -10   6  15   21251    6441
  -8   6  15   29702    6466
  -6   6  15    2558    5877
  -4   6  15    1313    5183
  -2   6  15    3906    6119
   0   6  15   12776    6444
   2   6  15   -5097    5097
   4   6  15   -4246    6424
   6   6  15   -8286    8286
   8   6  15   18552    7624
  10   6  15   22958   10374
  12   6  15   29812    8607
  14   6  15   58142    9172
  16   6  15   46208   11267
  18   6  15    6809    9571
  20   6  15  114951   12619
  22   6  15   49281   12827
 -33   7  15   27085   13447
 -31   7  15    1572   10590
 -29   7  15   17634   15328
 -27   7  15   -8724    8724
 -25   7  15   93859    9196
 -23   7  15  484707   17749
 -21   7  15  303295   14154
 -19   7  15   74190   10687
 -17   7  15    6296    7014
 -15   7  15    4385    5993
 -13   7  15  213415   11059
 -11   7  15  262132   11737
  -9   7  15  359461   16195
  -7   7  15  319567   12704
  -5   7  15    6377    5997
  -3   7  15  116650    8438
  -1   7  15   72573    8529
   1   7  15   -3513    6515
   3   7  15   39576    6535
   5   7  15  237194   14738
   7   7  15  100846   10701
   9   7  15  677290   22767
  11   7  15  369892   24388
  13   7  15  139537   10900
  15   7  15  726654   25956
  17   7  15   33134   11172
  19   7  15    3294   10843
  21   7  15  105562   14042
 -32   8  15   33160   20311
 -30   8  15  -11960   11960
 -28   8  15    8395    9116
 -26   8  15   17548    9523
 -24   8  15   17887    8291
 -22   8  15   82981   11292
 -20   8  15    9383    6878
 -18   8  15   -6893    6893
 -16   8  15   -5719    6819
 -14   8  15   38691    7242
 -12   8  15   27164    8789
 -10   8  15   83870    7967
  -8   8  15   55484    8319
  -6   8  15  185807   10759
  -4   8  15     396    5265
  -2   8  15    8732    7323
   0   8  15  128607   10001
   2   8  15    4844    8460
   4   8  15    2047    6884
   6   8  15   28664    7938
   8   8  15   96985    9727
  10   8  15     344    8665
  12   8  15   -7456    8710
  14   8  15   24595    8939
  16   8  15  142278   14945
  18   8  15     649   12233
 -29   9  15    2358   11048
 -27   9  15   69846   11888
 -25   9  15   70081   10499
 -23   9  15  122575   11317
 -21   9  15  247839   12879
 -19   9  15   34504    9143
 -17   9  15     244    7983
 -15   9  15   -9130    9130
 -13   9  15    7787    8544
 -11   9  15  345483   18350
  -9   9  15  253681   14555
  -7   9  15   28286    6920
  -5   9  15   68980    7934
  -3   9  15   17816    7142
  -1   9  15   49119    8225
   1   9  15  154747   11402
   3   9  15   64278    8625
   5   9  15   54746    9305
   7   9  15   56264    9514
   9   9  15     296    8835
  11   9  15   77636   10859
  13   9  15  168552   13735
  15   9  15   57367   12424
  17   9  15  137297   14875
 -26  10  15   -2697   13771
 -24  10  15   11543   16510
 -22  10  15   68960   13197
 -20  10  15  104735    9522
 -18  10  15   16279    8532
 -16  10  15   -2109    7488
 -14  10  15   22143    8533
 -12  10  15   27601    8186
 -10  10  15   73458    9214
  -8  10  15    3719    7223
  -6  10  15   11552    7470
  -4  10  15    7430    6810
  -2  10  15    3284    7289
   0  10  15   -7744    8078
   2  10  15   -7178   11495
   4  10  15   -1672    9176
   6  10  15   -8190    8190
   8  10  15    5569    9795
  10  10  15   -8981    8981
  12  10  15   -9514   12334
  14  10  15  -11257   11439
 -25  11  15  -19685   22869
 -23  11  15    7206   10715
 -21  11  15   52843   12512
 -19  11  15   21664   12800
 -17  11  15   58995    8903
 -15  11  15    4738    9438
 -13  11  15   -1651    9561
 -11  11  15  160938   12260
  -9  11  15  301611   15712
  -7  11  15  250133   14665
  -5  11  15  340431   23218
  -3  11  15   34799   12222
  -1  11  15   27240    9811
   1  11  15   50556   12303
   3  11  15   58632   14831
   5  11  15   59025   11711
   7  11  15   31558   13789
   9  11  15   30691   11455
  11  11  15   60348   11887
 -20  12  15   72158   12427
 -18  12  15    3309   14184
 -16  12  15  -11114   11114
 -14  12  15  -10359   10359
 -12  12  15   -8943    8943
 -10  12  15     998   10956
  -8  12  15   46722   10606
  -6  12  15   12242   10765
  -4  12  15   22315   10044
  -2  12  15   -8735   10037
   0  12  15   23811   11005
   2  12  15    -878   10165
   4  12  15    7436   14281
   6  12  15   -8358   11017
   8  12  15    3718   10630
 -15  13  15  -19406   19406
 -13  13  15    6243   10276
 -11  13  15  -10044   12011
  -9  13  15    3570   13577
  -7  13  15  159545   16834
  -5  13  15    -682   13355
  -3  13  15   -5091   11023
  -1  13  15   -5065   16065
   1  13  15    6354   15711
   3  13  15   67739   43422
 -36   0  16   25632   28151
 -34   0  16  155527   31016
 -32   0  16   -9933    9933
 -30   0  16   19526   14951
 -28   0  16  119594   13060
 -26   0  16   -8553    8553
 -24   0  16  631497   33198
 -22   0  16  145041   14563
 -20   0  16   76174   12213
 -18   0  16 1491744   51491
 -16   0  16  234483   18576
 -14   0  16   50348   10619
 -12   0  16  245744   18047
 -10   0  16   19793    9933
  -8   0  16    9694   12545
  -6   0  16  541292   27347
  -4   0  16  706944   34049
  -2   0  16  844884   31014
   0   0  16  734562   29608
   2   0  16    5174    8406
   4   0  16   -7559    7559
   6   0  16   27661    9808
   8   0  16   -9236    9236
  10   0  16  233855   18631
  12   0  16   -9218   11022
  14   0  16   25474   14173
  16   0  16  140301   19745
  18   0  16  213420   21758
  20   0  16  229426   36453
  22   0  16   59501   20103
 -35   1  16   26070   13102
 -33   1  16   14647   14043
 -31   1  16   -7402    7402
 -29   1  16   -8723    8723
 -27   1  16   68019    9045
 -25   1  16   74733    8091
 -23   1  16   30385    7388
 -21   1  16   -6424    6424
 -19   1  16  199733   11691
 -17   1  16   61157    8245
 -15   1  16    7742    6505
 -13   1  16   52289    7846
 -11   1  16   62582    7920
  -9   1  16   45514    8365
  -7   1  16   19237    8216
  -5   1  16   33665    8255
  -3   1  16  113105    9507
  -1   1  16  261825   10555
   1   1  16  229499   12878
   3   1  16   -3318    5686
   5   1  16   -6649    6649
   7   1  16   -5792    7002
   9   1  16   48535    9264
  11   1  16   -6383    7556
  13   1  16    4896    9122
  15   1  16   10954    9104
  17   1  16   -7314    9430
  19   1  16   67332   11865
  21   1  16    1474   11369
  23   1  16  -11095   11095
 -36   2  16   -5821   15349
 -34   2  16  -12756   12756
 -32   2  16   10482    9656
 -30   2  16  -11485   11485
 -28   2  16   -9207    9207
 -26   2  16  140131   12381
 -24   2  16   36787    7256
 -22   2  16   32565    7761
 -20   2  16  531254   19319
 -18   2  16   86741    8913
 -16   2  16  423842   15960
 -14   2  16  239539   12401
 -12   2  16   -2909    6755
 -10   2  16   27729    7749
  -8   2  16   36119    8159
  -6   2  16   22009    8290
  -4   2  16    1797    4759
  -2   2  16   31935    7103
   0   2  16  248669   10963
   2   2  16   92210    7434
   4   2  16  470374   18061
   6   2  16  204212   12713
   8   2  16   75401    9320
  10   2  16  180021   11809
  12   2  16  197472   12582
  14   2  16  282923   16442
  16   2  16  211106   14990
  18   2  16  423798   22981
  20   2  16  262348   19915
  22   2  16   17341   11506
 -35   3  16  -17302   17302
 -33   3  16   -9737    9737
 -31   3  16   -9158    9158
 -29   3  16   -6462    6462
 -27   3  16   -5756    5756
 -25   3  16   -4691    6947
 -23   3  16    6236    7220
 -21   3  16   53003    7581
 -19   3  16   -7214    7400
 -17   3  16   -6039    6418
 -15   3  16   45543    8137
 -13   3  16  140099   11731
 -11   3  16   12690    6802
  -9   3  16  107821   10096
  -7   3  16  305719   17730
  -5   3  16  418772   19170
  -3   3  16  278312   11961
  -1   3  16   21535    6102
   1   3  16   29921    6487
   3   3  16   -3514    5907
   5   3  16  195630   12435
   7   3  16   27294    8330
   9   3  16   -1841    7589
  11   3  16  202110   14510
  13   3  16   13384    9167
  15   3  16   32209    9584
  17   3  16   42966   11667
  19   3  16   55628   12239
  21   3  16  -10144   10144
 -34   4  16  -11485   11485
 -32   4  16  -11311   11311
 -30   4  16   -9126   13364
 -28   4  16   -2477    8206
 -26   4  16   40324    7725
 -24   4  16   -5941    5941
 -22   4  16   73779    8411
 -20   4  16   77508    8751
 -18   4  16   -2208    6821
 -16   4  16  169108   11079
 -14   4  16  126249   10551
 -12   4  16   60995    8272
 -10   4  16  945191   26736
  -8   4  16  674145   20611
  -6   4  16  270306   13917
  -4   4  16   67762    7478
  -2   4  16    9069    6160
   0   4  16   -6514    6514
   2   4  16   99616    8271
   4   4  16   -5315    7364
   6   4  16    2735    7001
   8   4  16   -5871    6197
  10   4  16   65771    9089
  12   4  16  215472   13590
  14   4  16  482237   21781
  16   4  16   33708    9878
  18   4  16  104743   13223
  20   4  16  -10979   10979
 -33   5  16   -7649   11163
 -31   5  16    7469   10769
 -29   5  16    7342    8597
 -27   5  16   -8587    8587
 -25   5  16   14166    9376
 -23   5  16   -6186    6186
 -21   5  16   -6827    6827
 -19   5  16   -5417    5417
 -17   5  16  100746    7952
 -15   5  16   -5810    5810
 -13   5  16   40588    6807
 -11   5  16   93527   12574
  -9   5  16   41891    9703
  -7   5  16   30748    9081
  -5   5  16   80364    6583
  -3   5  16   -4381    5926
  -1   5  16   46055    8348
   1   5  16   83520    8991
   3   5  16   18471    6820
   5   5  16    5728    9183
   7   5  16   63329    9010
   9   5  16  164444   14600
  11   5  16   11985    7936
  13   5  16   54635   11636
  15   5  16  125076   14195
  17   5  16  156420   14748
  19   5  16    2343   12387
  21   5  16   76423   71792
 -32   6  16   -7130   11594
 -30   6  16   80010   13784
 -28   6  16  113343   14243
 -26   6  16   22347    9555
 -24   6  16  139195   10350
 -22   6  16   23092    8985
 -20   6  16   -7683    7683
 -18   6  16   54201    8473
 -16   6  16   -6576    6576
 -14   6  16   83172    9069
 -12   6  16  310809   14800
 -10   6  16   72953   10608
  -8   6  16  188057    9620
  -6   6  16  137203   10792
  -4   6  16     513    5800
  -2   6  16  157636   10302
   0   6  16  140844    9701
   2   6  16   -1964    7492
   4   6  16  118437   10821
   6   6  16   64181    9346
   8   6  16    8761    8372
  10   6  16  283123   14757
  12   6  16   -7500    7933
  14   6  16   43549   10697
  16   6  16  682840   44901
  18   6  16   81030   15350
 -31   7  16   -8463   13307
 -29   7  16   11731    9232
 -27   7  16   39131   10282
 -25   7  16   13916    8466
 -23   7  16   56057    6927
 -21   7  16   27804   10362
 -19   7  16   -7083    7083
 -17   7  16   -1423    8734
 -15   7  16   31054    7295
 -13   7  16   28677    9431
 -11   7  16   24884    6515
  -9   7  16    7376    6732
  -7   7  16    8146    7271
  -5   7  16    7633    7519
  -3   7  16   17823    6793
  -1   7  16  130253   10592
   1   7  16   31322    7823
   3   7  16   30901    8769
   5   7  16   17152   10027
   7   7  16    7652    8796
   9   7  16   -5774   11623
  11   7  16   40911   11172
  13   7  16   -3864   11804
  15   7  16    9960   12943
  17   7  16   12935   13040
 -28   8  16   52520   10522
 -26   8  16  116388   11821
 -24   8  16   96489   10154
 -22   8  16   71944    8695
 -20   8  16   -2024    9567
 -18   8  16    8161    7670
 -16   8  16   12611    6914
 -14   8  16   55099    8514
 -12   8  16  250787   14549
 -10   8  16   90857   10147
  -8   8  16   88034    8719
  -6   8  16  229980   12436
  -4   8  16  316573   15029
  -2   8  16  568571   22016
   0   8  16  199132   13275
   2   8  16   50358    8250
   4   8  16   73088    9214
   6   8  16   26929   12554
   8   8  16   62469   10541
  10   8  16   48320   12088
  12   8  16   58062   12559
  14   8  16  119106   15582
  16   8  16  129568   15564
 -27   9  16   19141   11225
 -25   9  16   43569   11503
 -23   9  16   39970   10412
 -21   9  16   33710    9324
 -19   9  16   -3827   10280
 -17   9  16     -73    7598
 -15   9  16   83574   11935
 -13   9  16  115361   11594
 -11   9  16   44459    8073
  -9   9  16   41900    9542
  -7   9  16   33093    7736
  -5   9  16  117575   10155
  -3   9  16   16745    8627
  -1   9  16  199241   13152
   1   9  16  146861   12034
   3   9  16    6021   11017
   5   9  16    5729   12177
   7   9  16   -3982   13184
   9   9  16   -9230    9230
  11   9  16   -1030   15165
  13   9  16   -1261   10140
 -24  10  16    3154    9974
 -22  10  16   21565   12204
 -20  10  16  128645   10838
 -18  10  16   -6264    9231
 -16  10  16   29535   16802
 -14  10  16    -936    9300
 -12  10  16    -868    8666
 -10  10  16  200899   13065
  -8  10  16   74775    9484
  -6  10  16   45715    8760
  -4  10  16  437715   28914
  -2  10  16   37376    8677
   0  10  16   70089    9118
   2  10  16  254705   20670
   4  10  16   57407   11183
   6  10  16   83061   11891
   8  10  16  171528   16086
  10  10  16     869   10572
 -21  11  16   -6804   21005
 -19  11  16  111627   15824
 -17  11  16   -8010   14249
 -15  11  16   -6785   10569
 -13  11  16   -9911    9911
 -11  11  16    2550    9909
  -9  11  16   41655   10097
  -7  11  16    9445    9633
  -5  11  16   85272   11927
  -3  11  16   37364   14397
  -1  11  16   20178   12287
   1  11  16    2304    9079
   3  11  16     825    9468
   5  11  16    6710   10348
   7  11  16   -4466   14598
 -14  12  16   -3188   13523
 -12  12  16   25368   10136
 -10  12  16    1120   10636
  -8  12  16   73702   13408
  -6  12  16   78000   14972
  -4  12  16   -8856    8856
  -2  12  16  -13626   13626
   0  12  16   13919   13692
   2  12  16    7679   10818
 -33   1  17   33583   13707
 -31   1  17  -11007   11007
 -29   1  17    9968    9315
 -27   1  17   -2428    6950
 -25   1  17   13028    6951
 -23   1  17  217964   12432
 -21   1  17   -2991    7715
 -19   1  17  112258   10160
 -17   1  17  283183   14018
 -15   1  17  111431    9817
 -13   1  17   83623    9550
 -11   1  17    7532    8384
  -9   1  17   17910    7932
  -7   1  17  127514   12487
  -5   1  17  681118   24548
  -3   1  17  563371   19670
  -1   1  17  512510   15737
   1   1  17  278088   14224
   3   1  17   33022    8388
   5   1  17  114720   10617
   7   1  17   -2194    7127
   9   1  17   -2544    8963
  11   1  17  189632   12564
  13   1  17   36132   11529
  15   1  17   86433   13925
  17   1  17   54614   13452
  19   1  17   19605   12082
 -32   2  17   43370   14803
 -30   2  17   -4220   11972
 -28   2  17  -10836   10836
 -26   2  17   -7144    8952
 -24   2  17   31359    7534
 -22   2  17  107253   10848
 -20   2  17    4531    7501
 -18   2  17   22709    8752
 -16   2  17   62059    9166
 -14   2  17   59065    8706
 -12   2  17   41278    8773
 -10   2  17   16598    8286
  -8   2  17  157737   12096
  -6   2  17  127823   11186
  -4   2  17   38317   10089
  -2   2  17   19424    5997
   0   2  17   39098    6256
   2   2  17   -3140    7501
   4   2  17  210371   12107
   6   2  17    -183    8923
   8   2  17    -814    8195
  10   2  17    6823    8140
  12   2  17  209952   15520
  14   2  17    7681   10446
  16   2  17   76250   12680
  18   2  17   -9964    9964
  20   2  17   -2316   46607
 -33   3  17  -10797   10797
 -31   3  17   71581   12245
 -29   3  17   -7189   13845
 -27   3  17   23688    9989
 -25   3  17  120749   10158
 -23   3  17   -6356    6356
 -21   3  17  227569   14392
 -19   3  17  256458   14095
 -17   3  17   40900    8462
 -15   3  17  560457   20105
 -13   3  17  170490   12265
 -11   3  17   52013    8821
  -9   3  17  218336   16182
  -7   3  17   24564   11958
  -5   3  17    7523    9449
  -3   3  17  134751   10028
  -1   3  17  288563   13039
   1   3  17  397518   15692
   3   3  17   82965    8105
   5   3  17  151467   11993
   7   3  17    -867    8746
   9   3  17   37383    8821
  11   3  17   27116    9613
  13   3  17  406548   21111
  15   3  17   58786   11793
  17   3  17   -9867    9867
  19   3  17   45886   14010
 -32   4  17   -8633   13602
 -30   4  17   39735   14578
 -28   4  17    2382    9096
 -26   4  17    5720   14295
 -24   4  17   16444   11188
 -22   4  17     289    7823
 -20   4  17   67887   10301
 -18   4  17   78468    9416
 -16   4  17   26620    8009
 -14   4  17  150113   12024
 -12   4  17   23342    9417
 -10   4  17  145849   12642
  -8   4  17  190845   14563
  -6   4  17  450194   22013
  -4   4  17   35534    7241
  -2   4  17   23377    8969
   0   4  17    6430    8411
   2   4  17    4519    7750
   4   4  17   -6762    7156
   6   4  17   -6871    6871
   8   4  17   14202    9045
  10   4  17   12779    9939
  12   4  17   -1843    9463
  14   4  17   89460   12170
  16   4  17   22617   12928
  18   4  17   59052   15287
 -31   5  17  -10994   10994
 -29   5  17   62184   10975
 -27   5  17   25061   13942
 -25   5  17     193    7775
 -23   5  17   51262   12794
 -21   5  17   31315   11348
 -19   5  17   80496    9658
 -17   5  17   64416    9605
 -15   5  17  360578   21386
 -13   5  17  848293   27920
 -11   5  17  378897   19437
  -9   5  17  195170   15694
  -7   5  17   17783    7849
  -5   5  17   11782    8992
  -3   5  17   16103    6218
  -1   5  17   44937    9524
   1   5  17  173651   14331
   3   5  17  170142   12580
   5   5  17    -224    7828
   7   5  17   -1752    7604
   9   5  17   10246    8378
  11   5  17  204771   20173
  13   5  17  187320   14798
  15   5  17  339194   32664
  17   5  17  250080   17784
 -30   6  17    5677   14887
 -28   6  17    1605   15637
 -26   6  17   -3030   11117
 -24   6  17    2439   16230
 -22   6  17   -6526    9022
 -20   6  17   -9009    9009
 -18   6  17    7453    8774
 -16   6  17   -7780    7780
 -14   6  17   25913    7966
 -12   6  17   59200    9366
 -10   6  17   31110    8564
  -8   6  17   25894    8344
  -6   6  17   -5207    5477
  -4   6  17  138945   12137
  -2   6  17   64713   10157
   0   6  17  242294   19539
   2   6  17   29593   10306
   4   6  17    9973    8448
   6   6  17   58770   12110
   8   6  17   -2101    8863
  10   6  17   16826   12118
  12   6  17   -1722   10324
  14   6  17   18642   11935
  16   6  17   12633   13884
 -27   7  17   22693   12066
 -25   7  17  -11024   12084
 -23   7  17   43574   12179
 -21   7  17   12140   10055
 -19   7  17    1278   10371
 -17   7  17  112167   10355
 -15   7  17   -7477    7477
 -13   7  17   11606   10904
 -11   7  17  156897   12984
  -9   7  17    3366    9607
  -7   7  17   47852    8837
  -5   7  17  108251   11766
  -3   7  17   19884    7752
  -1   7  17  246835   16520
   1   7  17  112299   12527
   3   7  17   17399    8714
   5   7  17  273503   18477
   7   7  17   75460   12507
   9   7  17    4889   10844
  11   7  17   18359   11972
  13   7  17  -11906   11906
 -26   8  17   20103   13069
 -24   8  17   -6916    9194
 -22   8  17   19740   14907
 -20   8  17   -4250   11812
 -18   8  17   -6640   11109
 -16   8  17    4742    8500
 -14   8  17   12438   11134
 -12   8  17   -6868    6868
 -10   8  17   73323   10386
  -8   8  17   11747    9181
  -6   8  17   16558    7663
  -4   8  17   61282   10688
  -2   8  17   29093    8728
   0   8  17     191    8457
   2   8  17    5352   10649
   4   8  17   95768   13333
   6   8  17    -448   11028
   8   8  17  -13180   13180
  10   8  17   30138   12031
  12   8  17   -3279   15852
 -23   9  17  -11155   14618
 -21   9  17   66589   11582
 -19   9  17   -2711    9428
 -17   9  17    6136   11037
 -15   9  17   14336   15832
 -13   9  17   -9156    9156
 -11   9  17    9817    7861
  -9   9  17  135980   13416
  -7   9  17   33228    9254
  -5   9  17   52249   10300
  -3   9  17  419700   37339
  -1   9  17   15018   11549
   1   9  17    3140   10511
   3   9  17  160820   20511
   5   9  17    2167   16809
   7   9  17  143038   16856
   9   9  17   10405   15985
 -20  10  17    5065   12788
 -18  10  17   14196   13023
 -16  10  17   13662   15713
 -14  10  17   28006   11612
 -12  10  17  -10693   10693
 -10  10  17   12159   15099
  -8  10  17   56779   10647
  -6  10  17   69463   13093
  -4  10  17   13012    9319
  -2  10  17   32895   14270
   0  10  17   -8880    8880
   2  10  17   12713   10713
   4  10  17   -2765   16413
   6  10  17   33371   13765
 -15  11  17  -29817   29817
 -13  11  17  -10004   10004
 -11  11  17    4533   13601
  -9  11  17   13078   14897
  -7  11  17   12403   10331
  -5  11  17   89222   13783
  -3  11  17  101107   11729
  -1  11  17   66592   11571
   1  11  17   46607   44001
 -30   0  18  -14290   14290
 -28   0  18  118126   24412
 -26   0  18   -2055   10979
 -24   0  18  144889   15445
 -22   0  18  230259   21279
 -20   0  18    -979   11828
 -18   0  18  139428   15639
 -16   0  18  219426   20434
 -14   0  18   45319   15684
 -12   0  18    9310   18470
 -10   0  18   26665   13145
  -8   0  18   96380   17792
  -6   0  18  510354   31301
  -4   0  18 1065769   39679
  -2   0  18  264353   19494
   0   0  18  370778   22016
   2   0  18   74791   13804
   4   0  18   77595   11814
   6   0  18  345592   24562
   8   0  18    7117   12308
  10   0  18   20672   14435
  12   0  18  202446   24214
  14   0  18    4125   14513
  16   0  18  102563   19806
 -31   1  18   -7975   14401
 -29   1  18   16932    9138
 -27   1  18   18283    8819
 -25   1  18     937    8397
 -23   1  18    7052    8766
 -21   1  18   40422    8860
 -19   1  18   -3610    7641
 -17   1  18   26882    8578
 -15   1  18  119129   11354
 -13   1  18   50952   10105
 -11   1  18   34713   10647
  -9   1  18   38743    9417
  -7   1  18   36095    9372
  -5   1  18   57087   10665
  -3   1  18   45126    7673
  -1   1  18   60861   12056
   1   1  18   15292    8321
   3   1  18   65603    9278
   5   1  18  155130   12466
   7   1  18    6733    8701
   9   1  18   41517    9715
  11   1  18  102580   12612
  13   1  18  -11039   11039
  15   1  18   -6815   12129
 -30   2  18   -1723   15014
 -28   2  18   -6073    9659
 -26   2  18   44923    9043
 -24   2  18   60551   10176
 -22   2  18   23627    8064
 -20   2  18   52504    9355
 -18   2  18  113860   10956
 -16   2  18  143532   11368
 -14   2  18  262483   14617
 -12   2  18  230269   16071
 -10   2  18  172827   13235
  -8   2  18  336492   20369
  -6   2  18  389461   19400
  -4   2  18  404250   17995
  -2   2  18  261036   12315
   0   2  18   50129    5997
   2   2  18   82344   10144
   4   2  18  144116   10740
   6   2  18   84272   10092
   8   2  18  111683   11033
  10   2  18   12907    9883
  12   2  18  -11024   11024
  14   2  18   -9880    9880
  16   2  18  -10471   10471
 -29   3  18   -1409   11148
 -27   3  18   -4392   12589
 -25   3  18   13822   13128
 -23   3  18   -4227    8666
 -21   3  18   14547    8136
 -19   3  18   18681    8449
 -17   3  18   33349    8773
 -15   3  18    4064    8017
 -13   3  18   18229   10815
 -11   3  18    3816    8785
  -9   3  18   36238   10449
  -7   3  18   47396   10062
  -5   3  18   54169   11028
  -3   3  18  145115   11314
  -1   3  18   -3096    5849
   1   3  18   23759    7349
   3   3  18    8423    6895
   5   3  18   -1929    7177
   7   3  18   25013   11990
   9   3  18    9187    9261
  11   3  18   -2164   11193
  13   3  18   -9651    9651
  15   3  18  -10016   10016
 -28   4  18   11770   13224
 -26   4  18   62246   12488
 -24   4  18   53004   13631
 -22   4  18   42710   10414
 -20   4  18  353697   17848
 -18   4  18  172023   14092
 -16   4  18    2270    9012
 -14   4  18  121323   13187
 -12   4  18   -9487    9487
 -10   4  18    -166    9514
  -8   4  18   96059   13105
  -6   4  18   34645    8720
  -4   4  18  281464   14436
  -2   4  18  463823   24587
   0   4  18   32991    8293
   2   4  18  104579   10572
   4   4  18    8487    7725
   6   4  18   -8556    8556
   8   4  18  275114   15184
  10   4  18   65095   12925
  12   4  18   -8906   10417
  14   4  18   -4248   12372
 -27   5  18   39483   13344
 -25   5  18   -4378   13270
 -23   5  18   18466   11412
 -21   5  18   17905   11345
 -19   5  18  174586   12136
 -17   5  18  209068   15124
 -15   5  18   12957    9724
 -13   5  18  152933   15210
 -11   5  18   21361   10341
  -9   5  18  175382   17512
  -7   5  18    8838   10160
  -5   5  18  175089   15742
  -3   5  18  128843   15499
  -1   5  18   24975   13284
   1   5  18   49301   11636
   3   5  18   43697   10561
   5   5  18  119519   14575
   7   5  18  117500   12338
   9   5  18    6647   12684
  11   5  18   11364   11512
  13   5  18   15157   11209
 -26   6  18    9401   11502
 -24   6  18    7800   13249
 -22   6  18   75091   15130
 -20   6  18   14973   12503
 -18   6  18  228640   21015
 -16   6  18  155831   12288
 -14   6  18   -1894    7420
 -12   6  18  129227   12260
 -10   6  18  151105   17211
  -8   6  18   29135   11126
  -6   6  18  147973   16736
  -4   6  18   23912    9386
  -2   6  18   37797    9556
   0   6  18  190203   17076
   2   6  18   11437   11656
   4   6  18    -194   10624
   6   6  18  134996   21220
   8   6  18   69197   11295
  10   6  18  181746   19476
  12   6  18  175088   18458
 -25   7  18  -13469   20602
 -23   7  18   18415   11696
 -21   7  18   25493   13065
 -19   7  18   17210   14812
 -17   7  18   18757   18107
 -15   7  18    4204   15449
 -13   7  18  -10121   12701
 -11   7  18    6457   12547
  -9   7  18   14340   10347
  -7   7  18   61918   11172
  -5   7  18    9275    9455
  -3   7  18   44436   10796
  -1   7  18  131813   11423
   1   7  18    2215   13612
   3   7  18  -11670   11670
   5   7  18   26038   11419
   7   7  18  -11570   11570
   9   7  18   32355   13972
 -22   8  18   27895   17831
 -20   8  18   51842   14293
 -18   8  18    2689   16325
 -16   8  18  -12046   12046
 -14   8  18    3140   14217
 -12   8  18   20952   11774
 -10   8  18   19416    8554
  -8   8  18   34890   11481
  -6   8  18   34786   10389
  -4   8  18   10894    9426
  -2   8  18   37829   17714
   0   8  18    7723   17789
   2   8  18  -11522   11522
   4   8  18    9712   16029
   6   8  18   10341   19367
 -17   9  18    3117   16547
 -15   9  18   35488   14927
 -13   9  18    5228   18751
 -11   9  18     906   12129
  -9   9  18   15692    9679
  -7   9  18   18654   10314
  -5   9  18    2299   10292
  -3   9  18   28666   12753
  -1   9  18    7780   10733
   1   9  18    -330   15826
   3   9  18   -6350   13968
 -12  10  18  -32422   32422
 -10  10  18   35369   18120
  -8  10  18  205655   15770
  -6  10  18   39466   11144
  -4  10  18   60979   11101
 -27   1  19   39249   11664
 -25   1  19  -11087   11087
 -23   1  19  173729   17973
 -21   1  19  109086   13751
 -19   1  19   13606    9182
 -17   1  19   94503   11985
 -15   1  19   72804   11014
 -13   1  19   53299   10828
 -11   1  19  110366   14475
  -9   1  19  116740   13570
  -7   1  19  164006   12644
  -5   1  19  237650   17446
  -3   1  19  249302   15295
  -1   1  19  203502   17048
   1   1  19  415397   16023
   3   1  19  264324   14019
   5   1  19  371267   21717
   7   1  19  234622   15472
   9   1  19   -2167   10371
  11   1  19   18088   11613
 -26   2  19   16282   12228
 -24   2  19   85581   14138
 -22   2  19   23795   11717
 -20   2  19   21991    9635
 -18   2  19   11864    8736
 -16   2  19   58875   11970
 -14   2  19  171084   14927
 -12   2  19   44818   11449
 -10   2  19   -3647   10880
  -8   2  19   18907   10401
  -6   2  19   22424   11177
  -4   2  19  121434   14208
  -2   2  19   36971    9924
   0   2  19    8404    7842
   2   2  19   50408    8680
   4   2  19   22575   10394
   6   2  19    8616    9773
   8   2  19   57638   11849
  10   2  19   51693   11730
  12   2  19   19552   16117
 -27   3  19  -34593   34593
 -25   3  19   53987   12546
 -23   3  19   21021   10066
 -21   3  19    4113    9843
 -19   3  19   70448   11512
 -17   3  19   40727   10132
 -15   3  19   69367   10870
 -13   3  19  343630   25191
 -11   3  19   82303   17425
  -9   3  19  127968   14370
  -7   3  19  156969   14883
  -5   3  19   28949   10852
  -3   3  19   57654   10902
  -1   3  19  177435   11780
   1   3  19  142939   14111
   3   3  19  601043   39587
   5   3  19   72154   12796
   7   3  19    -490   10209
   9   3  19  139239   16136
  11   3  19   47760   12318
 -24   4  19    5624   15120
 -22   4  19  -10359   10359
 -20   4  19   14530   13490
 -18   4  19  -10561   11298
 -16   4  19    2007   11763
 -14   4  19   48968   14742
 -12   4  19  118920   13883
 -10   4  19   84725   12710
  -8   4  19   29645   11097
  -6   4  19   40903   12361
  -4   4  19   27130    9688
  -2   4  19   60839   10397
   0   4  19  145893   14450
   2   4  19    4886   10219
   4   4  19    4498   11715
   6   4  19    8725   13583
   8   4  19   50552   16490
  10   4  19    4603   10980
 -23   5  19   22548   11610
 -21   5  19   34275   12147
 -19   5  19    6694   11668
 -17   5  19    3275    9977
 -15   5  19   15859   15144
 -13   5  19  285895   37313
 -11   5  19  222738   17114
  -9   5  19  135359   13597
  -7   5  19   63528   12320
  -5   5  19   30343   10676
  -3   5  19    -164   10969
  -1   5  19   37247    7843
   1   5  19   58176   11631
   3   5  19  124478   17597
   5   5  19   86874   14275
   7   5  19  178767   16763
   9   5  19    3184   40238
 -22   6  19   49093   17973
 -20   6  19   33777   15093
 -18   6  19   19640   13108
 -16   6  19    9385   11841
 -14   6  19   13265   12938
 -12   6  19   86208   13932
 -10   6  19   34085   15415
  -8   6  19     771   11067
  -6   6  19    -205   11463
  -4   6  19   46776   11963
  -2   6  19   34859   11821
   0   6  19   20629   11819
   2   6  19   23249   12680
   4   6  19   40549   12907
   6   6  19   -7055   14643
 -19   7  19   -5879   13422
 -17   7  19  107778   16881
 -15   7  19  107982   15534
 -13   7  19    7795   16638
 -11   7  19  168814   16638
  -9   7  19   59426   14834
  -7   7  19   -1684   11097
  -5   7  19   94087   17032
  -3   7  19   13698    9087
  -1   7  19   35202   10010
   1   7  19  187392   21843
   3   7  19    9553   11857
 -14   8  19   24970   15405
 -12   8  19    7409   11420
 -10   8  19  136001   15701
  -8   8  19  117539   20574
  -6   8  19  162629   17121
  -4   8  19   10991   11849
  -2   8  19   69848   13020
   0   8  19  140978   53265
 -22   0  20  119779   18132
 -20   0  20   54697   21565
 -18   0  20  -10276   16183
 -16   0  20  150807   22435
 -14   0  20   92154   17801
 -12   0  20   44677   22607
 -10   0  20  144389   44215
  -8   0  20   73247   22808
  -6   0  20  105739   22903
  -4   0  20  308207   23018
  -2   0  20    3767   16413
   0   0  20  134760   22061
   2   0  20  416518   25972
   4   0  20   87280   21941
   6   0  20  131863   22826
 -23   1  20   59562   12176
 -21   1  20   19793   11135
 -19   1  20   22161   15989
 -17   1  20    8110   10708
 -15   1  20   15626   18860
 -13   1  20   42527   18230
 -11   1  20   15199   14030
  -9   1  20   43888   13626
  -7   1  20    8418   15124
  -5   1  20     651   13718
  -3   1  20   71429   15393
  -1   1  20   12276   12461
   1   1  20    9922   13818
   3   1  20   88186   12138
   5   1  20    -865   13408
   7   1  20   37955   17628
 -22   2  20   94367   13070
 -20   2  20  102091   12354
 -18   2  20   24344   13412
 -16   2  20    9256   13065
 -14   2  20   42902   16623
 -12   2  20   30524   16604
 -10   2  20   12556   14236
  -8   2  20   50200   13072
  -6   2  20   32825   13330
  -4   2  20   41568   13992
  -2   2  20  169966   17007
   0   2  20   43332   17663
   2   2  20   42794   12029
   4   2  20  166692   16388
   6   2  20   39700   13397
 -21   3  20   56955   12446
 -19   3  20  167753   16677
 -17   3  20   15399   11149
 -15   3  20   14338   12775
 -13   3  20   33279   14689
 -11   3  20   15650   15538
  -9   3  20   32209   13701
  -7   3  20   65441   15672
  -5   3  20   32416   13509
  -3   3  20   41148   13577
  -1   3  20   18268   12570
   1   3  20    -482   11737
   3   3  20   -4879   13213
   5   3  20   20132   11690
 -20   4  20  -11736   11854
 -18   4  20  169939   14707
 -16   4  20   58238   16465
 -14   4  20  109683   16809
 -12   4  20  381965   23344
 -10   4  20    7149   11647
  -8   4  20   28920   13141
  -6   4  20   82716   15923
  -4   4  20   47216   14342
  -2   4  20  437158   26855
   0   4  20  362511   20553
   2   4  20  183083   17997
   4   4  20  130186   29095
 -17   5  20   31071   19005
 -15   5  20   13236   15637
 -13   5  20   34861   14755
 -11   5  20  109264   13202
  -9   5  20   50823   10981
  -7   5  20   40008   18005
  -5   5  20   75491   15226
  -3   5  20   32218   11118
  -1   5  20   12694   10735
   1   5  20   18803   11202
 -14   6  20  207172  128648
 -12   6  20   22293   12360
 -10   6  20  234314   16610
  -8   6  20   50382   12478
  -6   6  20   59051   13248
  -4   6  20  231799   27231
  -2   6  20   78330   33383
 -15   1  21   82449   20921
 -13   1  21    4925   12986
 -11   1  21   10056   14763
  -9   1  21   66327   22185
  -7   1  21   56078   16439
  -5   1  21   57197   17665
  -3   1  21  129665   16866
 -14   2  21  -16509   23610
 -12   2  21    7571   13727
 -10   2  21   25552   15718
  -8   2  21   24018   16006
  -6   2  21   39280   13287
  -4   2  21   15855   13527
 -11   3  21  -26723   30540
  -9   3  21   59175   24986
  -7   3  21  102303   24432



;
_shelx_hkl_checksum              3443
_shelx_fab_file
;
    4    0    0      0.00      0.00
    6    0    0      0.00      0.00
    8    0    0      0.00      0.00
   10    0    0      0.00      0.00
   12    0    0      0.00      0.00
   14    0    0      0.00      0.00
   16    0    0      0.00      0.00
   18    0    0      0.00      0.00
   20    0    0      0.00      0.00
   22    0    0      0.00      0.00
   24    0    0      0.00      0.00
   26    0    0      0.00      0.00
   28    0    0      0.00      0.00
   30    0    0      0.00      0.00
   32    0    0      0.00      0.00
   34    0    0      0.00      0.00
   36    0    0      0.00      0.00
   38    0    0      0.00      0.00
   40    0    0      0.00      0.00
   42    0    0      0.00      0.00
   44    0    0      0.00      0.00
    3    1    0      0.00      0.00
    5    1    0      0.00      0.00
    7    1    0      0.00      0.00
    9    1    0      0.00      0.00
   11    1    0      0.00      0.00
   13    1    0      0.00      0.00
   15    1    0      0.00      0.00
   17    1    0      0.00      0.00
   19    1    0      0.00      0.00
   21    1    0      0.00      0.00
   23    1    0      0.00      0.00
   25    1    0      0.00      0.00
   27    1    0      0.00      0.00
   29    1    0      0.00      0.00
   31    1    0      0.00      0.00
   33    1    0      0.00      0.00
   35    1    0      0.00      0.00
   37    1    0      0.00      0.00
   39    1    0      0.00      0.00
   41    1    0      0.00      0.00
   43    1    0      0.00      0.00
   45    1    0      0.00      0.00
    0    2    0      0.00      0.00
    2    2    0      0.00      0.00
    4    2    0      0.00      0.00
    6    2    0      0.00      0.00
    8    2    0      0.00      0.00
   10    2    0      0.00      0.00
   12    2    0      0.00      0.00
   14    2    0      0.00      0.00
   16    2    0      0.00      0.00
   18    2    0      0.00      0.00
   20    2    0      0.00      0.00
   22    2    0      0.00      0.00
   24    2    0      0.00      0.00
   26    2    0      0.00      0.00
   28    2    0      0.00      0.00
   30    2    0      0.00      0.00
   32    2    0      0.00      0.00
   34    2    0      0.00      0.00
   36    2    0      0.00      0.00
   38    2    0      0.00      0.00
   40    2    0      0.00      0.00
   42    2    0      0.00      0.00
   44    2    0      0.00      0.00
    1    3    0      0.00      0.00
    3    3    0      0.00      0.00
    5    3    0      0.00      0.00
    7    3    0      0.00      0.00
    9    3    0      0.00      0.00
   11    3    0      0.00      0.00
   13    3    0      0.00      0.00
   15    3    0      0.00      0.00
   17    3    0      0.00      0.00
   19    3    0      0.00      0.00
   21    3    0      0.00      0.00
   23    3    0      0.00      0.00
   25    3    0      0.00      0.00
   27    3    0      0.00      0.00
   29    3    0      0.00      0.00
   31    3    0      0.00      0.00
   33    3    0      0.00      0.00
   35    3    0      0.00      0.00
   37    3    0      0.00      0.00
   39    3    0      0.00      0.00
   41    3    0      0.00      0.00
   43    3    0      0.00      0.00
    0    4    0      0.00      0.00
    2    4    0      0.00      0.00
    4    4    0      0.00      0.00
    6    4    0      0.00      0.00
    8    4    0      0.00      0.00
   10    4    0      0.00      0.00
   12    4    0      0.00      0.00
   14    4    0      0.00      0.00
   16    4    0      0.00      0.00
   18    4    0      0.00      0.00
   20    4    0      0.00      0.00
   22    4    0      0.00      0.00
   24    4    0      0.00      0.00
   26    4    0      0.00      0.00
   28    4    0      0.00      0.00
   30    4    0      0.00      0.00
   32    4    0      0.00      0.00
   34    4    0      0.00      0.00
   36    4    0      0.00      0.00
   38    4    0      0.00      0.00
   40    4    0      0.00      0.00
   42    4    0      0.00      0.00
   44    4    0      0.00      0.00
    1    5    0      0.00      0.00
    3    5    0      0.00      0.00
    5    5    0      0.00      0.00
    7    5    0      0.00      0.00
    9    5    0      0.00      0.00
   11    5    0      0.00      0.00
   13    5    0      0.00      0.00
   15    5    0      0.00      0.00
   17    5    0      0.00      0.00
   19    5    0      0.00      0.00
   21    5    0      0.00      0.00
   23    5    0      0.00      0.00
   25    5    0      0.00      0.00
   27    5    0      0.00      0.00
   29    5    0      0.00      0.00
   31    5    0      0.00      0.00
   33    5    0      0.00      0.00
   35    5    0      0.00      0.00
   37    5    0      0.00      0.00
   39    5    0      0.00      0.00
   41    5    0      0.00      0.00
   43    5    0      0.00      0.00
    0    6    0      0.00      0.00
    2    6    0      0.00      0.00
    4    6    0      0.00      0.00
    6    6    0      0.00      0.00
    8    6    0      0.00      0.00
   10    6    0      0.00      0.00
   12    6    0      0.00      0.00
   14    6    0      0.00      0.00
   16    6    0      0.00      0.00
   18    6    0      0.00      0.00
   20    6    0      0.00      0.00
   22    6    0      0.00      0.00
   24    6    0      0.00      0.00
   26    6    0      0.00      0.00
   28    6    0      0.00      0.00
   30    6    0      0.00      0.00
   32    6    0      0.00      0.00
   34    6    0      0.00      0.00
   36    6    0      0.00      0.00
   38    6    0      0.00      0.00
   40    6    0      0.00      0.00
   42    6    0      0.00      0.00
    1    7    0      0.00      0.00
    3    7    0      0.00      0.00
    5    7    0      0.00      0.00
    7    7    0      0.00      0.00
    9    7    0      0.00      0.00
   11    7    0      0.00      0.00
   13    7    0      0.00      0.00
   15    7    0      0.00      0.00
   17    7    0      0.00      0.00
   19    7    0      0.00      0.00
   21    7    0      0.00      0.00
   23    7    0      0.00      0.00
   25    7    0      0.00      0.00
   27    7    0      0.00      0.00
   29    7    0      0.00      0.00
   31    7    0      0.00      0.00
   33    7    0      0.00      0.00
   35    7    0      0.00      0.00
   37    7    0      0.00      0.00
   39    7    0      0.00      0.00
   41    7    0      0.00      0.00
    0    8    0      0.00      0.00
    2    8    0      0.00      0.00
    4    8    0      0.00      0.00
    6    8    0      0.00      0.00
    8    8    0      0.00      0.00
   10    8    0      0.00      0.00
   12    8    0      0.00      0.00
   14    8    0      0.00      0.00
   16    8    0      0.00      0.00
   18    8    0      0.00      0.00
   20    8    0      0.00      0.00
   22    8    0      0.00      0.00
   24    8    0      0.00      0.00
   26    8    0      0.00      0.00
   28    8    0      0.00      0.00
   30    8    0      0.00      0.00
   32    8    0      0.00      0.00
   34    8    0      0.00      0.00
   36    8    0      0.00      0.00
   38    8    0      0.00      0.00
   40    8    0      0.00      0.00
    1    9    0      0.00      0.00
    3    9    0      0.00      0.00
    5    9    0      0.00      0.00
    7    9    0      0.00      0.00
    9    9    0      0.00      0.00
   11    9    0      0.00      0.00
   13    9    0      0.00      0.00
   15    9    0      0.00      0.00
   17    9    0      0.00      0.00
   19    9    0      0.00      0.00
   21    9    0      0.00      0.00
   23    9    0      0.00      0.00
   25    9    0      0.00      0.00
   27    9    0      0.00      0.00
   29    9    0      0.00      0.00
   31    9    0      0.00      0.00
   33    9    0      0.00      0.00
   35    9    0      0.00      0.00
   37    9    0      0.00      0.00
   39    9    0      0.00      0.00
    0   10    0      0.00      0.00
    2   10    0      0.00      0.00
    4   10    0      0.00      0.00
    6   10    0      0.00      0.00
    8   10    0      0.00      0.00
   10   10    0      0.00      0.00
   12   10    0      0.00      0.00
   14   10    0      0.00      0.00
   16   10    0      0.00      0.00
   18   10    0      0.00      0.00
   20   10    0      0.00      0.00
   22   10    0      0.00      0.00
   24   10    0      0.00      0.00
   26   10    0      0.00      0.00
   28   10    0      0.00      0.00
   30   10    0      0.00      0.00
   32   10    0      0.00      0.00
   34   10    0      0.00      0.00
   36   10    0      0.00      0.00
   38   10    0      0.00      0.00
    1   11    0      0.00      0.00
    3   11    0      0.00      0.00
    5   11    0      0.00      0.00
    7   11    0      0.00      0.00
    9   11    0      0.00      0.00
   11   11    0      0.00      0.00
   13   11    0      0.00      0.00
   15   11    0      0.00      0.00
   17   11    0      0.00      0.00
   19   11    0      0.00      0.00
   21   11    0      0.00      0.00
   23   11    0      0.00      0.00
   25   11    0      0.00      0.00
   27   11    0      0.00      0.00
   29   11    0      0.00      0.00
   31   11    0      0.00      0.00
   33   11    0      0.00      0.00
   35   11    0      0.00      0.00
   37   11    0      0.00      0.00
    0   12    0      0.00      0.00
    2   12    0      0.00      0.00
    4   12    0      0.00      0.00
    6   12    0      0.00      0.00
    8   12    0      0.00      0.00
   10   12    0      0.00      0.00
   12   12    0      0.00      0.00
   14   12    0      0.00      0.00
   16   12    0      0.00      0.00
   18   12    0      0.00      0.00
   20   12    0      0.00      0.00
   22   12    0      0.00      0.00
   24   12    0      0.00      0.00
   26   12    0      0.00      0.00
   28   12    0      0.00      0.00
   30   12    0      0.00      0.00
   32   12    0      0.00      0.00
   34   12    0      0.00      0.00
    1   13    0      0.00      0.00
    3   13    0      0.00      0.00
    5   13    0      0.00      0.00
    7   13    0      0.00      0.00
    9   13    0      0.00      0.00
   11   13    0      0.00      0.00
   13   13    0      0.00      0.00
   15   13    0      0.00      0.00
   17   13    0      0.00      0.00
   19   13    0      0.00      0.00
   21   13    0      0.00      0.00
   23   13    0      0.00      0.00
   25   13    0      0.00      0.00
   27   13    0      0.00      0.00
   29   13    0      0.00      0.00
   31   13    0      0.00      0.00
   33   13    0      0.00      0.00
    0   14    0      0.00      0.00
    2   14    0      0.00      0.00
    4   14    0      0.00      0.00
    6   14    0      0.00      0.00
    8   14    0      0.00      0.00
   10   14    0      0.00      0.00
   12   14    0      0.00      0.00
   14   14    0      0.00      0.00
   16   14    0      0.00      0.00
   18   14    0      0.00      0.00
   20   14    0      0.00      0.00
   22   14    0      0.00      0.00
   24   14    0      0.00      0.00
   26   14    0      0.00      0.00
   28   14    0      0.00      0.00
   30   14    0      0.00      0.00
    1   15    0      0.00      0.00
    3   15    0      0.00      0.00
    5   15    0      0.00      0.00
    7   15    0      0.00      0.00
    9   15    0      0.00      0.00
   11   15    0      0.00      0.00
   13   15    0      0.00      0.00
   15   15    0      0.00      0.00
   17   15    0      0.00      0.00
   19   15    0      0.00      0.00
   21   15    0      0.00      0.00
   23   15    0      0.00      0.00
   25   15    0      0.00      0.00
   27   15    0      0.00      0.00
    0   16    0      0.00      0.00
    2   16    0      0.00      0.00
    4   16    0      0.00      0.00
    6   16    0      0.00      0.00
    8   16    0      0.00      0.00
   10   16    0      0.00      0.00
   12   16    0      0.00      0.00
   14   16    0      0.00      0.00
   16   16    0      0.00      0.00
   18   16    0      0.00      0.00
   20   16    0      0.00      0.00
   22   16    0      0.00      0.00
   24   16    0      0.00      0.00
    1   17    0      0.00      0.00
    3   17    0      0.00      0.00
    5   17    0      0.00      0.00
    7   17    0      0.00      0.00
    9   17    0      0.00      0.00
   11   17    0      0.00      0.00
   13   17    0      0.00      0.00
   15   17    0      0.00      0.00
   17   17    0      0.00      0.00
   19   17    0      0.00      0.00
    0   18    0      0.00      0.00
    2   18    0      0.00      0.00
    4   18    0      0.00      0.00
    6   18    0      0.00      0.00
    8   18    0      0.00      0.00
   10   18    0      0.00      0.00
   12   18    0      0.00      0.00
   14   18    0      0.00      0.00
    1   19    0      0.00      0.00
    3   19    0      0.00      0.00
  -45    1    1      0.00      0.00
  -43    1    1      0.00      0.00
  -41    1    1      0.00      0.00
  -39    1    1      0.00      0.00
  -37    1    1      0.00      0.00
  -35    1    1      0.00      0.00
  -33    1    1      0.00      0.00
  -31    1    1      0.00      0.00
  -29    1    1      0.00      0.00
  -27    1    1      0.00      0.00
  -25    1    1      0.00      0.00
  -23    1    1      0.00      0.00
  -21    1    1      0.00      0.00
  -19    1    1      0.00      0.00
  -17    1    1      0.00      0.00
  -15    1    1      0.00      0.00
  -13    1    1      0.00      0.00
  -11    1    1      0.00      0.00
   -9    1    1      0.00      0.00
   -7    1    1      0.00      0.00
   -5    1    1      0.00      0.00
   -3    1    1      0.00      0.00
   -1    1    1      0.00      0.00
    1    1    1      0.00      0.00
    3    1    1      0.00      0.00
    5    1    1      0.00      0.00
    7    1    1      0.00      0.00
    9    1    1      0.00      0.00
   11    1    1      0.00      0.00
   13    1    1      0.00      0.00
   15    1    1      0.00      0.00
   17    1    1      0.00      0.00
   19    1    1      0.00      0.00
   21    1    1      0.00      0.00
   23    1    1      0.00      0.00
   25    1    1      0.00      0.00
   27    1    1      0.00      0.00
   29    1    1      0.00      0.00
   31    1    1      0.00      0.00
   33    1    1      0.00      0.00
   35    1    1      0.00      0.00
   37    1    1      0.00      0.00
   39    1    1      0.00      0.00
   41    1    1      0.00      0.00
   43    1    1      0.00      0.00
  -44    2    1      0.00      0.00
  -42    2    1      0.00      0.00
  -40    2    1      0.00      0.00
  -38    2    1      0.00      0.00
  -36    2    1      0.00      0.00
  -34    2    1      0.00      0.00
  -32    2    1      0.00      0.00
  -30    2    1      0.00      0.00
  -28    2    1      0.00      0.00
  -26    2    1      0.00      0.00
  -24    2    1      0.00      0.00
  -22    2    1      0.00      0.00
  -20    2    1      0.00      0.00
  -18    2    1      0.00      0.00
  -16    2    1      0.00      0.00
  -14    2    1      0.00      0.00
  -12    2    1      0.00      0.00
  -10    2    1      0.00      0.00
   -8    2    1      0.00      0.00
   -6    2    1      0.00      0.00
   -4    2    1      0.00      0.00
   -2    2    1      0.00      0.00
    0    2    1      0.00      0.00
    2    2    1      0.00      0.00
    4    2    1      0.00      0.00
    6    2    1      0.00      0.00
    8    2    1      0.00      0.00
   10    2    1      0.00      0.00
   12    2    1      0.00      0.00
   14    2    1      0.00      0.00
   16    2    1      0.00      0.00
   18    2    1      0.00      0.00
   20    2    1      0.00      0.00
   22    2    1      0.00      0.00
   24    2    1      0.00      0.00
   26    2    1      0.00      0.00
   28    2    1      0.00      0.00
   30    2    1      0.00      0.00
   32    2    1      0.00      0.00
   34    2    1      0.00      0.00
   36    2    1      0.00      0.00
   38    2    1      0.00      0.00
   40    2    1      0.00      0.00
   42    2    1      0.00      0.00
   44    2    1      0.00      0.00
  -45    3    1      0.00      0.00
  -43    3    1      0.00      0.00
  -41    3    1      0.00      0.00
  -39    3    1      0.00      0.00
  -37    3    1      0.00      0.00
  -35    3    1      0.00      0.00
  -33    3    1      0.00      0.00
  -31    3    1      0.00      0.00
  -29    3    1      0.00      0.00
  -27    3    1      0.00      0.00
  -25    3    1      0.00      0.00
  -23    3    1      0.00      0.00
  -21    3    1      0.00      0.00
  -19    3    1      0.00      0.00
  -17    3    1      0.00      0.00
  -15    3    1      0.00      0.00
  -13    3    1      0.00      0.00
  -11    3    1      0.00      0.00
   -9    3    1      0.00      0.00
   -7    3    1      0.00      0.00
   -5    3    1      0.00      0.00
   -3    3    1      0.00      0.00
   -1    3    1      0.00      0.00
    1    3    1      0.00      0.00
    3    3    1      0.00      0.00
    5    3    1      0.00      0.00
    7    3    1      0.00      0.00
    9    3    1      0.00      0.00
   11    3    1      0.00      0.00
   13    3    1      0.00      0.00
   15    3    1      0.00      0.00
   17    3    1      0.00      0.00
   19    3    1      0.00      0.00
   21    3    1      0.00      0.00
   23    3    1      0.00      0.00
   25    3    1      0.00      0.00
   27    3    1      0.00      0.00
   29    3    1      0.00      0.00
   31    3    1      0.00      0.00
   33    3    1      0.00      0.00
   35    3    1      0.00      0.00
   37    3    1      0.00      0.00
   39    3    1      0.00      0.00
   41    3    1      0.00      0.00
   43    3    1      0.00      0.00
  -44    4    1      0.00      0.00
  -42    4    1      0.00      0.00
  -40    4    1      0.00      0.00
  -38    4    1      0.00      0.00
  -36    4    1      0.00      0.00
  -34    4    1      0.00      0.00
  -32    4    1      0.00      0.00
  -30    4    1      0.00      0.00
  -28    4    1      0.00      0.00
  -26    4    1      0.00      0.00
  -24    4    1      0.00      0.00
  -22    4    1      0.00      0.00
  -20    4    1      0.00      0.00
  -18    4    1      0.00      0.00
  -16    4    1      0.00      0.00
  -14    4    1      0.00      0.00
  -12    4    1      0.00      0.00
  -10    4    1      0.00      0.00
   -8    4    1      0.00      0.00
   -6    4    1      0.00      0.00
   -4    4    1      0.00      0.00
   -2    4    1      0.00      0.00
    0    4    1      0.00      0.00
    2    4    1      0.00      0.00
    4    4    1      0.00      0.00
    6    4    1      0.00      0.00
    8    4    1      0.00      0.00
   10    4    1      0.00      0.00
   12    4    1      0.00      0.00
   14    4    1      0.00      0.00
   16    4    1      0.00      0.00
   18    4    1      0.00      0.00
   20    4    1      0.00      0.00
   22    4    1      0.00      0.00
   24    4    1      0.00      0.00
   26    4    1      0.00      0.00
   28    4    1      0.00      0.00
   30    4    1      0.00      0.00
   32    4    1      0.00      0.00
   34    4    1      0.00      0.00
   36    4    1      0.00      0.00
   38    4    1      0.00      0.00
   40    4    1      0.00      0.00
   42    4    1      0.00      0.00
  -43    5    1      0.00      0.00
  -41    5    1      0.00      0.00
  -39    5    1      0.00      0.00
  -37    5    1      0.00      0.00
  -35    5    1      0.00      0.00
  -33    5    1      0.00      0.00
  -31    5    1      0.00      0.00
  -29    5    1      0.00      0.00
  -27    5    1      0.00      0.00
  -25    5    1      0.00      0.00
  -23    5    1      0.00      0.00
  -21    5    1      0.00      0.00
  -19    5    1      0.00      0.00
  -17    5    1      0.00      0.00
  -15    5    1      0.00      0.00
  -13    5    1      0.00      0.00
  -11    5    1      0.00      0.00
   -9    5    1      0.00      0.00
   -7    5    1      0.00      0.00
   -5    5    1      0.00      0.00
   -3    5    1      0.00      0.00
   -1    5    1      0.00      0.00
    1    5    1      0.00      0.00
    3    5    1      0.00      0.00
    5    5    1      0.00      0.00
    7    5    1      0.00      0.00
    9    5    1      0.00      0.00
   11    5    1      0.00      0.00
   13    5    1      0.00      0.00
   15    5    1      0.00      0.00
   17    5    1      0.00      0.00
   19    5    1      0.00      0.00
   21    5    1      0.00      0.00
   23    5    1      0.00      0.00
   25    5    1      0.00      0.00
   27    5    1      0.00      0.00
   29    5    1      0.00      0.00
   31    5    1      0.00      0.00
   33    5    1      0.00      0.00
   35    5    1      0.00      0.00
   37    5    1      0.00      0.00
   39    5    1      0.00      0.00
   41    5    1      0.00      0.00
   43    5    1      0.00      0.00
  -42    6    1      0.00      0.00
  -40    6    1      0.00      0.00
  -38    6    1      0.00      0.00
  -36    6    1      0.00      0.00
  -34    6    1      0.00      0.00
  -32    6    1      0.00      0.00
  -30    6    1      0.00      0.00
  -28    6    1      0.00      0.00
  -26    6    1      0.00      0.00
  -24    6    1      0.00      0.00
  -22    6    1      0.00      0.00
  -20    6    1      0.00      0.00
  -18    6    1      0.00      0.00
  -16    6    1      0.00      0.00
  -14    6    1      0.00      0.00
  -12    6    1      0.00      0.00
  -10    6    1      0.00      0.00
   -8    6    1      0.00      0.00
   -6    6    1      0.00      0.00
   -4    6    1      0.00      0.00
   -2    6    1      0.00      0.00
    0    6    1      0.00      0.00
    2    6    1      0.00      0.00
    4    6    1      0.00      0.00
    6    6    1      0.00      0.00
    8    6    1      0.00      0.00
   10    6    1      0.00      0.00
   12    6    1      0.00      0.00
   14    6    1      0.00      0.00
   16    6    1      0.00      0.00
   18    6    1      0.00      0.00
   20    6    1      0.00      0.00
   22    6    1      0.00      0.00
   24    6    1      0.00      0.00
   26    6    1      0.00      0.00
   28    6    1      0.00      0.00
   30    6    1      0.00      0.00
   32    6    1      0.00      0.00
   34    6    1      0.00      0.00
   36    6    1      0.00      0.00
   38    6    1      0.00      0.00
   40    6    1      0.00      0.00
   42    6    1      0.00      0.00
  -41    7    1      0.00      0.00
  -39    7    1      0.00      0.00
  -37    7    1      0.00      0.00
  -35    7    1      0.00      0.00
  -33    7    1      0.00      0.00
  -31    7    1      0.00      0.00
  -29    7    1      0.00      0.00
  -27    7    1      0.00      0.00
  -25    7    1      0.00      0.00
  -23    7    1      0.00      0.00
  -21    7    1      0.00      0.00
  -19    7    1      0.00      0.00
  -17    7    1      0.00      0.00
  -15    7    1      0.00      0.00
  -13    7    1      0.00      0.00
  -11    7    1      0.00      0.00
   -9    7    1      0.00      0.00
   -7    7    1      0.00      0.00
   -5    7    1      0.00      0.00
   -3    7    1      0.00      0.00
   -1    7    1      0.00      0.00
    1    7    1      0.00      0.00
    3    7    1      0.00      0.00
    5    7    1      0.00      0.00
    7    7    1      0.00      0.00
    9    7    1      0.00      0.00
   11    7    1      0.00      0.00
   13    7    1      0.00      0.00
   15    7    1      0.00      0.00
   17    7    1      0.00      0.00
   19    7    1      0.00      0.00
   21    7    1      0.00      0.00
   23    7    1      0.00      0.00
   25    7    1      0.00      0.00
   27    7    1      0.00      0.00
   29    7    1      0.00      0.00
   31    7    1      0.00      0.00
   33    7    1      0.00      0.00
   35    7    1      0.00      0.00
   37    7    1      0.00      0.00
   39    7    1      0.00      0.00
   41    7    1      0.00      0.00
  -40    8    1      0.00      0.00
  -38    8    1      0.00      0.00
  -36    8    1      0.00      0.00
  -34    8    1      0.00      0.00
  -32    8    1      0.00      0.00
  -30    8    1      0.00      0.00
  -28    8    1      0.00      0.00
  -26    8    1      0.00      0.00
  -24    8    1      0.00      0.00
  -22    8    1      0.00      0.00
  -20    8    1      0.00      0.00
  -18    8    1      0.00      0.00
  -16    8    1      0.00      0.00
  -14    8    1      0.00      0.00
  -12    8    1      0.00      0.00
  -10    8    1      0.00      0.00
   -8    8    1      0.00      0.00
   -6    8    1      0.00      0.00
   -4    8    1      0.00      0.00
   -2    8    1      0.00      0.00
    0    8    1      0.00      0.00
    2    8    1      0.00      0.00
    4    8    1      0.00      0.00
    6    8    1      0.00      0.00
    8    8    1      0.00      0.00
   10    8    1      0.00      0.00
   12    8    1      0.00      0.00
   14    8    1      0.00      0.00
   16    8    1      0.00      0.00
   18    8    1      0.00      0.00
   20    8    1      0.00      0.00
   22    8    1      0.00      0.00
   24    8    1      0.00      0.00
   26    8    1      0.00      0.00
   28    8    1      0.00      0.00
   30    8    1      0.00      0.00
   32    8    1      0.00      0.00
   34    8    1      0.00      0.00
   36    8    1      0.00      0.00
   38    8    1      0.00      0.00
   40    8    1      0.00      0.00
  -39    9    1      0.00      0.00
  -37    9    1      0.00      0.00
  -35    9    1      0.00      0.00
  -33    9    1      0.00      0.00
  -31    9    1      0.00      0.00
  -29    9    1      0.00      0.00
  -27    9    1      0.00      0.00
  -25    9    1      0.00      0.00
  -23    9    1      0.00      0.00
  -21    9    1      0.00      0.00
  -19    9    1      0.00      0.00
  -17    9    1      0.00      0.00
  -15    9    1      0.00      0.00
  -13    9    1      0.00      0.00
  -11    9    1      0.00      0.00
   -9    9    1      0.00      0.00
   -7    9    1      0.00      0.00
   -5    9    1      0.00      0.00
   -3    9    1      0.00      0.00
   -1    9    1      0.00      0.00
    1    9    1      0.00      0.00
    3    9    1      0.00      0.00
    5    9    1      0.00      0.00
    7    9    1      0.00      0.00
    9    9    1      0.00      0.00
   11    9    1      0.00      0.00
   13    9    1      0.00      0.00
   15    9    1      0.00      0.00
   17    9    1      0.00      0.00
   19    9    1      0.00      0.00
   21    9    1      0.00      0.00
   23    9    1      0.00      0.00
   25    9    1      0.00      0.00
   27    9    1      0.00      0.00
   29    9    1      0.00      0.00
   31    9    1      0.00      0.00
   33    9    1      0.00      0.00
   35    9    1      0.00      0.00
   37    9    1      0.00      0.00
   39    9    1      0.00      0.00
  -38   10    1      0.00      0.00
  -36   10    1      0.00      0.00
  -34   10    1      0.00      0.00
  -32   10    1      0.00      0.00
  -30   10    1      0.00      0.00
  -28   10    1      0.00      0.00
  -26   10    1      0.00      0.00
  -24   10    1      0.00      0.00
  -22   10    1      0.00      0.00
  -20   10    1      0.00      0.00
  -18   10    1      0.00      0.00
  -16   10    1      0.00      0.00
  -14   10    1      0.00      0.00
  -12   10    1      0.00      0.00
  -10   10    1      0.00      0.00
   -8   10    1      0.00      0.00
   -6   10    1      0.00      0.00
   -4   10    1      0.00      0.00
   -2   10    1      0.00      0.00
    0   10    1      0.00      0.00
    2   10    1      0.00      0.00
    4   10    1      0.00      0.00
    6   10    1      0.00      0.00
    8   10    1      0.00      0.00
   10   10    1      0.00      0.00
   12   10    1      0.00      0.00
   14   10    1      0.00      0.00
   16   10    1      0.00      0.00
   18   10    1      0.00      0.00
   20   10    1      0.00      0.00
   22   10    1      0.00      0.00
   24   10    1      0.00      0.00
   26   10    1      0.00      0.00
   28   10    1      0.00      0.00
   30   10    1      0.00      0.00
   32   10    1      0.00      0.00
   34   10    1      0.00      0.00
   36   10    1      0.00      0.00
   38   10    1      0.00      0.00
  -37   11    1      0.00      0.00
  -35   11    1      0.00      0.00
  -33   11    1      0.00      0.00
  -31   11    1      0.00      0.00
  -29   11    1      0.00      0.00
  -27   11    1      0.00      0.00
  -25   11    1      0.00      0.00
  -23   11    1      0.00      0.00
  -21   11    1      0.00      0.00
  -19   11    1      0.00      0.00
  -17   11    1      0.00      0.00
  -15   11    1      0.00      0.00
  -13   11    1      0.00      0.00
  -11   11    1      0.00      0.00
   -9   11    1      0.00      0.00
   -7   11    1      0.00      0.00
   -5   11    1      0.00      0.00
   -3   11    1      0.00      0.00
   -1   11    1      0.00      0.00
    1   11    1      0.00      0.00
    3   11    1      0.00      0.00
    5   11    1      0.00      0.00
    7   11    1      0.00      0.00
    9   11    1      0.00      0.00
   11   11    1      0.00      0.00
   13   11    1      0.00      0.00
   15   11    1      0.00      0.00
   17   11    1      0.00      0.00
   19   11    1      0.00      0.00
   21   11    1      0.00      0.00
   23   11    1      0.00      0.00
   25   11    1      0.00      0.00
   27   11    1      0.00      0.00
   29   11    1      0.00      0.00
   31   11    1      0.00      0.00
   33   11    1      0.00      0.00
   35   11    1      0.00      0.00
  -34   12    1      0.00      0.00
  -32   12    1      0.00      0.00
  -30   12    1      0.00      0.00
  -28   12    1      0.00      0.00
  -26   12    1      0.00      0.00
  -24   12    1      0.00      0.00
  -22   12    1      0.00      0.00
  -20   12    1      0.00      0.00
  -18   12    1      0.00      0.00
  -16   12    1      0.00      0.00
  -14   12    1      0.00      0.00
  -12   12    1      0.00      0.00
  -10   12    1      0.00      0.00
   -8   12    1      0.00      0.00
   -6   12    1      0.00      0.00
   -4   12    1      0.00      0.00
   -2   12    1      0.00      0.00
    0   12    1      0.00      0.00
    2   12    1      0.00      0.00
    4   12    1      0.00      0.00
    6   12    1      0.00      0.00
    8   12    1      0.00      0.00
   10   12    1      0.00      0.00
   12   12    1      0.00      0.00
   14   12    1      0.00      0.00
   16   12    1      0.00      0.00
   18   12    1      0.00      0.00
   20   12    1      0.00      0.00
   22   12    1      0.00      0.00
   24   12    1      0.00      0.00
   26   12    1      0.00      0.00
   28   12    1      0.00      0.00
   30   12    1      0.00      0.00
   32   12    1      0.00      0.00
   34   12    1      0.00      0.00
  -33   13    1      0.00      0.00
  -31   13    1      0.00      0.00
  -29   13    1      0.00      0.00
  -27   13    1      0.00      0.00
  -25   13    1      0.00      0.00
  -23   13    1      0.00      0.00
  -21   13    1      0.00      0.00
  -19   13    1      0.00      0.00
  -17   13    1      0.00      0.00
  -15   13    1      0.00      0.00
  -13   13    1      0.00      0.00
  -11   13    1      0.00      0.00
   -9   13    1      0.00      0.00
   -7   13    1      0.00      0.00
   -5   13    1      0.00      0.00
   -3   13    1      0.00      0.00
   -1   13    1      0.00      0.00
    1   13    1      0.00      0.00
    3   13    1      0.00      0.00
    5   13    1      0.00      0.00
    7   13    1      0.00      0.00
    9   13    1      0.00      0.00
   11   13    1      0.00      0.00
   13   13    1      0.00      0.00
   15   13    1      0.00      0.00
   17   13    1      0.00      0.00
   19   13    1      0.00      0.00
   21   13    1      0.00      0.00
   23   13    1      0.00      0.00
   25   13    1      0.00      0.00
   27   13    1      0.00      0.00
   29   13    1      0.00      0.00
   31   13    1      0.00      0.00
  -30   14    1      0.00      0.00
  -28   14    1      0.00      0.00
  -26   14    1      0.00      0.00
  -24   14    1      0.00      0.00
  -22   14    1      0.00      0.00
  -20   14    1      0.00      0.00
  -18   14    1      0.00      0.00
  -16   14    1      0.00      0.00
  -14   14    1      0.00      0.00
  -12   14    1      0.00      0.00
  -10   14    1      0.00      0.00
   -8   14    1      0.00      0.00
   -6   14    1      0.00      0.00
   -4   14    1      0.00      0.00
   -2   14    1      0.00      0.00
    0   14    1      0.00      0.00
    2   14    1      0.00      0.00
    4   14    1      0.00      0.00
    6   14    1      0.00      0.00
    8   14    1      0.00      0.00
   10   14    1      0.00      0.00
   12   14    1      0.00      0.00
   14   14    1      0.00      0.00
   16   14    1      0.00      0.00
   18   14    1      0.00      0.00
   20   14    1      0.00      0.00
   22   14    1      0.00      0.00
   24   14    1      0.00      0.00
   26   14    1      0.00      0.00
   28   14    1      0.00      0.00
   30   14    1      0.00      0.00
  -27   15    1      0.00      0.00
  -25   15    1      0.00      0.00
  -23   15    1      0.00      0.00
  -21   15    1      0.00      0.00
  -19   15    1      0.00      0.00
  -17   15    1      0.00      0.00
  -15   15    1      0.00      0.00
  -13   15    1      0.00      0.00
  -11   15    1      0.00      0.00
   -9   15    1      0.00      0.00
   -7   15    1      0.00      0.00
   -5   15    1      0.00      0.00
   -3   15    1      0.00      0.00
   -1   15    1      0.00      0.00
    1   15    1      0.00      0.00
    3   15    1      0.00      0.00
    5   15    1      0.00      0.00
    7   15    1      0.00      0.00
    9   15    1      0.00      0.00
   11   15    1      0.00      0.00
   13   15    1      0.00      0.00
   15   15    1      0.00      0.00
   17   15    1      0.00      0.00
   19   15    1      0.00      0.00
   21   15    1      0.00      0.00
   23   15    1      0.00      0.00
   25   15    1      0.00      0.00
   27   15    1      0.00      0.00
  -24   16    1      0.00      0.00
  -22   16    1      0.00      0.00
  -20   16    1      0.00      0.00
  -18   16    1      0.00      0.00
  -16   16    1      0.00      0.00
  -14   16    1      0.00      0.00
  -12   16    1      0.00      0.00
  -10   16    1      0.00      0.00
   -8   16    1      0.00      0.00
   -6   16    1      0.00      0.00
   -4   16    1      0.00      0.00
   -2   16    1      0.00      0.00
    0   16    1      0.00      0.00
    2   16    1      0.00      0.00
    4   16    1      0.00      0.00
    6   16    1      0.00      0.00
    8   16    1      0.00      0.00
   10   16    1      0.00      0.00
   12   16    1      0.00      0.00
   14   16    1      0.00      0.00
   16   16    1      0.00      0.00
   18   16    1      0.00      0.00
   20   16    1      0.00      0.00
   22   16    1      0.00      0.00
   24   16    1      0.00      0.00
  -21   17    1      0.00      0.00
  -19   17    1      0.00      0.00
  -17   17    1      0.00      0.00
  -15   17    1      0.00      0.00
  -13   17    1      0.00      0.00
  -11   17    1      0.00      0.00
   -9   17    1      0.00      0.00
   -7   17    1      0.00      0.00
   -5   17    1      0.00      0.00
   -3   17    1      0.00      0.00
   -1   17    1      0.00      0.00
    1   17    1      0.00      0.00
    3   17    1      0.00      0.00
    5   17    1      0.00      0.00
    7   17    1      0.00      0.00
    9   17    1      0.00      0.00
   11   17    1      0.00      0.00
   13   17    1      0.00      0.00
   15   17    1      0.00      0.00
   17   17    1      0.00      0.00
   19   17    1      0.00      0.00
  -14   18    1      0.00      0.00
  -12   18    1      0.00      0.00
  -10   18    1      0.00      0.00
   -8   18    1      0.00      0.00
   -6   18    1      0.00      0.00
   -4   18    1      0.00      0.00
   -2   18    1      0.00      0.00
    0   18    1      0.00      0.00
    2   18    1      0.00      0.00
    4   18    1      0.00      0.00
    6   18    1      0.00      0.00
    8   18    1      0.00      0.00
   10   18    1      0.00      0.00
   12   18    1      0.00      0.00
   14   18    1      0.00      0.00
   -3   19    1      0.00      0.00
   -1   19    1      0.00      0.00
    1   19    1      0.00      0.00
    3   19    1      0.00      0.00
  -46    0    2      0.00      0.00
  -44    0    2      0.00      0.00
  -42    0    2      0.00      0.00
  -40    0    2      0.00      0.00
  -38    0    2      0.00      0.00
  -36    0    2      0.00      0.00
  -34    0    2      0.00      0.00
  -32    0    2      0.00      0.00
  -30    0    2      0.00      0.00
  -28    0    2      0.00      0.00
  -26    0    2      0.00      0.00
  -24    0    2      0.00      0.00
  -22    0    2      0.00      0.00
  -20    0    2      0.00      0.00
  -18    0    2      0.00      0.00
  -16    0    2      0.00      0.00
  -14    0    2      0.00      0.00
  -12    0    2      0.00      0.00
  -10    0    2      0.00      0.00
   -8    0    2      0.00      0.00
   -6    0    2      0.00      0.00
   -4    0    2      0.00      0.00
   -2    0    2      0.00      0.00
    0    0    2      0.00      0.00
    2    0    2      0.00      0.00
    4    0    2      0.00      0.00
    6    0    2      0.00      0.00
    8    0    2      0.00      0.00
   10    0    2      0.00      0.00
   12    0    2      0.00      0.00
   14    0    2      0.00      0.00
   16    0    2      0.00      0.00
   18    0    2      0.00      0.00
   20    0    2      0.00      0.00
   22    0    2      0.00      0.00
   24    0    2      0.00      0.00
   26    0    2      0.00      0.00
   28    0    2      0.00      0.00
   30    0    2      0.00      0.00
   32    0    2      0.00      0.00
   34    0    2      0.00      0.00
   36    0    2      0.00      0.00
   38    0    2      0.00      0.00
   40    0    2      0.00      0.00
   42    0    2      0.00      0.00
   44    0    2      0.00      0.00
  -45    1    2      0.00      0.00
  -43    1    2      0.00      0.00
  -41    1    2      0.00      0.00
  -39    1    2      0.00      0.00
  -37    1    2      0.00      0.00
  -35    1    2      0.00      0.00
  -33    1    2      0.00      0.00
  -31    1    2      0.00      0.00
  -29    1    2      0.00      0.00
  -27    1    2      0.00      0.00
  -25    1    2      0.00      0.00
  -23    1    2      0.00      0.00
  -21    1    2      0.00      0.00
  -19    1    2      0.00      0.00
  -17    1    2      0.00      0.00
  -15    1    2      0.00      0.00
  -13    1    2      0.00      0.00
  -11    1    2      0.00      0.00
   -7    1    2      0.00      0.00
   -5    1    2      0.00      0.00
   -3    1    2      0.00      0.00
   -1    1    2      0.00      0.00
    1    1    2      0.00      0.00
    3    1    2      0.00      0.00
    5    1    2      0.00      0.00
    7    1    2      0.00      0.00
    9    1    2      0.00      0.00
   11    1    2      0.00      0.00
   13    1    2      0.00      0.00
   15    1    2      0.00      0.00
   17    1    2      0.00      0.00
   19    1    2      0.00      0.00
   21    1    2      0.00      0.00
   23    1    2      0.00      0.00
   25    1    2      0.00      0.00
   27    1    2      0.00      0.00
   29    1    2      0.00      0.00
   31    1    2      0.00      0.00
   33    1    2      0.00      0.00
   35    1    2      0.00      0.00
   37    1    2      0.00      0.00
   39    1    2      0.00      0.00
   41    1    2      0.00      0.00
   43    1    2      0.00      0.00
  -44    2    2      0.00      0.00
  -42    2    2      0.00      0.00
  -40    2    2      0.00      0.00
  -38    2    2      0.00      0.00
  -36    2    2      0.00      0.00
  -34    2    2      0.00      0.00
  -32    2    2      0.00      0.00
  -30    2    2      0.00      0.00
  -28    2    2      0.00      0.00
  -26    2    2      0.00      0.00
  -24    2    2      0.00      0.00
  -22    2    2      0.00      0.00
  -20    2    2      0.00      0.00
  -18    2    2      0.00      0.00
  -16    2    2      0.00      0.00
  -14    2    2      0.00      0.00
  -12    2    2      0.00      0.00
  -10    2    2      0.00      0.00
   -8    2    2      0.00      0.00
   -6    2    2      0.00      0.00
   -4    2    2      0.00      0.00
   -2    2    2      0.00      0.00
    0    2    2      0.00      0.00
    2    2    2      0.00      0.00
    4    2    2      0.00      0.00
    6    2    2      0.00      0.00
    8    2    2      0.00      0.00
   10    2    2      0.00      0.00
   12    2    2      0.00      0.00
   14    2    2      0.00      0.00
   16    2    2      0.00      0.00
   18    2    2      0.00      0.00
   20    2    2      0.00      0.00
   22    2    2      0.00      0.00
   24    2    2      0.00      0.00
   26    2    2      0.00      0.00
   28    2    2      0.00      0.00
   30    2    2      0.00      0.00
   32    2    2      0.00      0.00
   34    2    2      0.00      0.00
   36    2    2      0.00      0.00
   38    2    2      0.00      0.00
   40    2    2      0.00      0.00
   42    2    2      0.00      0.00
   44    2    2      0.00      0.00
  -45    3    2      0.00      0.00
  -43    3    2      0.00      0.00
  -41    3    2      0.00      0.00
  -39    3    2      0.00      0.00
  -37    3    2      0.00      0.00
  -35    3    2      0.00      0.00
  -33    3    2      0.00      0.00
  -31    3    2      0.00      0.00
  -29    3    2      0.00      0.00
  -27    3    2      0.00      0.00
  -25    3    2      0.00      0.00
  -23    3    2      0.00      0.00
  -21    3    2      0.00      0.00
  -19    3    2      0.00      0.00
  -17    3    2      0.00      0.00
  -15    3    2      0.00      0.00
  -13    3    2      0.00      0.00
  -11    3    2      0.00      0.00
   -9    3    2      0.00      0.00
   -7    3    2      0.00      0.00
   -5    3    2      0.00      0.00
   -3    3    2      0.00      0.00
   -1    3    2      0.00      0.00
    1    3    2      0.00      0.00
    3    3    2      0.00      0.00
    5    3    2      0.00      0.00
    7    3    2      0.00      0.00
    9    3    2      0.00      0.00
   11    3    2      0.00      0.00
   13    3    2      0.00      0.00
   15    3    2      0.00      0.00
   17    3    2      0.00      0.00
   19    3    2      0.00      0.00
   21    3    2      0.00      0.00
   23    3    2      0.00      0.00
   25    3    2      0.00      0.00
   27    3    2      0.00      0.00
   29    3    2      0.00      0.00
   31    3    2      0.00      0.00
   33    3    2      0.00      0.00
   35    3    2      0.00      0.00
   37    3    2      0.00      0.00
   39    3    2      0.00      0.00
   41    3    2      0.00      0.00
   43    3    2      0.00      0.00
  -44    4    2      0.00      0.00
  -42    4    2      0.00      0.00
  -40    4    2      0.00      0.00
  -38    4    2      0.00      0.00
  -36    4    2      0.00      0.00
  -34    4    2      0.00      0.00
  -32    4    2      0.00      0.00
  -30    4    2      0.00      0.00
  -28    4    2      0.00      0.00
  -26    4    2      0.00      0.00
  -24    4    2      0.00      0.00
  -22    4    2      0.00      0.00
  -20    4    2      0.00      0.00
  -18    4    2      0.00      0.00
  -16    4    2      0.00      0.00
  -14    4    2      0.00      0.00
  -12    4    2      0.00      0.00
  -10    4    2      0.00      0.00
   -8    4    2      0.00      0.00
   -6    4    2      0.00      0.00
   -4    4    2      0.00      0.00
   -2    4    2      0.00      0.00
    0    4    2      0.00      0.00
    2    4    2      0.00      0.00
    4    4    2      0.00      0.00
    6    4    2      0.00      0.00
    8    4    2      0.00      0.00
   10    4    2      0.00      0.00
   12    4    2      0.00      0.00
   14    4    2      0.00      0.00
   16    4    2      0.00      0.00
   18    4    2      0.00      0.00
   20    4    2      0.00      0.00
   22    4    2      0.00      0.00
   24    4    2      0.00      0.00
   26    4    2      0.00      0.00
   28    4    2      0.00      0.00
   30    4    2      0.00      0.00
   32    4    2      0.00      0.00
   34    4    2      0.00      0.00
   36    4    2      0.00      0.00
   38    4    2      0.00      0.00
   40    4    2      0.00      0.00
   42    4    2      0.00      0.00
  -43    5    2      0.00      0.00
  -41    5    2      0.00      0.00
  -39    5    2      0.00      0.00
  -37    5    2      0.00      0.00
  -35    5    2      0.00      0.00
  -33    5    2      0.00      0.00
  -31    5    2      0.00      0.00
  -29    5    2      0.00      0.00
  -27    5    2      0.00      0.00
  -25    5    2      0.00      0.00
  -23    5    2      0.00      0.00
  -21    5    2      0.00      0.00
  -19    5    2      0.00      0.00
  -17    5    2      0.00      0.00
  -15    5    2      0.00      0.00
  -13    5    2      0.00      0.00
  -11    5    2      0.00      0.00
   -9    5    2      0.00      0.00
   -7    5    2      0.00      0.00
   -5    5    2      0.00      0.00
   -3    5    2      0.00      0.00
   -1    5    2      0.00      0.00
    1    5    2      0.00      0.00
    3    5    2      0.00      0.00
    5    5    2      0.00      0.00
    7    5    2      0.00      0.00
    9    5    2      0.00      0.00
   11    5    2      0.00      0.00
   13    5    2      0.00      0.00
   15    5    2      0.00      0.00
   17    5    2      0.00      0.00
   19    5    2      0.00      0.00
   21    5    2      0.00      0.00
   23    5    2      0.00      0.00
   25    5    2      0.00      0.00
   27    5    2      0.00      0.00
   29    5    2      0.00      0.00
   31    5    2      0.00      0.00
   33    5    2      0.00      0.00
   35    5    2      0.00      0.00
   37    5    2      0.00      0.00
   39    5    2      0.00      0.00
   41    5    2      0.00      0.00
  -42    6    2      0.00      0.00
  -40    6    2      0.00      0.00
  -38    6    2      0.00      0.00
  -36    6    2      0.00      0.00
  -34    6    2      0.00      0.00
  -32    6    2      0.00      0.00
  -30    6    2      0.00      0.00
  -28    6    2      0.00      0.00
  -26    6    2      0.00      0.00
  -24    6    2      0.00      0.00
  -22    6    2      0.00      0.00
  -20    6    2      0.00      0.00
  -18    6    2      0.00      0.00
  -16    6    2      0.00      0.00
  -14    6    2      0.00      0.00
  -12    6    2      0.00      0.00
  -10    6    2      0.00      0.00
   -8    6    2      0.00      0.00
   -6    6    2      0.00      0.00
   -4    6    2      0.00      0.00
   -2    6    2      0.00      0.00
    0    6    2      0.00      0.00
    2    6    2      0.00      0.00
    4    6    2      0.00      0.00
    6    6    2      0.00      0.00
    8    6    2      0.00      0.00
   10    6    2      0.00      0.00
   12    6    2      0.00      0.00
   14    6    2      0.00      0.00
   16    6    2      0.00      0.00
   18    6    2      0.00      0.00
   20    6    2      0.00      0.00
   22    6    2      0.00      0.00
   24    6    2      0.00      0.00
   26    6    2      0.00      0.00
   28    6    2      0.00      0.00
   30    6    2      0.00      0.00
   32    6    2      0.00      0.00
   34    6    2      0.00      0.00
   36    6    2      0.00      0.00
   38    6    2      0.00      0.00
   40    6    2      0.00      0.00
   42    6    2      0.00      0.00
  -41    7    2      0.00      0.00
  -39    7    2      0.00      0.00
  -37    7    2      0.00      0.00
  -35    7    2      0.00      0.00
  -33    7    2      0.00      0.00
  -31    7    2      0.00      0.00
  -29    7    2      0.00      0.00
  -27    7    2      0.00      0.00
  -25    7    2      0.00      0.00
  -23    7    2      0.00      0.00
  -21    7    2      0.00      0.00
  -19    7    2      0.00      0.00
  -17    7    2      0.00      0.00
  -15    7    2      0.00      0.00
  -13    7    2      0.00      0.00
  -11    7    2      0.00      0.00
   -9    7    2      0.00      0.00
   -7    7    2      0.00      0.00
   -5    7    2      0.00      0.00
   -3    7    2      0.00      0.00
   -1    7    2      0.00      0.00
    1    7    2      0.00      0.00
    3    7    2      0.00      0.00
    5    7    2      0.00      0.00
    7    7    2      0.00      0.00
    9    7    2      0.00      0.00
   11    7    2      0.00      0.00
   13    7    2      0.00      0.00
   15    7    2      0.00      0.00
   17    7    2      0.00      0.00
   19    7    2      0.00      0.00
   21    7    2      0.00      0.00
   23    7    2      0.00      0.00
   25    7    2      0.00      0.00
   27    7    2      0.00      0.00
   29    7    2      0.00      0.00
   31    7    2      0.00      0.00
   33    7    2      0.00      0.00
   35    7    2      0.00      0.00
   37    7    2      0.00      0.00
   39    7    2      0.00      0.00
   41    7    2      0.00      0.00
  -40    8    2      0.00      0.00
  -38    8    2      0.00      0.00
  -36    8    2      0.00      0.00
  -34    8    2      0.00      0.00
  -32    8    2      0.00      0.00
  -30    8    2      0.00      0.00
  -28    8    2      0.00      0.00
  -26    8    2      0.00      0.00
  -24    8    2      0.00      0.00
  -22    8    2      0.00      0.00
  -20    8    2      0.00      0.00
  -18    8    2      0.00      0.00
  -16    8    2      0.00      0.00
  -14    8    2      0.00      0.00
  -12    8    2      0.00      0.00
  -10    8    2      0.00      0.00
   -8    8    2      0.00      0.00
   -6    8    2      0.00      0.00
   -4    8    2      0.00      0.00
   -2    8    2      0.00      0.00
    0    8    2      0.00      0.00
    2    8    2      0.00      0.00
    4    8    2      0.00      0.00
    6    8    2      0.00      0.00
    8    8    2      0.00      0.00
   10    8    2      0.00      0.00
   12    8    2      0.00      0.00
   14    8    2      0.00      0.00
   16    8    2      0.00      0.00
   18    8    2      0.00      0.00
   20    8    2      0.00      0.00
   22    8    2      0.00      0.00
   24    8    2      0.00      0.00
   26    8    2      0.00      0.00
   28    8    2      0.00      0.00
   30    8    2      0.00      0.00
   32    8    2      0.00      0.00
   34    8    2      0.00      0.00
   36    8    2      0.00      0.00
   38    8    2      0.00      0.00
   40    8    2      0.00      0.00
  -39    9    2      0.00      0.00
  -37    9    2      0.00      0.00
  -35    9    2      0.00      0.00
  -33    9    2      0.00      0.00
  -31    9    2      0.00      0.00
  -29    9    2      0.00      0.00
  -27    9    2      0.00      0.00
  -25    9    2      0.00      0.00
  -23    9    2      0.00      0.00
  -21    9    2      0.00      0.00
  -19    9    2      0.00      0.00
  -17    9    2      0.00      0.00
  -15    9    2      0.00      0.00
  -13    9    2      0.00      0.00
  -11    9    2      0.00      0.00
   -9    9    2      0.00      0.00
   -7    9    2      0.00      0.00
   -5    9    2      0.00      0.00
   -3    9    2      0.00      0.00
   -1    9    2      0.00      0.00
    1    9    2      0.00      0.00
    3    9    2      0.00      0.00
    5    9    2      0.00      0.00
    7    9    2      0.00      0.00
    9    9    2      0.00      0.00
   11    9    2      0.00      0.00
   13    9    2      0.00      0.00
   15    9    2      0.00      0.00
   17    9    2      0.00      0.00
   19    9    2      0.00      0.00
   21    9    2      0.00      0.00
   23    9    2      0.00      0.00
   25    9    2      0.00      0.00
   27    9    2      0.00      0.00
   29    9    2      0.00      0.00
   31    9    2      0.00      0.00
   33    9    2      0.00      0.00
   35    9    2      0.00      0.00
   37    9    2      0.00      0.00
   39    9    2      0.00      0.00
  -38   10    2      0.00      0.00
  -36   10    2      0.00      0.00
  -34   10    2      0.00      0.00
  -32   10    2      0.00      0.00
  -30   10    2      0.00      0.00
  -28   10    2      0.00      0.00
  -26   10    2      0.00      0.00
  -24   10    2      0.00      0.00
  -22   10    2      0.00      0.00
  -20   10    2      0.00      0.00
  -18   10    2      0.00      0.00
  -16   10    2      0.00      0.00
  -14   10    2      0.00      0.00
  -12   10    2      0.00      0.00
  -10   10    2      0.00      0.00
   -8   10    2      0.00      0.00
   -6   10    2      0.00      0.00
   -4   10    2      0.00      0.00
   -2   10    2      0.00      0.00
    0   10    2      0.00      0.00
    2   10    2      0.00      0.00
    4   10    2      0.00      0.00
    6   10    2      0.00      0.00
    8   10    2      0.00      0.00
   10   10    2      0.00      0.00
   12   10    2      0.00      0.00
   14   10    2      0.00      0.00
   16   10    2      0.00      0.00
   18   10    2      0.00      0.00
   20   10    2      0.00      0.00
   22   10    2      0.00      0.00
   24   10    2      0.00      0.00
   26   10    2      0.00      0.00
   28   10    2      0.00      0.00
   30   10    2      0.00      0.00
   32   10    2      0.00      0.00
   34   10    2      0.00      0.00
   36   10    2      0.00      0.00
  -37   11    2      0.00      0.00
  -35   11    2      0.00      0.00
  -33   11    2      0.00      0.00
  -31   11    2      0.00      0.00
  -29   11    2      0.00      0.00
  -27   11    2      0.00      0.00
  -25   11    2      0.00      0.00
  -23   11    2      0.00      0.00
  -21   11    2      0.00      0.00
  -19   11    2      0.00      0.00
  -17   11    2      0.00      0.00
  -15   11    2      0.00      0.00
  -13   11    2      0.00      0.00
  -11   11    2      0.00      0.00
   -9   11    2      0.00      0.00
   -7   11    2      0.00      0.00
   -5   11    2      0.00      0.00
   -3   11    2      0.00      0.00
   -1   11    2      0.00      0.00
    1   11    2      0.00      0.00
    3   11    2      0.00      0.00
    5   11    2      0.00      0.00
    7   11    2      0.00      0.00
    9   11    2      0.00      0.00
   11   11    2      0.00      0.00
   13   11    2      0.00      0.00
   15   11    2      0.00      0.00
   17   11    2      0.00      0.00
   19   11    2      0.00      0.00
   21   11    2      0.00      0.00
   23   11    2      0.00      0.00
   25   11    2      0.00      0.00
   27   11    2      0.00      0.00
   29   11    2      0.00      0.00
   31   11    2      0.00      0.00
   33   11    2      0.00      0.00
   35   11    2      0.00      0.00
  -34   12    2      0.00      0.00
  -32   12    2      0.00      0.00
  -30   12    2      0.00      0.00
  -28   12    2      0.00      0.00
  -26   12    2      0.00      0.00
  -24   12    2      0.00      0.00
  -22   12    2      0.00      0.00
  -20   12    2      0.00      0.00
  -18   12    2      0.00      0.00
  -16   12    2      0.00      0.00
  -14   12    2      0.00      0.00
  -12   12    2      0.00      0.00
  -10   12    2      0.00      0.00
   -8   12    2      0.00      0.00
   -6   12    2      0.00      0.00
   -4   12    2      0.00      0.00
   -2   12    2      0.00      0.00
    0   12    2      0.00      0.00
    2   12    2      0.00      0.00
    4   12    2      0.00      0.00
    6   12    2      0.00      0.00
    8   12    2      0.00      0.00
   10   12    2      0.00      0.00
   12   12    2      0.00      0.00
   14   12    2      0.00      0.00
   16   12    2      0.00      0.00
   18   12    2      0.00      0.00
   20   12    2      0.00      0.00
   22   12    2      0.00      0.00
   24   12    2      0.00      0.00
   26   12    2      0.00      0.00
   28   12    2      0.00      0.00
   30   12    2      0.00      0.00
   32   12    2      0.00      0.00
   34   12    2      0.00      0.00
  -33   13    2      0.00      0.00
  -31   13    2      0.00      0.00
  -29   13    2      0.00      0.00
  -27   13    2      0.00      0.00
  -25   13    2      0.00      0.00
  -23   13    2      0.00      0.00
  -21   13    2      0.00      0.00
  -19   13    2      0.00      0.00
  -17   13    2      0.00      0.00
  -15   13    2      0.00      0.00
  -13   13    2      0.00      0.00
  -11   13    2      0.00      0.00
   -9   13    2      0.00      0.00
   -7   13    2      0.00      0.00
   -5   13    2      0.00      0.00
   -3   13    2      0.00      0.00
   -1   13    2      0.00      0.00
    1   13    2      0.00      0.00
    3   13    2      0.00      0.00
    5   13    2      0.00      0.00
    7   13    2      0.00      0.00
    9   13    2      0.00      0.00
   11   13    2      0.00      0.00
   13   13    2      0.00      0.00
   15   13    2      0.00      0.00
   17   13    2      0.00      0.00
   19   13    2      0.00      0.00
   21   13    2      0.00      0.00
   23   13    2      0.00      0.00
   25   13    2      0.00      0.00
   27   13    2      0.00      0.00
   29   13    2      0.00      0.00
   31   13    2      0.00      0.00
  -30   14    2      0.00      0.00
  -28   14    2      0.00      0.00
  -26   14    2      0.00      0.00
  -24   14    2      0.00      0.00
  -22   14    2      0.00      0.00
  -20   14    2      0.00      0.00
  -18   14    2      0.00      0.00
  -16   14    2      0.00      0.00
  -14   14    2      0.00      0.00
  -12   14    2      0.00      0.00
  -10   14    2      0.00      0.00
   -8   14    2      0.00      0.00
   -6   14    2      0.00      0.00
   -4   14    2      0.00      0.00
   -2   14    2      0.00      0.00
    0   14    2      0.00      0.00
    2   14    2      0.00      0.00
    4   14    2      0.00      0.00
    6   14    2      0.00      0.00
    8   14    2      0.00      0.00
   10   14    2      0.00      0.00
   12   14    2      0.00      0.00
   14   14    2      0.00      0.00
   16   14    2      0.00      0.00
   18   14    2      0.00      0.00
   20   14    2      0.00      0.00
   22   14    2      0.00      0.00
   24   14    2      0.00      0.00
   26   14    2      0.00      0.00
   28   14    2      0.00      0.00
  -27   15    2      0.00      0.00
  -25   15    2      0.00      0.00
  -23   15    2      0.00      0.00
  -21   15    2      0.00      0.00
  -19   15    2      0.00      0.00
  -17   15    2      0.00      0.00
  -15   15    2      0.00      0.00
  -13   15    2      0.00      0.00
  -11   15    2      0.00      0.00
   -9   15    2      0.00      0.00
   -7   15    2      0.00      0.00
   -5   15    2      0.00      0.00
   -3   15    2      0.00      0.00
   -1   15    2      0.00      0.00
    1   15    2      0.00      0.00
    3   15    2      0.00      0.00
    5   15    2      0.00      0.00
    7   15    2      0.00      0.00
    9   15    2      0.00      0.00
   11   15    2      0.00      0.00
   13   15    2      0.00      0.00
   15   15    2      0.00      0.00
   17   15    2      0.00      0.00
   19   15    2      0.00      0.00
   21   15    2      0.00      0.00
   23   15    2      0.00      0.00
   25   15    2      0.00      0.00
  -24   16    2      0.00      0.00
  -22   16    2      0.00      0.00
  -20   16    2      0.00      0.00
  -18   16    2      0.00      0.00
  -16   16    2      0.00      0.00
  -14   16    2      0.00      0.00
  -12   16    2      0.00      0.00
  -10   16    2      0.00      0.00
   -8   16    2      0.00      0.00
   -6   16    2      0.00      0.00
   -4   16    2      0.00      0.00
   -2   16    2      0.00      0.00
    0   16    2      0.00      0.00
    2   16    2      0.00      0.00
    4   16    2      0.00      0.00
    6   16    2      0.00      0.00
    8   16    2      0.00      0.00
   10   16    2      0.00      0.00
   12   16    2      0.00      0.00
   14   16    2      0.00      0.00
   16   16    2      0.00      0.00
   18   16    2      0.00      0.00
   20   16    2      0.00      0.00
   22   16    2      0.00      0.00
  -21   17    2      0.00      0.00
  -19   17    2      0.00      0.00
  -17   17    2      0.00      0.00
  -15   17    2      0.00      0.00
  -13   17    2      0.00      0.00
  -11   17    2      0.00      0.00
   -9   17    2      0.00      0.00
   -7   17    2      0.00      0.00
   -5   17    2      0.00      0.00
   -3   17    2      0.00      0.00
   -1   17    2      0.00      0.00
    1   17    2      0.00      0.00
    3   17    2      0.00      0.00
    5   17    2      0.00      0.00
    7   17    2      0.00      0.00
    9   17    2      0.00      0.00
   11   17    2      0.00      0.00
   13   17    2      0.00      0.00
   15   17    2      0.00      0.00
   17   17    2      0.00      0.00
   19   17    2      0.00      0.00
  -14   18    2      0.00      0.00
  -12   18    2      0.00      0.00
  -10   18    2      0.00      0.00
   -8   18    2      0.00      0.00
   -6   18    2      0.00      0.00
   -4   18    2      0.00      0.00
   -2   18    2      0.00      0.00
    0   18    2      0.00      0.00
    2   18    2      0.00      0.00
    4   18    2      0.00      0.00
    6   18    2      0.00      0.00
    8   18    2      0.00      0.00
   10   18    2      0.00      0.00
   12   18    2      0.00      0.00
   -1   19    2      0.00      0.00
    1   19    2      0.00      0.00
  -45    1    3      0.00      0.00
  -43    1    3      0.00      0.00
  -41    1    3      0.00      0.00
  -39    1    3      0.00      0.00
  -37    1    3      0.00      0.00
  -35    1    3      0.00      0.00
  -33    1    3      0.00      0.00
  -31    1    3      0.00      0.00
  -29    1    3      0.00      0.00
  -27    1    3      0.00      0.00
  -25    1    3      0.00      0.00
  -23    1    3      0.00      0.00
  -21    1    3      0.00      0.00
  -19    1    3      0.00      0.00
  -17    1    3      0.00      0.00
  -15    1    3      0.00      0.00
  -13    1    3      0.00      0.00
  -11    1    3      0.00      0.00
   -9    1    3      0.00      0.00
   -7    1    3      0.00      0.00
   -5    1    3      0.00      0.00
   -3    1    3      0.00      0.00
   -1    1    3      0.00      0.00
    1    1    3      0.00      0.00
    3    1    3      0.00      0.00
    5    1    3      0.00      0.00
    7    1    3      0.00      0.00
    9    1    3      0.00      0.00
   11    1    3      0.00      0.00
   13    1    3      0.00      0.00
   15    1    3      0.00      0.00
   17    1    3      0.00      0.00
   19    1    3      0.00      0.00
   21    1    3      0.00      0.00
   23    1    3      0.00      0.00
   25    1    3      0.00      0.00
   27    1    3      0.00      0.00
   29    1    3      0.00      0.00
   31    1    3      0.00      0.00
   33    1    3      0.00      0.00
   35    1    3      0.00      0.00
   37    1    3      0.00      0.00
   39    1    3      0.00      0.00
   41    1    3      0.00      0.00
   43    1    3      0.00      0.00
  -44    2    3      0.00      0.00
  -42    2    3      0.00      0.00
  -40    2    3      0.00      0.00
  -38    2    3      0.00      0.00
  -36    2    3      0.00      0.00
  -34    2    3      0.00      0.00
  -32    2    3      0.00      0.00
  -30    2    3      0.00      0.00
  -28    2    3      0.00      0.00
  -26    2    3      0.00      0.00
  -24    2    3      0.00      0.00
  -22    2    3      0.00      0.00
  -20    2    3      0.00      0.00
  -18    2    3      0.00      0.00
  -16    2    3      0.00      0.00
  -14    2    3      0.00      0.00
  -12    2    3      0.00      0.00
  -10    2    3      0.00      0.00
   -8    2    3      0.00      0.00
   -6    2    3      0.00      0.00
   -4    2    3      0.00      0.00
   -2    2    3      0.00      0.00
    0    2    3      0.00      0.00
    2    2    3      0.00      0.00
    4    2    3      0.00      0.00
    6    2    3      0.00      0.00
    8    2    3      0.00      0.00
   10    2    3      0.00      0.00
   12    2    3      0.00      0.00
   14    2    3      0.00      0.00
   16    2    3      0.00      0.00
   18    2    3      0.00      0.00
   20    2    3      0.00      0.00
   22    2    3      0.00      0.00
   24    2    3      0.00      0.00
   26    2    3      0.00      0.00
   28    2    3      0.00      0.00
   30    2    3      0.00      0.00
   32    2    3      0.00      0.00
   34    2    3      0.00      0.00
   36    2    3      0.00      0.00
   38    2    3      0.00      0.00
   40    2    3      0.00      0.00
   42    2    3      0.00      0.00
  -45    3    3      0.00      0.00
  -43    3    3      0.00      0.00
  -41    3    3      0.00      0.00
  -39    3    3      0.00      0.00
  -37    3    3      0.00      0.00
  -35    3    3      0.00      0.00
  -33    3    3      0.00      0.00
  -31    3    3      0.00      0.00
  -29    3    3      0.00      0.00
  -27    3    3      0.00      0.00
  -25    3    3      0.00      0.00
  -23    3    3      0.00      0.00
  -21    3    3      0.00      0.00
  -19    3    3      0.00      0.00
  -17    3    3      0.00      0.00
  -15    3    3      0.00      0.00
  -13    3    3      0.00      0.00
  -11    3    3      0.00      0.00
   -9    3    3      0.00      0.00
   -7    3    3      0.00      0.00
   -5    3    3      0.00      0.00
   -3    3    3      0.00      0.00
   -1    3    3      0.00      0.00
    1    3    3      0.00      0.00
    3    3    3      0.00      0.00
    5    3    3      0.00      0.00
    7    3    3      0.00      0.00
    9    3    3      0.00      0.00
   11    3    3      0.00      0.00
   13    3    3      0.00      0.00
   15    3    3      0.00      0.00
   17    3    3      0.00      0.00
   19    3    3      0.00      0.00
   21    3    3      0.00      0.00
   23    3    3      0.00      0.00
   25    3    3      0.00      0.00
   27    3    3      0.00      0.00
   29    3    3      0.00      0.00
   31    3    3      0.00      0.00
   33    3    3      0.00      0.00
   35    3    3      0.00      0.00
   37    3    3      0.00      0.00
   39    3    3      0.00      0.00
   41    3    3      0.00      0.00
   43    3    3      0.00      0.00
  -44    4    3      0.00      0.00
  -42    4    3      0.00      0.00
  -40    4    3      0.00      0.00
  -38    4    3      0.00      0.00
  -36    4    3      0.00      0.00
  -34    4    3      0.00      0.00
  -32    4    3      0.00      0.00
  -30    4    3      0.00      0.00
  -28    4    3      0.00      0.00
  -26    4    3      0.00      0.00
  -24    4    3      0.00      0.00
  -22    4    3      0.00      0.00
  -20    4    3      0.00      0.00
  -18    4    3      0.00      0.00
  -16    4    3      0.00      0.00
  -14    4    3      0.00      0.00
  -12    4    3      0.00      0.00
  -10    4    3      0.00      0.00
   -8    4    3      0.00      0.00
   -6    4    3      0.00      0.00
   -4    4    3      0.00      0.00
   -2    4    3      0.00      0.00
    0    4    3      0.00      0.00
    2    4    3      0.00      0.00
    4    4    3      0.00      0.00
    6    4    3      0.00      0.00
    8    4    3      0.00      0.00
   10    4    3      0.00      0.00
   12    4    3      0.00      0.00
   14    4    3      0.00      0.00
   16    4    3      0.00      0.00
   18    4    3      0.00      0.00
   20    4    3      0.00      0.00
   22    4    3      0.00      0.00
   24    4    3      0.00      0.00
   26    4    3      0.00      0.00
   28    4    3      0.00      0.00
   30    4    3      0.00      0.00
   32    4    3      0.00      0.00
   34    4    3      0.00      0.00
   36    4    3      0.00      0.00
   38    4    3      0.00      0.00
   40    4    3      0.00      0.00
   42    4    3      0.00      0.00
  -43    5    3      0.00      0.00
  -41    5    3      0.00      0.00
  -39    5    3      0.00      0.00
  -37    5    3      0.00      0.00
  -35    5    3      0.00      0.00
  -33    5    3      0.00      0.00
  -31    5    3      0.00      0.00
  -29    5    3      0.00      0.00
  -27    5    3      0.00      0.00
  -25    5    3      0.00      0.00
  -23    5    3      0.00      0.00
  -21    5    3      0.00      0.00
  -19    5    3      0.00      0.00
  -17    5    3      0.00      0.00
  -15    5    3      0.00      0.00
  -13    5    3      0.00      0.00
  -11    5    3      0.00      0.00
   -9    5    3      0.00      0.00
   -7    5    3      0.00      0.00
   -5    5    3      0.00      0.00
   -3    5    3      0.00      0.00
   -1    5    3      0.00      0.00
    1    5    3      0.00      0.00
    3    5    3      0.00      0.00
    5    5    3      0.00      0.00
    7    5    3      0.00      0.00
    9    5    3      0.00      0.00
   11    5    3      0.00      0.00
   13    5    3      0.00      0.00
   15    5    3      0.00      0.00
   17    5    3      0.00      0.00
   19    5    3      0.00      0.00
   21    5    3      0.00      0.00
   23    5    3      0.00      0.00
   25    5    3      0.00      0.00
   27    5    3      0.00      0.00
   29    5    3      0.00      0.00
   31    5    3      0.00      0.00
   33    5    3      0.00      0.00
   35    5    3      0.00      0.00
   37    5    3      0.00      0.00
   39    5    3      0.00      0.00
   41    5    3      0.00      0.00
  -42    6    3      0.00      0.00
  -40    6    3      0.00      0.00
  -38    6    3      0.00      0.00
  -36    6    3      0.00      0.00
  -34    6    3      0.00      0.00
  -32    6    3      0.00      0.00
  -30    6    3      0.00      0.00
  -28    6    3      0.00      0.00
  -26    6    3      0.00      0.00
  -24    6    3      0.00      0.00
  -22    6    3      0.00      0.00
  -20    6    3      0.00      0.00
  -18    6    3      0.00      0.00
  -16    6    3      0.00      0.00
  -14    6    3      0.00      0.00
  -12    6    3      0.00      0.00
  -10    6    3      0.00      0.00
   -8    6    3      0.00      0.00
   -6    6    3      0.00      0.00
   -4    6    3      0.00      0.00
   -2    6    3      0.00      0.00
    0    6    3      0.00      0.00
    2    6    3      0.00      0.00
    4    6    3      0.00      0.00
    6    6    3      0.00      0.00
    8    6    3      0.00      0.00
   10    6    3      0.00      0.00
   12    6    3      0.00      0.00
   14    6    3      0.00      0.00
   16    6    3      0.00      0.00
   18    6    3      0.00      0.00
   20    6    3      0.00      0.00
   22    6    3      0.00      0.00
   24    6    3      0.00      0.00
   26    6    3      0.00      0.00
   28    6    3      0.00      0.00
   30    6    3      0.00      0.00
   32    6    3      0.00      0.00
   34    6    3      0.00      0.00
   36    6    3      0.00      0.00
   38    6    3      0.00      0.00
   40    6    3      0.00      0.00
  -41    7    3      0.00      0.00
  -39    7    3      0.00      0.00
  -37    7    3      0.00      0.00
  -35    7    3      0.00      0.00
  -33    7    3      0.00      0.00
  -31    7    3      0.00      0.00
  -29    7    3      0.00      0.00
  -27    7    3      0.00      0.00
  -25    7    3      0.00      0.00
  -23    7    3      0.00      0.00
  -21    7    3      0.00      0.00
  -19    7    3      0.00      0.00
  -17    7    3      0.00      0.00
  -15    7    3      0.00      0.00
  -13    7    3      0.00      0.00
  -11    7    3      0.00      0.00
   -9    7    3      0.00      0.00
   -7    7    3      0.00      0.00
   -5    7    3      0.00      0.00
   -3    7    3      0.00      0.00
   -1    7    3      0.00      0.00
    1    7    3      0.00      0.00
    3    7    3      0.00      0.00
    5    7    3      0.00      0.00
    7    7    3      0.00      0.00
    9    7    3      0.00      0.00
   11    7    3      0.00      0.00
   13    7    3      0.00      0.00
   15    7    3      0.00      0.00
   17    7    3      0.00      0.00
   19    7    3      0.00      0.00
   21    7    3      0.00      0.00
   23    7    3      0.00      0.00
   25    7    3      0.00      0.00
   27    7    3      0.00      0.00
   29    7    3      0.00      0.00
   31    7    3      0.00      0.00
   33    7    3      0.00      0.00
   35    7    3      0.00      0.00
   37    7    3      0.00      0.00
   39    7    3      0.00      0.00
  -40    8    3      0.00      0.00
  -38    8    3      0.00      0.00
  -36    8    3      0.00      0.00
  -34    8    3      0.00      0.00
  -32    8    3      0.00      0.00
  -30    8    3      0.00      0.00
  -28    8    3      0.00      0.00
  -26    8    3      0.00      0.00
  -24    8    3      0.00      0.00
  -22    8    3      0.00      0.00
  -20    8    3      0.00      0.00
  -18    8    3      0.00      0.00
  -16    8    3      0.00      0.00
  -14    8    3      0.00      0.00
  -12    8    3      0.00      0.00
  -10    8    3      0.00      0.00
   -8    8    3      0.00      0.00
   -6    8    3      0.00      0.00
   -4    8    3      0.00      0.00
   -2    8    3      0.00      0.00
    0    8    3      0.00      0.00
    2    8    3      0.00      0.00
    4    8    3      0.00      0.00
    6    8    3      0.00      0.00
    8    8    3      0.00      0.00
   10    8    3      0.00      0.00
   12    8    3      0.00      0.00
   14    8    3      0.00      0.00
   16    8    3      0.00      0.00
   18    8    3      0.00      0.00
   20    8    3      0.00      0.00
   22    8    3      0.00      0.00
   24    8    3      0.00      0.00
   26    8    3      0.00      0.00
   28    8    3      0.00      0.00
   30    8    3      0.00      0.00
   32    8    3      0.00      0.00
   34    8    3      0.00      0.00
   36    8    3      0.00      0.00
   38    8    3      0.00      0.00
  -39    9    3      0.00      0.00
  -37    9    3      0.00      0.00
  -35    9    3      0.00      0.00
  -33    9    3      0.00      0.00
  -31    9    3      0.00      0.00
  -29    9    3      0.00      0.00
  -27    9    3      0.00      0.00
  -25    9    3      0.00      0.00
  -23    9    3      0.00      0.00
  -21    9    3      0.00      0.00
  -19    9    3      0.00      0.00
  -17    9    3      0.00      0.00
  -15    9    3      0.00      0.00
  -13    9    3      0.00      0.00
  -11    9    3      0.00      0.00
   -9    9    3      0.00      0.00
   -7    9    3      0.00      0.00
   -5    9    3      0.00      0.00
   -3    9    3      0.00      0.00
   -1    9    3      0.00      0.00
    1    9    3      0.00      0.00
    3    9    3      0.00      0.00
    5    9    3      0.00      0.00
    7    9    3      0.00      0.00
    9    9    3      0.00      0.00
   11    9    3      0.00      0.00
   13    9    3      0.00      0.00
   15    9    3      0.00      0.00
   17    9    3      0.00      0.00
   19    9    3      0.00      0.00
   21    9    3      0.00      0.00
   23    9    3      0.00      0.00
   25    9    3      0.00      0.00
   27    9    3      0.00      0.00
   29    9    3      0.00      0.00
   31    9    3      0.00      0.00
   33    9    3      0.00      0.00
   35    9    3      0.00      0.00
   37    9    3      0.00      0.00
  -38   10    3      0.00      0.00
  -36   10    3      0.00      0.00
  -34   10    3      0.00      0.00
  -32   10    3      0.00      0.00
  -30   10    3      0.00      0.00
  -28   10    3      0.00      0.00
  -26   10    3      0.00      0.00
  -24   10    3      0.00      0.00
  -22   10    3      0.00      0.00
  -20   10    3      0.00      0.00
  -18   10    3      0.00      0.00
  -16   10    3      0.00      0.00
  -14   10    3      0.00      0.00
  -12   10    3      0.00      0.00
  -10   10    3      0.00      0.00
   -8   10    3      0.00      0.00
   -6   10    3      0.00      0.00
   -4   10    3      0.00      0.00
   -2   10    3      0.00      0.00
    0   10    3      0.00      0.00
    2   10    3      0.00      0.00
    4   10    3      0.00      0.00
    6   10    3      0.00      0.00
    8   10    3      0.00      0.00
   10   10    3      0.00      0.00
   12   10    3      0.00      0.00
   14   10    3      0.00      0.00
   16   10    3      0.00      0.00
   18   10    3      0.00      0.00
   20   10    3      0.00      0.00
   22   10    3      0.00      0.00
   24   10    3      0.00      0.00
   26   10    3      0.00      0.00
   28   10    3      0.00      0.00
   30   10    3      0.00      0.00
   32   10    3      0.00      0.00
   34   10    3      0.00      0.00
   36   10    3      0.00      0.00
  -37   11    3      0.00      0.00
  -35   11    3      0.00      0.00
  -33   11    3      0.00      0.00
  -31   11    3      0.00      0.00
  -29   11    3      0.00      0.00
  -27   11    3      0.00      0.00
  -25   11    3      0.00      0.00
  -23   11    3      0.00      0.00
  -21   11    3      0.00      0.00
  -19   11    3      0.00      0.00
  -17   11    3      0.00      0.00
  -15   11    3      0.00      0.00
  -13   11    3      0.00      0.00
  -11   11    3      0.00      0.00
   -9   11    3      0.00      0.00
   -7   11    3      0.00      0.00
   -5   11    3      0.00      0.00
   -3   11    3      0.00      0.00
   -1   11    3      0.00      0.00
    1   11    3      0.00      0.00
    3   11    3      0.00      0.00
    5   11    3      0.00      0.00
    7   11    3      0.00      0.00
    9   11    3      0.00      0.00
   11   11    3      0.00      0.00
   13   11    3      0.00      0.00
   15   11    3      0.00      0.00
   17   11    3      0.00      0.00
   19   11    3      0.00      0.00
   21   11    3      0.00      0.00
   23   11    3      0.00      0.00
   25   11    3      0.00      0.00
   27   11    3      0.00      0.00
   29   11    3      0.00      0.00
   31   11    3      0.00      0.00
   33   11    3      0.00      0.00
   35   11    3      0.00      0.00
  -34   12    3      0.00      0.00
  -32   12    3      0.00      0.00
  -30   12    3      0.00      0.00
  -28   12    3      0.00      0.00
  -26   12    3      0.00      0.00
  -24   12    3      0.00      0.00
  -22   12    3      0.00      0.00
  -20   12    3      0.00      0.00
  -18   12    3      0.00      0.00
  -16   12    3      0.00      0.00
  -14   12    3      0.00      0.00
  -12   12    3      0.00      0.00
  -10   12    3      0.00      0.00
   -8   12    3      0.00      0.00
   -6   12    3      0.00      0.00
   -4   12    3      0.00      0.00
   -2   12    3      0.00      0.00
    0   12    3      0.00      0.00
    2   12    3      0.00      0.00
    4   12    3      0.00      0.00
    6   12    3      0.00      0.00
    8   12    3      0.00      0.00
   10   12    3      0.00      0.00
   12   12    3      0.00      0.00
   14   12    3      0.00      0.00
   16   12    3      0.00      0.00
   18   12    3      0.00      0.00
   20   12    3      0.00      0.00
   22   12    3      0.00      0.00
   24   12    3      0.00      0.00
   26   12    3      0.00      0.00
   28   12    3      0.00      0.00
   30   12    3      0.00      0.00
   32   12    3      0.00      0.00
  -33   13    3      0.00      0.00
  -31   13    3      0.00      0.00
  -29   13    3      0.00      0.00
  -27   13    3      0.00      0.00
  -25   13    3      0.00      0.00
  -23   13    3      0.00      0.00
  -21   13    3      0.00      0.00
  -19   13    3      0.00      0.00
  -17   13    3      0.00      0.00
  -15   13    3      0.00      0.00
  -13   13    3      0.00      0.00
  -11   13    3      0.00      0.00
   -9   13    3      0.00      0.00
   -7   13    3      0.00      0.00
   -5   13    3      0.00      0.00
   -3   13    3      0.00      0.00
   -1   13    3      0.00      0.00
    1   13    3      0.00      0.00
    3   13    3      0.00      0.00
    5   13    3      0.00      0.00
    7   13    3      0.00      0.00
    9   13    3      0.00      0.00
   11   13    3      0.00      0.00
   13   13    3      0.00      0.00
   15   13    3      0.00      0.00
   17   13    3      0.00      0.00
   19   13    3      0.00      0.00
   21   13    3      0.00      0.00
   23   13    3      0.00      0.00
   25   13    3      0.00      0.00
   27   13    3      0.00      0.00
   29   13    3      0.00      0.00
   31   13    3      0.00      0.00
  -30   14    3      0.00      0.00
  -28   14    3      0.00      0.00
  -26   14    3      0.00      0.00
  -24   14    3      0.00      0.00
  -22   14    3      0.00      0.00
  -20   14    3      0.00      0.00
  -18   14    3      0.00      0.00
  -16   14    3      0.00      0.00
  -14   14    3      0.00      0.00
  -12   14    3      0.00      0.00
  -10   14    3      0.00      0.00
   -8   14    3      0.00      0.00
   -6   14    3      0.00      0.00
   -4   14    3      0.00      0.00
   -2   14    3      0.00      0.00
    0   14    3      0.00      0.00
    2   14    3      0.00      0.00
    4   14    3      0.00      0.00
    6   14    3      0.00      0.00
    8   14    3      0.00      0.00
   10   14    3      0.00      0.00
   12   14    3      0.00      0.00
   14   14    3      0.00      0.00
   16   14    3      0.00      0.00
   18   14    3      0.00      0.00
   20   14    3      0.00      0.00
   22   14    3      0.00      0.00
   24   14    3      0.00      0.00
   26   14    3      0.00      0.00
   28   14    3      0.00      0.00
  -27   15    3      0.00      0.00
  -25   15    3      0.00      0.00
  -23   15    3      0.00      0.00
  -21   15    3      0.00      0.00
  -19   15    3      0.00      0.00
  -17   15    3      0.00      0.00
  -15   15    3      0.00      0.00
  -13   15    3      0.00      0.00
  -11   15    3      0.00      0.00
   -9   15    3      0.00      0.00
   -7   15    3      0.00      0.00
   -5   15    3      0.00      0.00
   -3   15    3      0.00      0.00
   -1   15    3      0.00      0.00
    1   15    3      0.00      0.00
    3   15    3      0.00      0.00
    5   15    3      0.00      0.00
    7   15    3      0.00      0.00
    9   15    3      0.00      0.00
   11   15    3      0.00      0.00
   13   15    3      0.00      0.00
   15   15    3      0.00      0.00
   17   15    3      0.00      0.00
   19   15    3      0.00      0.00
   21   15    3      0.00      0.00
   23   15    3      0.00      0.00
   25   15    3      0.00      0.00
  -24   16    3      0.00      0.00
  -22   16    3      0.00      0.00
  -20   16    3      0.00      0.00
  -18   16    3      0.00      0.00
  -16   16    3      0.00      0.00
  -14   16    3      0.00      0.00
  -12   16    3      0.00      0.00
  -10   16    3      0.00      0.00
   -8   16    3      0.00      0.00
   -6   16    3      0.00      0.00
   -4   16    3      0.00      0.00
   -2   16    3      0.00      0.00
    0   16    3      0.00      0.00
    2   16    3      0.00      0.00
    4   16    3      0.00      0.00
    6   16    3      0.00      0.00
    8   16    3      0.00      0.00
   10   16    3      0.00      0.00
   12   16    3      0.00      0.00
   14   16    3      0.00      0.00
   16   16    3      0.00      0.00
   18   16    3      0.00      0.00
   20   16    3      0.00      0.00
   22   16    3      0.00      0.00
  -19   17    3      0.00      0.00
  -17   17    3      0.00      0.00
  -15   17    3      0.00      0.00
  -13   17    3      0.00      0.00
  -11   17    3      0.00      0.00
   -9   17    3      0.00      0.00
   -7   17    3      0.00      0.00
   -5   17    3      0.00      0.00
   -3   17    3      0.00      0.00
   -1   17    3      0.00      0.00
    1   17    3      0.00      0.00
    3   17    3      0.00      0.00
    5   17    3      0.00      0.00
    7   17    3      0.00      0.00
    9   17    3      0.00      0.00
   11   17    3      0.00      0.00
   13   17    3      0.00      0.00
   15   17    3      0.00      0.00
   17   17    3      0.00      0.00
  -14   18    3      0.00      0.00
  -12   18    3      0.00      0.00
  -10   18    3      0.00      0.00
   -8   18    3      0.00      0.00
   -6   18    3      0.00      0.00
   -4   18    3      0.00      0.00
   -2   18    3      0.00      0.00
    0   18    3      0.00      0.00
    2   18    3      0.00      0.00
    4   18    3      0.00      0.00
    6   18    3      0.00      0.00
    8   18    3      0.00      0.00
   10   18    3      0.00      0.00
   12   18    3      0.00      0.00
  -46    0    4      0.00      0.00
  -44    0    4      0.00      0.00
  -42    0    4      0.00      0.00
  -40    0    4      0.00      0.00
  -38    0    4      0.00      0.00
  -36    0    4      0.00      0.00
  -34    0    4      0.00      0.00
  -32    0    4      0.00      0.00
  -30    0    4      0.00      0.00
  -28    0    4      0.00      0.00
  -26    0    4      0.00      0.00
  -24    0    4      0.00      0.00
  -22    0    4      0.00      0.00
  -20    0    4      0.00      0.00
  -18    0    4      0.00      0.00
  -16    0    4      0.00      0.00
  -14    0    4      0.00      0.00
  -12    0    4      0.00      0.00
  -10    0    4      0.00      0.00
   -8    0    4      0.00      0.00
   -4    0    4      0.00      0.00
   -2    0    4      0.00      0.00
    0    0    4      0.00      0.00
    2    0    4      0.00      0.00
    4    0    4      0.00      0.00
    6    0    4      0.00      0.00
    8    0    4      0.00      0.00
   10    0    4      0.00      0.00
   12    0    4      0.00      0.00
   14    0    4      0.00      0.00
   16    0    4      0.00      0.00
   18    0    4      0.00      0.00
   20    0    4      0.00      0.00
   22    0    4      0.00      0.00
   24    0    4      0.00      0.00
   26    0    4      0.00      0.00
   28    0    4      0.00      0.00
   30    0    4      0.00      0.00
   32    0    4      0.00      0.00
   34    0    4      0.00      0.00
   36    0    4      0.00      0.00
   38    0    4      0.00      0.00
   40    0    4      0.00      0.00
   42    0    4      0.00      0.00
  -45    1    4      0.00      0.00
  -43    1    4      0.00      0.00
  -41    1    4      0.00      0.00
  -39    1    4      0.00      0.00
  -37    1    4      0.00      0.00
  -35    1    4      0.00      0.00
  -33    1    4      0.00      0.00
  -31    1    4      0.00      0.00
  -29    1    4      0.00      0.00
  -27    1    4      0.00      0.00
  -25    1    4      0.00      0.00
  -23    1    4      0.00      0.00
  -21    1    4      0.00      0.00
  -19    1    4      0.00      0.00
  -17    1    4      0.00      0.00
  -15    1    4      0.00      0.00
  -13    1    4      0.00      0.00
  -11    1    4      0.00      0.00
   -9    1    4      0.00      0.00
   -7    1    4      0.00      0.00
   -5    1    4      0.00      0.00
   -3    1    4      0.00      0.00
   -1    1    4      0.00      0.00
    1    1    4      0.00      0.00
    3    1    4      0.00      0.00
    5    1    4      0.00      0.00
    7    1    4      0.00      0.00
    9    1    4      0.00      0.00
   11    1    4      0.00      0.00
   13    1    4      0.00      0.00
   15    1    4      0.00      0.00
   17    1    4      0.00      0.00
   19    1    4      0.00      0.00
   21    1    4      0.00      0.00
   23    1    4      0.00      0.00
   25    1    4      0.00      0.00
   27    1    4      0.00      0.00
   29    1    4      0.00      0.00
   31    1    4      0.00      0.00
   33    1    4      0.00      0.00
   35    1    4      0.00      0.00
   37    1    4      0.00      0.00
   39    1    4      0.00      0.00
   41    1    4      0.00      0.00
  -44    2    4      0.00      0.00
  -42    2    4      0.00      0.00
  -40    2    4      0.00      0.00
  -38    2    4      0.00      0.00
  -36    2    4      0.00      0.00
  -34    2    4      0.00      0.00
  -32    2    4      0.00      0.00
  -30    2    4      0.00      0.00
  -28    2    4      0.00      0.00
  -26    2    4      0.00      0.00
  -24    2    4      0.00      0.00
  -22    2    4      0.00      0.00
  -20    2    4      0.00      0.00
  -18    2    4      0.00      0.00
  -16    2    4      0.00      0.00
  -14    2    4      0.00      0.00
  -12    2    4      0.00      0.00
  -10    2    4      0.00      0.00
   -8    2    4      0.00      0.00
   -6    2    4      0.00      0.00
   -4    2    4      0.00      0.00
   -2    2    4      0.00      0.00
    0    2    4      0.00      0.00
    2    2    4      0.00      0.00
    4    2    4      0.00      0.00
    6    2    4      0.00      0.00
    8    2    4      0.00      0.00
   10    2    4      0.00      0.00
   12    2    4      0.00      0.00
   14    2    4      0.00      0.00
   16    2    4      0.00      0.00
   18    2    4      0.00      0.00
   20    2    4      0.00      0.00
   22    2    4      0.00      0.00
   24    2    4      0.00      0.00
   26    2    4      0.00      0.00
   28    2    4      0.00      0.00
   30    2    4      0.00      0.00
   32    2    4      0.00      0.00
   34    2    4      0.00      0.00
   36    2    4      0.00      0.00
   38    2    4      0.00      0.00
   40    2    4      0.00      0.00
   42    2    4      0.00      0.00
  -45    3    4      0.00      0.00
  -43    3    4      0.00      0.00
  -41    3    4      0.00      0.00
  -39    3    4      0.00      0.00
  -37    3    4      0.00      0.00
  -35    3    4      0.00      0.00
  -33    3    4      0.00      0.00
  -31    3    4      0.00      0.00
  -29    3    4      0.00      0.00
  -27    3    4      0.00      0.00
  -25    3    4      0.00      0.00
  -23    3    4      0.00      0.00
  -21    3    4      0.00      0.00
  -19    3    4      0.00      0.00
  -17    3    4      0.00      0.00
  -15    3    4      0.00      0.00
  -13    3    4      0.00      0.00
  -11    3    4      0.00      0.00
   -9    3    4      0.00      0.00
   -7    3    4      0.00      0.00
   -5    3    4      0.00      0.00
   -3    3    4      0.00      0.00
   -1    3    4      0.00      0.00
    1    3    4      0.00      0.00
    3    3    4      0.00      0.00
    5    3    4      0.00      0.00
    7    3    4      0.00      0.00
    9    3    4      0.00      0.00
   11    3    4      0.00      0.00
   13    3    4      0.00      0.00
   15    3    4      0.00      0.00
   17    3    4      0.00      0.00
   19    3    4      0.00      0.00
   21    3    4      0.00      0.00
   23    3    4      0.00      0.00
   25    3    4      0.00      0.00
   27    3    4      0.00      0.00
   29    3    4      0.00      0.00
   31    3    4      0.00      0.00
   33    3    4      0.00      0.00
   35    3    4      0.00      0.00
   37    3    4      0.00      0.00
   39    3    4      0.00      0.00
   41    3    4      0.00      0.00
  -44    4    4      0.00      0.00
  -42    4    4      0.00      0.00
  -40    4    4      0.00      0.00
  -38    4    4      0.00      0.00
  -36    4    4      0.00      0.00
  -34    4    4      0.00      0.00
  -32    4    4      0.00      0.00
  -30    4    4      0.00      0.00
  -28    4    4      0.00      0.00
  -26    4    4      0.00      0.00
  -24    4    4      0.00      0.00
  -22    4    4      0.00      0.00
  -20    4    4      0.00      0.00
  -18    4    4      0.00      0.00
  -16    4    4      0.00      0.00
  -14    4    4      0.00      0.00
  -12    4    4      0.00      0.00
  -10    4    4      0.00      0.00
   -8    4    4      0.00      0.00
   -6    4    4      0.00      0.00
   -4    4    4      0.00      0.00
   -2    4    4      0.00      0.00
    0    4    4      0.00      0.00
    2    4    4      0.00      0.00
    4    4    4      0.00      0.00
    6    4    4      0.00      0.00
    8    4    4      0.00      0.00
   10    4    4      0.00      0.00
   12    4    4      0.00      0.00
   14    4    4      0.00      0.00
   16    4    4      0.00      0.00
   18    4    4      0.00      0.00
   20    4    4      0.00      0.00
   22    4    4      0.00      0.00
   24    4    4      0.00      0.00
   26    4    4      0.00      0.00
   28    4    4      0.00      0.00
   30    4    4      0.00      0.00
   32    4    4      0.00      0.00
   34    4    4      0.00      0.00
   36    4    4      0.00      0.00
   38    4    4      0.00      0.00
   40    4    4      0.00      0.00
  -43    5    4      0.00      0.00
  -41    5    4      0.00      0.00
  -39    5    4      0.00      0.00
  -37    5    4      0.00      0.00
  -35    5    4      0.00      0.00
  -33    5    4      0.00      0.00
  -31    5    4      0.00      0.00
  -29    5    4      0.00      0.00
  -27    5    4      0.00      0.00
  -25    5    4      0.00      0.00
  -23    5    4      0.00      0.00
  -21    5    4      0.00      0.00
  -19    5    4      0.00      0.00
  -17    5    4      0.00      0.00
  -15    5    4      0.00      0.00
  -13    5    4      0.00      0.00
  -11    5    4      0.00      0.00
   -9    5    4      0.00      0.00
   -7    5    4      0.00      0.00
   -5    5    4      0.00      0.00
   -3    5    4      0.00      0.00
   -1    5    4      0.00      0.00
    1    5    4      0.00      0.00
    3    5    4      0.00      0.00
    5    5    4      0.00      0.00
    7    5    4      0.00      0.00
    9    5    4      0.00      0.00
   11    5    4      0.00      0.00
   13    5    4      0.00      0.00
   15    5    4      0.00      0.00
   17    5    4      0.00      0.00
   19    5    4      0.00      0.00
   21    5    4      0.00      0.00
   23    5    4      0.00      0.00
   25    5    4      0.00      0.00
   27    5    4      0.00      0.00
   29    5    4      0.00      0.00
   31    5    4      0.00      0.00
   33    5    4      0.00      0.00
   35    5    4      0.00      0.00
   37    5    4      0.00      0.00
   39    5    4      0.00      0.00
   41    5    4      0.00      0.00
  -42    6    4      0.00      0.00
  -40    6    4      0.00      0.00
  -38    6    4      0.00      0.00
  -36    6    4      0.00      0.00
  -34    6    4      0.00      0.00
  -32    6    4      0.00      0.00
  -30    6    4      0.00      0.00
  -28    6    4      0.00      0.00
  -26    6    4      0.00      0.00
  -24    6    4      0.00      0.00
  -22    6    4      0.00      0.00
  -20    6    4      0.00      0.00
  -18    6    4      0.00      0.00
  -16    6    4      0.00      0.00
  -14    6    4      0.00      0.00
  -12    6    4      0.00      0.00
  -10    6    4      0.00      0.00
   -8    6    4      0.00      0.00
   -6    6    4      0.00      0.00
   -4    6    4      0.00      0.00
   -2    6    4      0.00      0.00
    0    6    4      0.00      0.00
    2    6    4      0.00      0.00
    4    6    4      0.00      0.00
    6    6    4      0.00      0.00
    8    6    4      0.00      0.00
   10    6    4      0.00      0.00
   12    6    4      0.00      0.00
   14    6    4      0.00      0.00
   16    6    4      0.00      0.00
   18    6    4      0.00      0.00
   20    6    4      0.00      0.00
   22    6    4      0.00      0.00
   24    6    4      0.00      0.00
   26    6    4      0.00      0.00
   28    6    4      0.00      0.00
   30    6    4      0.00      0.00
   32    6    4      0.00      0.00
   34    6    4      0.00      0.00
   36    6    4      0.00      0.00
   38    6    4      0.00      0.00
   40    6    4      0.00      0.00
  -43    7    4      0.00      0.00
  -41    7    4      0.00      0.00
  -39    7    4      0.00      0.00
  -37    7    4      0.00      0.00
  -35    7    4      0.00      0.00
  -33    7    4      0.00      0.00
  -31    7    4      0.00      0.00
  -29    7    4      0.00      0.00
  -27    7    4      0.00      0.00
  -25    7    4      0.00      0.00
  -23    7    4      0.00      0.00
  -21    7    4      0.00      0.00
  -19    7    4      0.00      0.00
  -17    7    4      0.00      0.00
  -15    7    4      0.00      0.00
  -13    7    4      0.00      0.00
  -11    7    4      0.00      0.00
   -9    7    4      0.00      0.00
   -7    7    4      0.00      0.00
   -5    7    4      0.00      0.00
   -3    7    4      0.00      0.00
   -1    7    4      0.00      0.00
    1    7    4      0.00      0.00
    3    7    4      0.00      0.00
    5    7    4      0.00      0.00
    7    7    4      0.00      0.00
    9    7    4      0.00      0.00
   11    7    4      0.00      0.00
   13    7    4      0.00      0.00
   15    7    4      0.00      0.00
   17    7    4      0.00      0.00
   19    7    4      0.00      0.00
   21    7    4      0.00      0.00
   23    7    4      0.00      0.00
   25    7    4      0.00      0.00
   27    7    4      0.00      0.00
   29    7    4      0.00      0.00
   31    7    4      0.00      0.00
   33    7    4      0.00      0.00
   35    7    4      0.00      0.00
   37    7    4      0.00      0.00
   39    7    4      0.00      0.00
  -40    8    4      0.00      0.00
  -38    8    4      0.00      0.00
  -36    8    4      0.00      0.00
  -34    8    4      0.00      0.00
  -32    8    4      0.00      0.00
  -30    8    4      0.00      0.00
  -28    8    4      0.00      0.00
  -26    8    4      0.00      0.00
  -24    8    4      0.00      0.00
  -22    8    4      0.00      0.00
  -20    8    4      0.00      0.00
  -18    8    4      0.00      0.00
  -16    8    4      0.00      0.00
  -14    8    4      0.00      0.00
  -12    8    4      0.00      0.00
  -10    8    4      0.00      0.00
   -8    8    4      0.00      0.00
   -6    8    4      0.00      0.00
   -4    8    4      0.00      0.00
   -2    8    4      0.00      0.00
    0    8    4      0.00      0.00
    2    8    4      0.00      0.00
    4    8    4      0.00      0.00
    6    8    4      0.00      0.00
    8    8    4      0.00      0.00
   10    8    4      0.00      0.00
   12    8    4      0.00      0.00
   14    8    4      0.00      0.00
   16    8    4      0.00      0.00
   18    8    4      0.00      0.00
   20    8    4      0.00      0.00
   22    8    4      0.00      0.00
   24    8    4      0.00      0.00
   26    8    4      0.00      0.00
   28    8    4      0.00      0.00
   30    8    4      0.00      0.00
   32    8    4      0.00      0.00
   34    8    4      0.00      0.00
   36    8    4      0.00      0.00
   38    8    4      0.00      0.00
  -39    9    4      0.00      0.00
  -37    9    4      0.00      0.00
  -35    9    4      0.00      0.00
  -33    9    4      0.00      0.00
  -31    9    4      0.00      0.00
  -29    9    4      0.00      0.00
  -27    9    4      0.00      0.00
  -25    9    4      0.00      0.00
  -23    9    4      0.00      0.00
  -21    9    4      0.00      0.00
  -19    9    4      0.00      0.00
  -17    9    4      0.00      0.00
  -15    9    4      0.00      0.00
  -13    9    4      0.00      0.00
  -11    9    4      0.00      0.00
   -9    9    4      0.00      0.00
   -7    9    4      0.00      0.00
   -5    9    4      0.00      0.00
   -3    9    4      0.00      0.00
   -1    9    4      0.00      0.00
    1    9    4      0.00      0.00
    3    9    4      0.00      0.00
    5    9    4      0.00      0.00
    7    9    4      0.00      0.00
    9    9    4      0.00      0.00
   11    9    4      0.00      0.00
   13    9    4      0.00      0.00
   15    9    4      0.00      0.00
   17    9    4      0.00      0.00
   19    9    4      0.00      0.00
   21    9    4      0.00      0.00
   23    9    4      0.00      0.00
   25    9    4      0.00      0.00
   27    9    4      0.00      0.00
   29    9    4      0.00      0.00
   31    9    4      0.00      0.00
   33    9    4      0.00      0.00
   35    9    4      0.00      0.00
   37    9    4      0.00      0.00
  -38   10    4      0.00      0.00
  -36   10    4      0.00      0.00
  -34   10    4      0.00      0.00
  -32   10    4      0.00      0.00
  -30   10    4      0.00      0.00
  -28   10    4      0.00      0.00
  -26   10    4      0.00      0.00
  -24   10    4      0.00      0.00
  -22   10    4      0.00      0.00
  -20   10    4      0.00      0.00
  -18   10    4      0.00      0.00
  -16   10    4      0.00      0.00
  -14   10    4      0.00      0.00
  -12   10    4      0.00      0.00
  -10   10    4      0.00      0.00
   -8   10    4      0.00      0.00
   -6   10    4      0.00      0.00
   -4   10    4      0.00      0.00
   -2   10    4      0.00      0.00
    0   10    4      0.00      0.00
    2   10    4      0.00      0.00
    4   10    4      0.00      0.00
    6   10    4      0.00      0.00
    8   10    4      0.00      0.00
   10   10    4      0.00      0.00
   12   10    4      0.00      0.00
   14   10    4      0.00      0.00
   16   10    4      0.00      0.00
   18   10    4      0.00      0.00
   20   10    4      0.00      0.00
   22   10    4      0.00      0.00
   24   10    4      0.00      0.00
   26   10    4      0.00      0.00
   28   10    4      0.00      0.00
   30   10    4      0.00      0.00
   32   10    4      0.00      0.00
   34   10    4      0.00      0.00
   36   10    4      0.00      0.00
  -37   11    4      0.00      0.00
  -35   11    4      0.00      0.00
  -33   11    4      0.00      0.00
  -31   11    4      0.00      0.00
  -29   11    4      0.00      0.00
  -27   11    4      0.00      0.00
  -25   11    4      0.00      0.00
  -23   11    4      0.00      0.00
  -21   11    4      0.00      0.00
  -19   11    4      0.00      0.00
  -17   11    4      0.00      0.00
  -15   11    4      0.00      0.00
  -13   11    4      0.00      0.00
  -11   11    4      0.00      0.00
   -9   11    4      0.00      0.00
   -7   11    4      0.00      0.00
   -5   11    4      0.00      0.00
   -3   11    4      0.00      0.00
   -1   11    4      0.00      0.00
    1   11    4      0.00      0.00
    3   11    4      0.00      0.00
    5   11    4      0.00      0.00
    7   11    4      0.00      0.00
    9   11    4      0.00      0.00
   11   11    4      0.00      0.00
   13   11    4      0.00      0.00
   15   11    4      0.00      0.00
   17   11    4      0.00      0.00
   19   11    4      0.00      0.00
   21   11    4      0.00      0.00
   23   11    4      0.00      0.00
   25   11    4      0.00      0.00
   27   11    4      0.00      0.00
   29   11    4      0.00      0.00
   31   11    4      0.00      0.00
   33   11    4      0.00      0.00
  -34   12    4      0.00      0.00
  -32   12    4      0.00      0.00
  -30   12    4      0.00      0.00
  -28   12    4      0.00      0.00
  -26   12    4      0.00      0.00
  -24   12    4      0.00      0.00
  -22   12    4      0.00      0.00
  -20   12    4      0.00      0.00
  -18   12    4      0.00      0.00
  -16   12    4      0.00      0.00
  -14   12    4      0.00      0.00
  -12   12    4      0.00      0.00
  -10   12    4      0.00      0.00
   -8   12    4      0.00      0.00
   -6   12    4      0.00      0.00
   -4   12    4      0.00      0.00
   -2   12    4      0.00      0.00
    0   12    4      0.00      0.00
    2   12    4      0.00      0.00
    4   12    4      0.00      0.00
    6   12    4      0.00      0.00
    8   12    4      0.00      0.00
   10   12    4      0.00      0.00
   12   12    4      0.00      0.00
   14   12    4      0.00      0.00
   16   12    4      0.00      0.00
   18   12    4      0.00      0.00
   20   12    4      0.00      0.00
   22   12    4      0.00      0.00
   24   12    4      0.00      0.00
   26   12    4      0.00      0.00
   28   12    4      0.00      0.00
   30   12    4      0.00      0.00
   32   12    4      0.00      0.00
  -33   13    4      0.00      0.00
  -31   13    4      0.00      0.00
  -29   13    4      0.00      0.00
  -27   13    4      0.00      0.00
  -25   13    4      0.00      0.00
  -23   13    4      0.00      0.00
  -21   13    4      0.00      0.00
  -19   13    4      0.00      0.00
  -17   13    4      0.00      0.00
  -15   13    4      0.00      0.00
  -13   13    4      0.00      0.00
  -11   13    4      0.00      0.00
   -9   13    4      0.00      0.00
   -7   13    4      0.00      0.00
   -5   13    4      0.00      0.00
   -3   13    4      0.00      0.00
   -1   13    4      0.00      0.00
    1   13    4      0.00      0.00
    3   13    4      0.00      0.00
    5   13    4      0.00      0.00
    7   13    4      0.00      0.00
    9   13    4      0.00      0.00
   11   13    4      0.00      0.00
   13   13    4      0.00      0.00
   15   13    4      0.00      0.00
   17   13    4      0.00      0.00
   19   13    4      0.00      0.00
   21   13    4      0.00      0.00
   23   13    4      0.00      0.00
   25   13    4      0.00      0.00
   27   13    4      0.00      0.00
   29   13    4      0.00      0.00
  -30   14    4      0.00      0.00
  -28   14    4      0.00      0.00
  -26   14    4      0.00      0.00
  -24   14    4      0.00      0.00
  -22   14    4      0.00      0.00
  -20   14    4      0.00      0.00
  -18   14    4      0.00      0.00
  -16   14    4      0.00      0.00
  -14   14    4      0.00      0.00
  -12   14    4      0.00      0.00
  -10   14    4      0.00      0.00
   -8   14    4      0.00      0.00
   -6   14    4      0.00      0.00
   -4   14    4      0.00      0.00
   -2   14    4      0.00      0.00
    0   14    4      0.00      0.00
    2   14    4      0.00      0.00
    4   14    4      0.00      0.00
    6   14    4      0.00      0.00
    8   14    4      0.00      0.00
   10   14    4      0.00      0.00
   12   14    4      0.00      0.00
   14   14    4      0.00      0.00
   16   14    4      0.00      0.00
   18   14    4      0.00      0.00
   20   14    4      0.00      0.00
   22   14    4      0.00      0.00
   24   14    4      0.00      0.00
   26   14    4      0.00      0.00
   28   14    4      0.00      0.00
  -27   15    4      0.00      0.00
  -25   15    4      0.00      0.00
  -23   15    4      0.00      0.00
  -21   15    4      0.00      0.00
  -19   15    4      0.00      0.00
  -17   15    4      0.00      0.00
  -15   15    4      0.00      0.00
  -13   15    4      0.00      0.00
  -11   15    4      0.00      0.00
   -9   15    4      0.00      0.00
   -7   15    4      0.00      0.00
   -5   15    4      0.00      0.00
   -3   15    4      0.00      0.00
   -1   15    4      0.00      0.00
    1   15    4      0.00      0.00
    3   15    4      0.00      0.00
    5   15    4      0.00      0.00
    7   15    4      0.00      0.00
    9   15    4      0.00      0.00
   11   15    4      0.00      0.00
   13   15    4      0.00      0.00
   15   15    4      0.00      0.00
   17   15    4      0.00      0.00
   19   15    4      0.00      0.00
   21   15    4      0.00      0.00
   23   15    4      0.00      0.00
   25   15    4      0.00      0.00
  -24   16    4      0.00      0.00
  -22   16    4      0.00      0.00
  -20   16    4      0.00      0.00
  -18   16    4      0.00      0.00
  -16   16    4      0.00      0.00
  -14   16    4      0.00      0.00
  -12   16    4      0.00      0.00
  -10   16    4      0.00      0.00
   -8   16    4      0.00      0.00
   -6   16    4      0.00      0.00
   -4   16    4      0.00      0.00
   -2   16    4      0.00      0.00
    0   16    4      0.00      0.00
    2   16    4      0.00      0.00
    4   16    4      0.00      0.00
    6   16    4      0.00      0.00
    8   16    4      0.00      0.00
   10   16    4      0.00      0.00
   12   16    4      0.00      0.00
   14   16    4      0.00      0.00
   16   16    4      0.00      0.00
   18   16    4      0.00      0.00
   20   16    4      0.00      0.00
  -19   17    4      0.00      0.00
  -17   17    4      0.00      0.00
  -15   17    4      0.00      0.00
  -13   17    4      0.00      0.00
  -11   17    4      0.00      0.00
   -9   17    4      0.00      0.00
   -7   17    4      0.00      0.00
   -5   17    4      0.00      0.00
   -3   17    4      0.00      0.00
   -1   17    4      0.00      0.00
    1   17    4      0.00      0.00
    3   17    4      0.00      0.00
    5   17    4      0.00      0.00
    7   17    4      0.00      0.00
    9   17    4      0.00      0.00
   11   17    4      0.00      0.00
   13   17    4      0.00      0.00
   15   17    4      0.00      0.00
   17   17    4      0.00      0.00
  -14   18    4      0.00      0.00
  -12   18    4      0.00      0.00
  -10   18    4      0.00      0.00
   -8   18    4      0.00      0.00
   -6   18    4      0.00      0.00
   -4   18    4      0.00      0.00
   -2   18    4      0.00      0.00
    0   18    4      0.00      0.00
    2   18    4      0.00      0.00
    4   18    4      0.00      0.00
    6   18    4      0.00      0.00
    8   18    4      0.00      0.00
   10   18    4      0.00      0.00
  -45    1    5      0.00      0.00
  -43    1    5      0.00      0.00
  -41    1    5      0.00      0.00
  -39    1    5      0.00      0.00
  -37    1    5      0.00      0.00
  -35    1    5      0.00      0.00
  -33    1    5      0.00      0.00
  -31    1    5      0.00      0.00
  -29    1    5      0.00      0.00
  -27    1    5      0.00      0.00
  -25    1    5      0.00      0.00
  -23    1    5      0.00      0.00
  -21    1    5      0.00      0.00
  -19    1    5      0.00      0.00
  -17    1    5      0.00      0.00
  -15    1    5      0.00      0.00
  -13    1    5      0.00      0.00
  -11    1    5      0.00      0.00
   -9    1    5      0.00      0.00
   -7    1    5      0.00      0.00
   -5    1    5      0.00      0.00
   -3    1    5      0.00      0.00
   -1    1    5      0.00      0.00
    1    1    5      0.00      0.00
    3    1    5      0.00      0.00
    5    1    5      0.00      0.00
    7    1    5      0.00      0.00
    9    1    5      0.00      0.00
   11    1    5      0.00      0.00
   13    1    5      0.00      0.00
   15    1    5      0.00      0.00
   17    1    5      0.00      0.00
   19    1    5      0.00      0.00
   21    1    5      0.00      0.00
   23    1    5      0.00      0.00
   25    1    5      0.00      0.00
   27    1    5      0.00      0.00
   29    1    5      0.00      0.00
   31    1    5      0.00      0.00
   33    1    5      0.00      0.00
   35    1    5      0.00      0.00
   37    1    5      0.00      0.00
   39    1    5      0.00      0.00
   41    1    5      0.00      0.00
  -44    2    5      0.00      0.00
  -42    2    5      0.00      0.00
  -40    2    5      0.00      0.00
  -38    2    5      0.00      0.00
  -36    2    5      0.00      0.00
  -34    2    5      0.00      0.00
  -32    2    5      0.00      0.00
  -30    2    5      0.00      0.00
  -28    2    5      0.00      0.00
  -26    2    5      0.00      0.00
  -24    2    5      0.00      0.00
  -22    2    5      0.00      0.00
  -20    2    5      0.00      0.00
  -18    2    5      0.00      0.00
  -16    2    5      0.00      0.00
  -14    2    5      0.00      0.00
  -12    2    5      0.00      0.00
  -10    2    5      0.00      0.00
   -8    2    5      0.00      0.00
   -6    2    5      0.00      0.00
   -4    2    5      0.00      0.00
   -2    2    5      0.00      0.00
    0    2    5      0.00      0.00
    2    2    5      0.00      0.00
    4    2    5      0.00      0.00
    6    2    5      0.00      0.00
    8    2    5      0.00      0.00
   10    2    5      0.00      0.00
   12    2    5      0.00      0.00
   14    2    5      0.00      0.00
   16    2    5      0.00      0.00
   18    2    5      0.00      0.00
   20    2    5      0.00      0.00
   22    2    5      0.00      0.00
   24    2    5      0.00      0.00
   26    2    5      0.00      0.00
   28    2    5      0.00      0.00
   30    2    5      0.00      0.00
   32    2    5      0.00      0.00
   34    2    5      0.00      0.00
   36    2    5      0.00      0.00
   38    2    5      0.00      0.00
   40    2    5      0.00      0.00
  -45    3    5      0.00      0.00
  -43    3    5      0.00      0.00
  -41    3    5      0.00      0.00
  -39    3    5      0.00      0.00
  -37    3    5      0.00      0.00
  -35    3    5      0.00      0.00
  -33    3    5      0.00      0.00
  -31    3    5      0.00      0.00
  -29    3    5      0.00      0.00
  -27    3    5      0.00      0.00
  -25    3    5      0.00      0.00
  -23    3    5      0.00      0.00
  -21    3    5      0.00      0.00
  -19    3    5      0.00      0.00
  -17    3    5      0.00      0.00
  -15    3    5      0.00      0.00
  -13    3    5      0.00      0.00
  -11    3    5      0.00      0.00
   -9    3    5      0.00      0.00
   -7    3    5      0.00      0.00
   -5    3    5      0.00      0.00
   -3    3    5      0.00      0.00
   -1    3    5      0.00      0.00
    1    3    5      0.00      0.00
    3    3    5      0.00      0.00
    5    3    5      0.00      0.00
    7    3    5      0.00      0.00
    9    3    5      0.00      0.00
   11    3    5      0.00      0.00
   13    3    5      0.00      0.00
   15    3    5      0.00      0.00
   17    3    5      0.00      0.00
   19    3    5      0.00      0.00
   21    3    5      0.00      0.00
   23    3    5      0.00      0.00
   25    3    5      0.00      0.00
   27    3    5      0.00      0.00
   29    3    5      0.00      0.00
   31    3    5      0.00      0.00
   33    3    5      0.00      0.00
   35    3    5      0.00      0.00
   37    3    5      0.00      0.00
   39    3    5      0.00      0.00
   41    3    5      0.00      0.00
  -44    4    5      0.00      0.00
  -42    4    5      0.00      0.00
  -40    4    5      0.00      0.00
  -38    4    5      0.00      0.00
  -36    4    5      0.00      0.00
  -34    4    5      0.00      0.00
  -32    4    5      0.00      0.00
  -30    4    5      0.00      0.00
  -28    4    5      0.00      0.00
  -26    4    5      0.00      0.00
  -24    4    5      0.00      0.00
  -22    4    5      0.00      0.00
  -20    4    5      0.00      0.00
  -18    4    5      0.00      0.00
  -16    4    5      0.00      0.00
  -14    4    5      0.00      0.00
  -12    4    5      0.00      0.00
  -10    4    5      0.00      0.00
   -8    4    5      0.00      0.00
   -6    4    5      0.00      0.00
   -4    4    5      0.00      0.00
   -2    4    5      0.00      0.00
    0    4    5      0.00      0.00
    2    4    5      0.00      0.00
    4    4    5      0.00      0.00
    6    4    5      0.00      0.00
    8    4    5      0.00      0.00
   10    4    5      0.00      0.00
   12    4    5      0.00      0.00
   14    4    5      0.00      0.00
   16    4    5      0.00      0.00
   18    4    5      0.00      0.00
   20    4    5      0.00      0.00
   22    4    5      0.00      0.00
   24    4    5      0.00      0.00
   26    4    5      0.00      0.00
   28    4    5      0.00      0.00
   30    4    5      0.00      0.00
   32    4    5      0.00      0.00
   34    4    5      0.00      0.00
   36    4    5      0.00      0.00
   38    4    5      0.00      0.00
   40    4    5      0.00      0.00
  -43    5    5      0.00      0.00
  -41    5    5      0.00      0.00
  -39    5    5      0.00      0.00
  -37    5    5      0.00      0.00
  -35    5    5      0.00      0.00
  -33    5    5      0.00      0.00
  -31    5    5      0.00      0.00
  -29    5    5      0.00      0.00
  -27    5    5      0.00      0.00
  -25    5    5      0.00      0.00
  -23    5    5      0.00      0.00
  -21    5    5      0.00      0.00
  -19    5    5      0.00      0.00
  -17    5    5      0.00      0.00
  -15    5    5      0.00      0.00
  -13    5    5      0.00      0.00
  -11    5    5      0.00      0.00
   -9    5    5      0.00      0.00
   -7    5    5      0.00      0.00
   -5    5    5      0.00      0.00
   -3    5    5      0.00      0.00
   -1    5    5      0.00      0.00
    1    5    5      0.00      0.00
    3    5    5      0.00      0.00
    5    5    5      0.00      0.00
    7    5    5      0.00      0.00
    9    5    5      0.00      0.00
   11    5    5      0.00      0.00
   13    5    5      0.00      0.00
   15    5    5      0.00      0.00
   17    5    5      0.00      0.00
   19    5    5      0.00      0.00
   21    5    5      0.00      0.00
   23    5    5      0.00      0.00
   25    5    5      0.00      0.00
   27    5    5      0.00      0.00
   29    5    5      0.00      0.00
   31    5    5      0.00      0.00
   33    5    5      0.00      0.00
   35    5    5      0.00      0.00
   37    5    5      0.00      0.00
   39    5    5      0.00      0.00
  -42    6    5      0.00      0.00
  -40    6    5      0.00      0.00
  -38    6    5      0.00      0.00
  -36    6    5      0.00      0.00
  -34    6    5      0.00      0.00
  -32    6    5      0.00      0.00
  -30    6    5      0.00      0.00
  -28    6    5      0.00      0.00
  -26    6    5      0.00      0.00
  -24    6    5      0.00      0.00
  -22    6    5      0.00      0.00
  -20    6    5      0.00      0.00
  -18    6    5      0.00      0.00
  -16    6    5      0.00      0.00
  -14    6    5      0.00      0.00
  -12    6    5      0.00      0.00
  -10    6    5      0.00      0.00
   -8    6    5      0.00      0.00
   -6    6    5      0.00      0.00
   -4    6    5      0.00      0.00
   -2    6    5      0.00      0.00
    0    6    5      0.00      0.00
    2    6    5      0.00      0.00
    4    6    5      0.00      0.00
    6    6    5      0.00      0.00
    8    6    5      0.00      0.00
   10    6    5      0.00      0.00
   12    6    5      0.00      0.00
   14    6    5      0.00      0.00
   16    6    5      0.00      0.00
   18    6    5      0.00      0.00
   20    6    5      0.00      0.00
   22    6    5      0.00      0.00
   24    6    5      0.00      0.00
   26    6    5      0.00      0.00
   28    6    5      0.00      0.00
   30    6    5      0.00      0.00
   32    6    5      0.00      0.00
   34    6    5      0.00      0.00
   36    6    5      0.00      0.00
   38    6    5      0.00      0.00
  -41    7    5      0.00      0.00
  -39    7    5      0.00      0.00
  -37    7    5      0.00      0.00
  -35    7    5      0.00      0.00
  -33    7    5      0.00      0.00
  -31    7    5      0.00      0.00
  -29    7    5      0.00      0.00
  -27    7    5      0.00      0.00
  -25    7    5      0.00      0.00
  -23    7    5      0.00      0.00
  -21    7    5      0.00      0.00
  -19    7    5      0.00      0.00
  -17    7    5      0.00      0.00
  -15    7    5      0.00      0.00
  -13    7    5      0.00      0.00
  -11    7    5      0.00      0.00
   -9    7    5      0.00      0.00
   -7    7    5      0.00      0.00
   -5    7    5      0.00      0.00
   -3    7    5      0.00      0.00
   -1    7    5      0.00      0.00
    1    7    5      0.00      0.00
    3    7    5      0.00      0.00
    5    7    5      0.00      0.00
    7    7    5      0.00      0.00
    9    7    5      0.00      0.00
   11    7    5      0.00      0.00
   13    7    5      0.00      0.00
   15    7    5      0.00      0.00
   17    7    5      0.00      0.00
   19    7    5      0.00      0.00
   21    7    5      0.00      0.00
   23    7    5      0.00      0.00
   25    7    5      0.00      0.00
   27    7    5      0.00      0.00
   29    7    5      0.00      0.00
   31    7    5      0.00      0.00
   33    7    5      0.00      0.00
   35    7    5      0.00      0.00
   37    7    5      0.00      0.00
  -40    8    5      0.00      0.00
  -38    8    5      0.00      0.00
  -36    8    5      0.00      0.00
  -34    8    5      0.00      0.00
  -32    8    5      0.00      0.00
  -30    8    5      0.00      0.00
  -28    8    5      0.00      0.00
  -26    8    5      0.00      0.00
  -24    8    5      0.00      0.00
  -22    8    5      0.00      0.00
  -20    8    5      0.00      0.00
  -18    8    5      0.00      0.00
  -16    8    5      0.00      0.00
  -14    8    5      0.00      0.00
  -12    8    5      0.00      0.00
  -10    8    5      0.00      0.00
   -8    8    5      0.00      0.00
   -6    8    5      0.00      0.00
   -4    8    5      0.00      0.00
   -2    8    5      0.00      0.00
    0    8    5      0.00      0.00
    2    8    5      0.00      0.00
    4    8    5      0.00      0.00
    6    8    5      0.00      0.00
    8    8    5      0.00      0.00
   10    8    5      0.00      0.00
   12    8    5      0.00      0.00
   14    8    5      0.00      0.00
   16    8    5      0.00      0.00
   18    8    5      0.00      0.00
   20    8    5      0.00      0.00
   22    8    5      0.00      0.00
   24    8    5      0.00      0.00
   26    8    5      0.00      0.00
   28    8    5      0.00      0.00
   30    8    5      0.00      0.00
   32    8    5      0.00      0.00
   34    8    5      0.00      0.00
   36    8    5      0.00      0.00
  -39    9    5      0.00      0.00
  -37    9    5      0.00      0.00
  -35    9    5      0.00      0.00
  -33    9    5      0.00      0.00
  -31    9    5      0.00      0.00
  -29    9    5      0.00      0.00
  -27    9    5      0.00      0.00
  -25    9    5      0.00      0.00
  -23    9    5      0.00      0.00
  -21    9    5      0.00      0.00
  -19    9    5      0.00      0.00
  -17    9    5      0.00      0.00
  -15    9    5      0.00      0.00
  -13    9    5      0.00      0.00
  -11    9    5      0.00      0.00
   -9    9    5      0.00      0.00
   -7    9    5      0.00      0.00
   -5    9    5      0.00      0.00
   -3    9    5      0.00      0.00
   -1    9    5      0.00      0.00
    1    9    5      0.00      0.00
    3    9    5      0.00      0.00
    5    9    5      0.00      0.00
    7    9    5      0.00      0.00
    9    9    5      0.00      0.00
   11    9    5      0.00      0.00
   13    9    5      0.00      0.00
   15    9    5      0.00      0.00
   17    9    5      0.00      0.00
   19    9    5      0.00      0.00
   21    9    5      0.00      0.00
   23    9    5      0.00      0.00
   25    9    5      0.00      0.00
   27    9    5      0.00      0.00
   29    9    5      0.00      0.00
   31    9    5      0.00      0.00
   33    9    5      0.00      0.00
   35    9    5      0.00      0.00
  -38   10    5      0.00      0.00
  -36   10    5      0.00      0.00
  -34   10    5      0.00      0.00
  -32   10    5      0.00      0.00
  -30   10    5      0.00      0.00
  -28   10    5      0.00      0.00
  -26   10    5      0.00      0.00
  -24   10    5      0.00      0.00
  -22   10    5      0.00      0.00
  -20   10    5      0.00      0.00
  -18   10    5      0.00      0.00
  -16   10    5      0.00      0.00
  -14   10    5      0.00      0.00
  -12   10    5      0.00      0.00
  -10   10    5      0.00      0.00
   -8   10    5      0.00      0.00
   -6   10    5      0.00      0.00
   -4   10    5      0.00      0.00
   -2   10    5      0.00      0.00
    0   10    5      0.00      0.00
    2   10    5      0.00      0.00
    4   10    5      0.00      0.00
    6   10    5      0.00      0.00
    8   10    5      0.00      0.00
   10   10    5      0.00      0.00
   12   10    5      0.00      0.00
   14   10    5      0.00      0.00
   16   10    5      0.00      0.00
   18   10    5      0.00      0.00
   20   10    5      0.00      0.00
   22   10    5      0.00      0.00
   24   10    5      0.00      0.00
   26   10    5      0.00      0.00
   28   10    5      0.00      0.00
   30   10    5      0.00      0.00
   32   10    5      0.00      0.00
   34   10    5      0.00      0.00
  -37   11    5      0.00      0.00
  -35   11    5      0.00      0.00
  -33   11    5      0.00      0.00
  -31   11    5      0.00      0.00
  -29   11    5      0.00      0.00
  -27   11    5      0.00      0.00
  -25   11    5      0.00      0.00
  -23   11    5      0.00      0.00
  -21   11    5      0.00      0.00
  -19   11    5      0.00      0.00
  -17   11    5      0.00      0.00
  -15   11    5      0.00      0.00
  -13   11    5      0.00      0.00
  -11   11    5      0.00      0.00
   -9   11    5      0.00      0.00
   -7   11    5      0.00      0.00
   -5   11    5      0.00      0.00
   -3   11    5      0.00      0.00
   -1   11    5      0.00      0.00
    1   11    5      0.00      0.00
    3   11    5      0.00      0.00
    5   11    5      0.00      0.00
    7   11    5      0.00      0.00
    9   11    5      0.00      0.00
   11   11    5      0.00      0.00
   13   11    5      0.00      0.00
   15   11    5      0.00      0.00
   17   11    5      0.00      0.00
   19   11    5      0.00      0.00
   21   11    5      0.00      0.00
   23   11    5      0.00      0.00
   25   11    5      0.00      0.00
   27   11    5      0.00      0.00
   29   11    5      0.00      0.00
   31   11    5      0.00      0.00
   33   11    5      0.00      0.00
  -34   12    5      0.00      0.00
  -32   12    5      0.00      0.00
  -30   12    5      0.00      0.00
  -28   12    5      0.00      0.00
  -26   12    5      0.00      0.00
  -24   12    5      0.00      0.00
  -22   12    5      0.00      0.00
  -20   12    5      0.00      0.00
  -18   12    5      0.00      0.00
  -16   12    5      0.00      0.00
  -14   12    5      0.00      0.00
  -12   12    5      0.00      0.00
  -10   12    5      0.00      0.00
   -8   12    5      0.00      0.00
   -6   12    5      0.00      0.00
   -4   12    5      0.00      0.00
   -2   12    5      0.00      0.00
    0   12    5      0.00      0.00
    2   12    5      0.00      0.00
    4   12    5      0.00      0.00
    6   12    5      0.00      0.00
    8   12    5      0.00      0.00
   10   12    5      0.00      0.00
   12   12    5      0.00      0.00
   14   12    5      0.00      0.00
   16   12    5      0.00      0.00
   18   12    5      0.00      0.00
   20   12    5      0.00      0.00
   22   12    5      0.00      0.00
   24   12    5      0.00      0.00
   26   12    5      0.00      0.00
   28   12    5      0.00      0.00
   30   12    5      0.00      0.00
  -33   13    5      0.00      0.00
  -31   13    5      0.00      0.00
  -29   13    5      0.00      0.00
  -27   13    5      0.00      0.00
  -25   13    5      0.00      0.00
  -23   13    5      0.00      0.00
  -21   13    5      0.00      0.00
  -19   13    5      0.00      0.00
  -17   13    5      0.00      0.00
  -15   13    5      0.00      0.00
  -13   13    5      0.00      0.00
  -11   13    5      0.00      0.00
   -9   13    5      0.00      0.00
   -7   13    5      0.00      0.00
   -5   13    5      0.00      0.00
   -3   13    5      0.00      0.00
   -1   13    5      0.00      0.00
    1   13    5      0.00      0.00
    3   13    5      0.00      0.00
    5   13    5      0.00      0.00
    7   13    5      0.00      0.00
    9   13    5      0.00      0.00
   11   13    5      0.00      0.00
   13   13    5      0.00      0.00
   15   13    5      0.00      0.00
   17   13    5      0.00      0.00
   19   13    5      0.00      0.00
   21   13    5      0.00      0.00
   23   13    5      0.00      0.00
   25   13    5      0.00      0.00
   27   13    5      0.00      0.00
   29   13    5      0.00      0.00
  -30   14    5      0.00      0.00
  -28   14    5      0.00      0.00
  -26   14    5      0.00      0.00
  -24   14    5      0.00      0.00
  -22   14    5      0.00      0.00
  -20   14    5      0.00      0.00
  -18   14    5      0.00      0.00
  -16   14    5      0.00      0.00
  -14   14    5      0.00      0.00
  -12   14    5      0.00      0.00
  -10   14    5      0.00      0.00
   -8   14    5      0.00      0.00
   -6   14    5      0.00      0.00
   -4   14    5      0.00      0.00
   -2   14    5      0.00      0.00
    0   14    5      0.00      0.00
    2   14    5      0.00      0.00
    4   14    5      0.00      0.00
    6   14    5      0.00      0.00
    8   14    5      0.00      0.00
   10   14    5      0.00      0.00
   12   14    5      0.00      0.00
   14   14    5      0.00      0.00
   16   14    5      0.00      0.00
   18   14    5      0.00      0.00
   20   14    5      0.00      0.00
   22   14    5      0.00      0.00
   24   14    5      0.00      0.00
   26   14    5      0.00      0.00
  -27   15    5      0.00      0.00
  -25   15    5      0.00      0.00
  -23   15    5      0.00      0.00
  -21   15    5      0.00      0.00
  -19   15    5      0.00      0.00
  -17   15    5      0.00      0.00
  -15   15    5      0.00      0.00
  -13   15    5      0.00      0.00
  -11   15    5      0.00      0.00
   -9   15    5      0.00      0.00
   -7   15    5      0.00      0.00
   -5   15    5      0.00      0.00
   -3   15    5      0.00      0.00
   -1   15    5      0.00      0.00
    1   15    5      0.00      0.00
    3   15    5      0.00      0.00
    5   15    5      0.00      0.00
    7   15    5      0.00      0.00
    9   15    5      0.00      0.00
   11   15    5      0.00      0.00
   13   15    5      0.00      0.00
   15   15    5      0.00      0.00
   17   15    5      0.00      0.00
   19   15    5      0.00      0.00
   21   15    5      0.00      0.00
   23   15    5      0.00      0.00
  -24   16    5      0.00      0.00
  -22   16    5      0.00      0.00
  -20   16    5      0.00      0.00
  -18   16    5      0.00      0.00
  -16   16    5      0.00      0.00
  -14   16    5      0.00      0.00
  -12   16    5      0.00      0.00
  -10   16    5      0.00      0.00
   -8   16    5      0.00      0.00
   -6   16    5      0.00      0.00
   -4   16    5      0.00      0.00
   -2   16    5      0.00      0.00
    0   16    5      0.00      0.00
    2   16    5      0.00      0.00
    4   16    5      0.00      0.00
    6   16    5      0.00      0.00
    8   16    5      0.00      0.00
   10   16    5      0.00      0.00
   12   16    5      0.00      0.00
   14   16    5      0.00      0.00
   16   16    5      0.00      0.00
   18   16    5      0.00      0.00
   20   16    5      0.00      0.00
  -19   17    5      0.00      0.00
  -17   17    5      0.00      0.00
  -15   17    5      0.00      0.00
  -13   17    5      0.00      0.00
  -11   17    5      0.00      0.00
   -9   17    5      0.00      0.00
   -7   17    5      0.00      0.00
   -5   17    5      0.00      0.00
   -3   17    5      0.00      0.00
   -1   17    5      0.00      0.00
    1   17    5      0.00      0.00
    3   17    5      0.00      0.00
    5   17    5      0.00      0.00
    7   17    5      0.00      0.00
    9   17    5      0.00      0.00
   11   17    5      0.00      0.00
   13   17    5      0.00      0.00
   15   17    5      0.00      0.00
  -12   18    5      0.00      0.00
  -10   18    5      0.00      0.00
   -8   18    5      0.00      0.00
   -6   18    5      0.00      0.00
   -4   18    5      0.00      0.00
   -2   18    5      0.00      0.00
    0   18    5      0.00      0.00
    2   18    5      0.00      0.00
    4   18    5      0.00      0.00
    6   18    5      0.00      0.00
    8   18    5      0.00      0.00
  -46    0    6      0.00      0.00
  -44    0    6      0.00      0.00
  -42    0    6      0.00      0.00
  -40    0    6      0.00      0.00
  -38    0    6      0.00      0.00
  -36    0    6      0.00      0.00
  -34    0    6      0.00      0.00
  -32    0    6      0.00      0.00
  -30    0    6      0.00      0.00
  -28    0    6      0.00      0.00
  -26    0    6      0.00      0.00
  -24    0    6      0.00      0.00
  -22    0    6      0.00      0.00
  -20    0    6      0.00      0.00
  -18    0    6      0.00      0.00
  -16    0    6      0.00      0.00
  -14    0    6      0.00      0.00
  -12    0    6      0.00      0.00
  -10    0    6      0.00      0.00
   -8    0    6      0.00      0.00
   -6    0    6      0.00      0.00
   -4    0    6      0.00      0.00
   -2    0    6      0.00      0.00
    0    0    6      0.00      0.00
    2    0    6      0.00      0.00
    4    0    6      0.00      0.00
    6    0    6      0.00      0.00
    8    0    6      0.00      0.00
   10    0    6      0.00      0.00
   12    0    6      0.00      0.00
   14    0    6      0.00      0.00
   16    0    6      0.00      0.00
   18    0    6      0.00      0.00
   20    0    6      0.00      0.00
   22    0    6      0.00      0.00
   24    0    6      0.00      0.00
   26    0    6      0.00      0.00
   28    0    6      0.00      0.00
   30    0    6      0.00      0.00
   32    0    6      0.00      0.00
   34    0    6      0.00      0.00
   36    0    6      0.00      0.00
   38    0    6      0.00      0.00
   40    0    6      0.00      0.00
  -45    1    6      0.00      0.00
  -43    1    6      0.00      0.00
  -41    1    6      0.00      0.00
  -39    1    6      0.00      0.00
  -37    1    6      0.00      0.00
  -35    1    6      0.00      0.00
  -33    1    6      0.00      0.00
  -31    1    6      0.00      0.00
  -29    1    6      0.00      0.00
  -27    1    6      0.00      0.00
  -25    1    6      0.00      0.00
  -23    1    6      0.00      0.00
  -21    1    6      0.00      0.00
  -19    1    6      0.00      0.00
  -17    1    6      0.00      0.00
  -15    1    6      0.00      0.00
  -13    1    6      0.00      0.00
  -11    1    6      0.00      0.00
   -9    1    6      0.00      0.00
   -7    1    6      0.00      0.00
   -5    1    6      0.00      0.00
   -3    1    6      0.00      0.00
   -1    1    6      0.00      0.00
    1    1    6      0.00      0.00
    3    1    6      0.00      0.00
    5    1    6      0.00      0.00
    7    1    6      0.00      0.00
    9    1    6      0.00      0.00
   11    1    6      0.00      0.00
   13    1    6      0.00      0.00
   15    1    6      0.00      0.00
   17    1    6      0.00      0.00
   19    1    6      0.00      0.00
   21    1    6      0.00      0.00
   23    1    6      0.00      0.00
   25    1    6      0.00      0.00
   27    1    6      0.00      0.00
   29    1    6      0.00      0.00
   31    1    6      0.00      0.00
   33    1    6      0.00      0.00
   35    1    6      0.00      0.00
   37    1    6      0.00      0.00
   39    1    6      0.00      0.00
   41    1    6      0.00      0.00
  -44    2    6      0.00      0.00
  -42    2    6      0.00      0.00
  -40    2    6      0.00      0.00
  -38    2    6      0.00      0.00
  -36    2    6      0.00      0.00
  -34    2    6      0.00      0.00
  -32    2    6      0.00      0.00
  -30    2    6      0.00      0.00
  -28    2    6      0.00      0.00
  -26    2    6      0.00      0.00
  -24    2    6      0.00      0.00
  -22    2    6      0.00      0.00
  -20    2    6      0.00      0.00
  -18    2    6      0.00      0.00
  -16    2    6      0.00      0.00
  -14    2    6      0.00      0.00
  -12    2    6      0.00      0.00
  -10    2    6      0.00      0.00
   -8    2    6      0.00      0.00
   -6    2    6      0.00      0.00
   -4    2    6      0.00      0.00
   -2    2    6      0.00      0.00
    0    2    6      0.00      0.00
    2    2    6      0.00      0.00
    4    2    6      0.00      0.00
    6    2    6      0.00      0.00
    8    2    6      0.00      0.00
   10    2    6      0.00      0.00
   12    2    6      0.00      0.00
   14    2    6      0.00      0.00
   16    2    6      0.00      0.00
   18    2    6      0.00      0.00
   20    2    6      0.00      0.00
   22    2    6      0.00      0.00
   24    2    6      0.00      0.00
   26    2    6      0.00      0.00
   28    2    6      0.00      0.00
   30    2    6      0.00      0.00
   32    2    6      0.00      0.00
   34    2    6      0.00      0.00
   36    2    6      0.00      0.00
   38    2    6      0.00      0.00
   40    2    6      0.00      0.00
  -45    3    6      0.00      0.00
  -43    3    6      0.00      0.00
  -41    3    6      0.00      0.00
  -39    3    6      0.00      0.00
  -37    3    6      0.00      0.00
  -35    3    6      0.00      0.00
  -33    3    6      0.00      0.00
  -31    3    6      0.00      0.00
  -29    3    6      0.00      0.00
  -27    3    6      0.00      0.00
  -25    3    6      0.00      0.00
  -23    3    6      0.00      0.00
  -21    3    6      0.00      0.00
  -19    3    6      0.00      0.00
  -17    3    6      0.00      0.00
  -15    3    6      0.00      0.00
  -13    3    6      0.00      0.00
  -11    3    6      0.00      0.00
   -9    3    6      0.00      0.00
   -7    3    6      0.00      0.00
   -5    3    6      0.00      0.00
   -3    3    6      0.00      0.00
   -1    3    6      0.00      0.00
    1    3    6      0.00      0.00
    3    3    6      0.00      0.00
    5    3    6      0.00      0.00
    7    3    6      0.00      0.00
    9    3    6      0.00      0.00
   11    3    6      0.00      0.00
   13    3    6      0.00      0.00
   15    3    6      0.00      0.00
   17    3    6      0.00      0.00
   19    3    6      0.00      0.00
   21    3    6      0.00      0.00
   23    3    6      0.00      0.00
   25    3    6      0.00      0.00
   27    3    6      0.00      0.00
   29    3    6      0.00      0.00
   31    3    6      0.00      0.00
   33    3    6      0.00      0.00
   35    3    6      0.00      0.00
   37    3    6      0.00      0.00
   39    3    6      0.00      0.00
  -44    4    6      0.00      0.00
  -42    4    6      0.00      0.00
  -40    4    6      0.00      0.00
  -38    4    6      0.00      0.00
  -36    4    6      0.00      0.00
  -34    4    6      0.00      0.00
  -32    4    6      0.00      0.00
  -30    4    6      0.00      0.00
  -28    4    6      0.00      0.00
  -26    4    6      0.00      0.00
  -24    4    6      0.00      0.00
  -22    4    6      0.00      0.00
  -20    4    6      0.00      0.00
  -18    4    6      0.00      0.00
  -16    4    6      0.00      0.00
  -14    4    6      0.00      0.00
  -12    4    6      0.00      0.00
  -10    4    6      0.00      0.00
   -8    4    6      0.00      0.00
   -6    4    6      0.00      0.00
   -4    4    6      0.00      0.00
   -2    4    6      0.00      0.00
    0    4    6      0.00      0.00
    2    4    6      0.00      0.00
    4    4    6      0.00      0.00
    6    4    6      0.00      0.00
    8    4    6      0.00      0.00
   10    4    6      0.00      0.00
   12    4    6      0.00      0.00
   14    4    6      0.00      0.00
   16    4    6      0.00      0.00
   18    4    6      0.00      0.00
   20    4    6      0.00      0.00
   22    4    6      0.00      0.00
   24    4    6      0.00      0.00
   26    4    6      0.00      0.00
   28    4    6      0.00      0.00
   30    4    6      0.00      0.00
   32    4    6      0.00      0.00
   34    4    6      0.00      0.00
   36    4    6      0.00      0.00
   38    4    6      0.00      0.00
   40    4    6      0.00      0.00
  -43    5    6      0.00      0.00
  -41    5    6      0.00      0.00
  -39    5    6      0.00      0.00
  -37    5    6      0.00      0.00
  -35    5    6      0.00      0.00
  -33    5    6      0.00      0.00
  -31    5    6      0.00      0.00
  -29    5    6      0.00      0.00
  -27    5    6      0.00      0.00
  -25    5    6      0.00      0.00
  -23    5    6      0.00      0.00
  -21    5    6      0.00      0.00
  -19    5    6      0.00      0.00
  -17    5    6      0.00      0.00
  -15    5    6      0.00      0.00
  -13    5    6      0.00      0.00
  -11    5    6      0.00      0.00
   -9    5    6      0.00      0.00
   -7    5    6      0.00      0.00
   -5    5    6      0.00      0.00
   -3    5    6      0.00      0.00
   -1    5    6      0.00      0.00
    1    5    6      0.00      0.00
    3    5    6      0.00      0.00
    5    5    6      0.00      0.00
    7    5    6      0.00      0.00
    9    5    6      0.00      0.00
   11    5    6      0.00      0.00
   13    5    6      0.00      0.00
   15    5    6      0.00      0.00
   17    5    6      0.00      0.00
   19    5    6      0.00      0.00
   21    5    6      0.00      0.00
   23    5    6      0.00      0.00
   25    5    6      0.00      0.00
   27    5    6      0.00      0.00
   29    5    6      0.00      0.00
   31    5    6      0.00      0.00
   33    5    6      0.00      0.00
   35    5    6      0.00      0.00
   37    5    6      0.00      0.00
   39    5    6      0.00      0.00
  -42    6    6      0.00      0.00
  -40    6    6      0.00      0.00
  -38    6    6      0.00      0.00
  -36    6    6      0.00      0.00
  -34    6    6      0.00      0.00
  -32    6    6      0.00      0.00
  -30    6    6      0.00      0.00
  -28    6    6      0.00      0.00
  -26    6    6      0.00      0.00
  -24    6    6      0.00      0.00
  -22    6    6      0.00      0.00
  -20    6    6      0.00      0.00
  -18    6    6      0.00      0.00
  -16    6    6      0.00      0.00
  -14    6    6      0.00      0.00
  -12    6    6      0.00      0.00
  -10    6    6      0.00      0.00
   -8    6    6      0.00      0.00
   -6    6    6      0.00      0.00
   -4    6    6      0.00      0.00
   -2    6    6      0.00      0.00
    0    6    6      0.00      0.00
    2    6    6      0.00      0.00
    4    6    6      0.00      0.00
    6    6    6      0.00      0.00
    8    6    6      0.00      0.00
   10    6    6      0.00      0.00
   12    6    6      0.00      0.00
   14    6    6      0.00      0.00
   16    6    6      0.00      0.00
   18    6    6      0.00      0.00
   20    6    6      0.00      0.00
   22    6    6      0.00      0.00
   24    6    6      0.00      0.00
   26    6    6      0.00      0.00
   28    6    6      0.00      0.00
   30    6    6      0.00      0.00
   32    6    6      0.00      0.00
   34    6    6      0.00      0.00
   36    6    6      0.00      0.00
   38    6    6      0.00      0.00
  -41    7    6      0.00      0.00
  -39    7    6      0.00      0.00
  -37    7    6      0.00      0.00
  -35    7    6      0.00      0.00
  -33    7    6      0.00      0.00
  -31    7    6      0.00      0.00
  -29    7    6      0.00      0.00
  -27    7    6      0.00      0.00
  -25    7    6      0.00      0.00
  -23    7    6      0.00      0.00
  -21    7    6      0.00      0.00
  -19    7    6      0.00      0.00
  -17    7    6      0.00      0.00
  -15    7    6      0.00      0.00
  -13    7    6      0.00      0.00
  -11    7    6      0.00      0.00
   -9    7    6      0.00      0.00
   -7    7    6      0.00      0.00
   -5    7    6      0.00      0.00
   -3    7    6      0.00      0.00
   -1    7    6      0.00      0.00
    1    7    6      0.00      0.00
    3    7    6      0.00      0.00
    5    7    6      0.00      0.00
    7    7    6      0.00      0.00
    9    7    6      0.00      0.00
   11    7    6      0.00      0.00
   13    7    6      0.00      0.00
   15    7    6      0.00      0.00
   17    7    6      0.00      0.00
   19    7    6      0.00      0.00
   21    7    6      0.00      0.00
   23    7    6      0.00      0.00
   25    7    6      0.00      0.00
   27    7    6      0.00      0.00
   29    7    6      0.00      0.00
   31    7    6      0.00      0.00
   33    7    6      0.00      0.00
   35    7    6      0.00      0.00
   37    7    6      0.00      0.00
  -40    8    6      0.00      0.00
  -38    8    6      0.00      0.00
  -36    8    6      0.00      0.00
  -34    8    6      0.00      0.00
  -32    8    6      0.00      0.00
  -30    8    6      0.00      0.00
  -28    8    6      0.00      0.00
  -26    8    6      0.00      0.00
  -24    8    6      0.00      0.00
  -22    8    6      0.00      0.00
  -20    8    6      0.00      0.00
  -18    8    6      0.00      0.00
  -16    8    6      0.00      0.00
  -14    8    6      0.00      0.00
  -12    8    6      0.00      0.00
  -10    8    6      0.00      0.00
   -8    8    6      0.00      0.00
   -6    8    6      0.00      0.00
   -4    8    6      0.00      0.00
   -2    8    6      0.00      0.00
    0    8    6      0.00      0.00
    2    8    6      0.00      0.00
    4    8    6      0.00      0.00
    6    8    6      0.00      0.00
    8    8    6      0.00      0.00
   10    8    6      0.00      0.00
   12    8    6      0.00      0.00
   14    8    6      0.00      0.00
   16    8    6      0.00      0.00
   18    8    6      0.00      0.00
   20    8    6      0.00      0.00
   22    8    6      0.00      0.00
   24    8    6      0.00      0.00
   26    8    6      0.00      0.00
   28    8    6      0.00      0.00
   30    8    6      0.00      0.00
   32    8    6      0.00      0.00
   34    8    6      0.00      0.00
   36    8    6      0.00      0.00
  -39    9    6      0.00      0.00
  -37    9    6      0.00      0.00
  -35    9    6      0.00      0.00
  -33    9    6      0.00      0.00
  -31    9    6      0.00      0.00
  -29    9    6      0.00      0.00
  -27    9    6      0.00      0.00
  -25    9    6      0.00      0.00
  -23    9    6      0.00      0.00
  -21    9    6      0.00      0.00
  -19    9    6      0.00      0.00
  -17    9    6      0.00      0.00
  -15    9    6      0.00      0.00
  -13    9    6      0.00      0.00
  -11    9    6      0.00      0.00
   -9    9    6      0.00      0.00
   -7    9    6      0.00      0.00
   -5    9    6      0.00      0.00
   -3    9    6      0.00      0.00
   -1    9    6      0.00      0.00
    1    9    6      0.00      0.00
    3    9    6      0.00      0.00
    5    9    6      0.00      0.00
    7    9    6      0.00      0.00
    9    9    6      0.00      0.00
   11    9    6      0.00      0.00
   13    9    6      0.00      0.00
   15    9    6      0.00      0.00
   17    9    6      0.00      0.00
   19    9    6      0.00      0.00
   21    9    6      0.00      0.00
   23    9    6      0.00      0.00
   25    9    6      0.00      0.00
   27    9    6      0.00      0.00
   29    9    6      0.00      0.00
   31    9    6      0.00      0.00
   33    9    6      0.00      0.00
   35    9    6      0.00      0.00
  -38   10    6      0.00      0.00
  -36   10    6      0.00      0.00
  -34   10    6      0.00      0.00
  -32   10    6      0.00      0.00
  -30   10    6      0.00      0.00
  -28   10    6      0.00      0.00
  -26   10    6      0.00      0.00
  -24   10    6      0.00      0.00
  -22   10    6      0.00      0.00
  -20   10    6      0.00      0.00
  -18   10    6      0.00      0.00
  -16   10    6      0.00      0.00
  -14   10    6      0.00      0.00
  -12   10    6      0.00      0.00
  -10   10    6      0.00      0.00
   -8   10    6      0.00      0.00
   -6   10    6      0.00      0.00
   -4   10    6      0.00      0.00
   -2   10    6      0.00      0.00
    0   10    6      0.00      0.00
    2   10    6      0.00      0.00
    4   10    6      0.00      0.00
    6   10    6      0.00      0.00
    8   10    6      0.00      0.00
   10   10    6      0.00      0.00
   12   10    6      0.00      0.00
   14   10    6      0.00      0.00
   16   10    6      0.00      0.00
   18   10    6      0.00      0.00
   20   10    6      0.00      0.00
   22   10    6      0.00      0.00
   24   10    6      0.00      0.00
   26   10    6      0.00      0.00
   28   10    6      0.00      0.00
   30   10    6      0.00      0.00
   32   10    6      0.00      0.00
   34   10    6      0.00      0.00
  -37   11    6      0.00      0.00
  -35   11    6      0.00      0.00
  -33   11    6      0.00      0.00
  -31   11    6      0.00      0.00
  -29   11    6      0.00      0.00
  -27   11    6      0.00      0.00
  -25   11    6      0.00      0.00
  -23   11    6      0.00      0.00
  -21   11    6      0.00      0.00
  -19   11    6      0.00      0.00
  -17   11    6      0.00      0.00
  -15   11    6      0.00      0.00
  -13   11    6      0.00      0.00
  -11   11    6      0.00      0.00
   -9   11    6      0.00      0.00
   -7   11    6      0.00      0.00
   -5   11    6      0.00      0.00
   -3   11    6      0.00      0.00
   -1   11    6      0.00      0.00
    1   11    6      0.00      0.00
    3   11    6      0.00      0.00
    5   11    6      0.00      0.00
    7   11    6      0.00      0.00
    9   11    6      0.00      0.00
   11   11    6      0.00      0.00
   13   11    6      0.00      0.00
   15   11    6      0.00      0.00
   17   11    6      0.00      0.00
   19   11    6      0.00      0.00
   21   11    6      0.00      0.00
   23   11    6      0.00      0.00
   25   11    6      0.00      0.00
   27   11    6      0.00      0.00
   29   11    6      0.00      0.00
   31   11    6      0.00      0.00
  -34   12    6      0.00      0.00
  -32   12    6      0.00      0.00
  -30   12    6      0.00      0.00
  -28   12    6      0.00      0.00
  -26   12    6      0.00      0.00
  -24   12    6      0.00      0.00
  -22   12    6      0.00      0.00
  -20   12    6      0.00      0.00
  -18   12    6      0.00      0.00
  -16   12    6      0.00      0.00
  -14   12    6      0.00      0.00
  -12   12    6      0.00      0.00
  -10   12    6      0.00      0.00
   -8   12    6      0.00      0.00
   -6   12    6      0.00      0.00
   -4   12    6      0.00      0.00
   -2   12    6      0.00      0.00
    0   12    6      0.00      0.00
    2   12    6      0.00      0.00
    4   12    6      0.00      0.00
    6   12    6      0.00      0.00
    8   12    6      0.00      0.00
   10   12    6      0.00      0.00
   12   12    6      0.00      0.00
   14   12    6      0.00      0.00
   16   12    6      0.00      0.00
   18   12    6      0.00      0.00
   20   12    6      0.00      0.00
   22   12    6      0.00      0.00
   24   12    6      0.00      0.00
   26   12    6      0.00      0.00
   28   12    6      0.00      0.00
   30   12    6      0.00      0.00
  -33   13    6      0.00      0.00
  -31   13    6      0.00      0.00
  -29   13    6      0.00      0.00
  -27   13    6      0.00      0.00
  -25   13    6      0.00      0.00
  -23   13    6      0.00      0.00
  -21   13    6      0.00      0.00
  -19   13    6      0.00      0.00
  -17   13    6      0.00      0.00
  -15   13    6      0.00      0.00
  -13   13    6      0.00      0.00
  -11   13    6      0.00      0.00
   -9   13    6      0.00      0.00
   -7   13    6      0.00      0.00
   -5   13    6      0.00      0.00
   -3   13    6      0.00      0.00
   -1   13    6      0.00      0.00
    1   13    6      0.00      0.00
    3   13    6      0.00      0.00
    5   13    6      0.00      0.00
    7   13    6      0.00      0.00
    9   13    6      0.00      0.00
   11   13    6      0.00      0.00
   13   13    6      0.00      0.00
   15   13    6      0.00      0.00
   17   13    6      0.00      0.00
   19   13    6      0.00      0.00
   21   13    6      0.00      0.00
   23   13    6      0.00      0.00
   25   13    6      0.00      0.00
   27   13    6      0.00      0.00
  -30   14    6      0.00      0.00
  -28   14    6      0.00      0.00
  -26   14    6      0.00      0.00
  -24   14    6      0.00      0.00
  -22   14    6      0.00      0.00
  -20   14    6      0.00      0.00
  -18   14    6      0.00      0.00
  -16   14    6      0.00      0.00
  -14   14    6      0.00      0.00
  -12   14    6      0.00      0.00
  -10   14    6      0.00      0.00
   -8   14    6      0.00      0.00
   -6   14    6      0.00      0.00
   -4   14    6      0.00      0.00
   -2   14    6      0.00      0.00
    0   14    6      0.00      0.00
    2   14    6      0.00      0.00
    4   14    6      0.00      0.00
    6   14    6      0.00      0.00
    8   14    6      0.00      0.00
   10   14    6      0.00      0.00
   12   14    6      0.00      0.00
   14   14    6      0.00      0.00
   16   14    6      0.00      0.00
   18   14    6      0.00      0.00
   20   14    6      0.00      0.00
   22   14    6      0.00      0.00
   24   14    6      0.00      0.00
  -27   15    6      0.00      0.00
  -25   15    6      0.00      0.00
  -23   15    6      0.00      0.00
  -21   15    6      0.00      0.00
  -19   15    6      0.00      0.00
  -17   15    6      0.00      0.00
  -15   15    6      0.00      0.00
  -13   15    6      0.00      0.00
  -11   15    6      0.00      0.00
   -9   15    6      0.00      0.00
   -7   15    6      0.00      0.00
   -5   15    6      0.00      0.00
   -3   15    6      0.00      0.00
   -1   15    6      0.00      0.00
    1   15    6      0.00      0.00
    3   15    6      0.00      0.00
    5   15    6      0.00      0.00
    7   15    6      0.00      0.00
    9   15    6      0.00      0.00
   11   15    6      0.00      0.00
   13   15    6      0.00      0.00
   15   15    6      0.00      0.00
   17   15    6      0.00      0.00
   19   15    6      0.00      0.00
   21   15    6      0.00      0.00
  -22   16    6      0.00      0.00
  -20   16    6      0.00      0.00
  -18   16    6      0.00      0.00
  -16   16    6      0.00      0.00
  -14   16    6      0.00      0.00
  -12   16    6      0.00      0.00
  -10   16    6      0.00      0.00
   -8   16    6      0.00      0.00
   -6   16    6      0.00      0.00
   -4   16    6      0.00      0.00
   -2   16    6      0.00      0.00
    0   16    6      0.00      0.00
    2   16    6      0.00      0.00
    4   16    6      0.00      0.00
    6   16    6      0.00      0.00
    8   16    6      0.00      0.00
   10   16    6      0.00      0.00
   12   16    6      0.00      0.00
   14   16    6      0.00      0.00
   16   16    6      0.00      0.00
   18   16    6      0.00      0.00
  -17   17    6      0.00      0.00
  -15   17    6      0.00      0.00
  -13   17    6      0.00      0.00
  -11   17    6      0.00      0.00
   -9   17    6      0.00      0.00
   -7   17    6      0.00      0.00
   -5   17    6      0.00      0.00
   -3   17    6      0.00      0.00
   -1   17    6      0.00      0.00
    1   17    6      0.00      0.00
    3   17    6      0.00      0.00
    5   17    6      0.00      0.00
    7   17    6      0.00      0.00
    9   17    6      0.00      0.00
   11   17    6      0.00      0.00
   13   17    6      0.00      0.00
  -10   18    6      0.00      0.00
   -8   18    6      0.00      0.00
   -6   18    6      0.00      0.00
   -4   18    6      0.00      0.00
   -2   18    6      0.00      0.00
    0   18    6      0.00      0.00
    2   18    6      0.00      0.00
    4   18    6      0.00      0.00
  -45    1    7      0.00      0.00
  -43    1    7      0.00      0.00
  -41    1    7      0.00      0.00
  -39    1    7      0.00      0.00
  -37    1    7      0.00      0.00
  -35    1    7      0.00      0.00
  -33    1    7      0.00      0.00
  -31    1    7      0.00      0.00
  -29    1    7      0.00      0.00
  -27    1    7      0.00      0.00
  -25    1    7      0.00      0.00
  -23    1    7      0.00      0.00
  -21    1    7      0.00      0.00
  -19    1    7      0.00      0.00
  -17    1    7      0.00      0.00
  -15    1    7      0.00      0.00
  -13    1    7      0.00      0.00
  -11    1    7      0.00      0.00
   -9    1    7      0.00      0.00
   -7    1    7      0.00      0.00
   -5    1    7      0.00      0.00
   -3    1    7      0.00      0.00
   -1    1    7      0.00      0.00
    1    1    7      0.00      0.00
    3    1    7      0.00      0.00
    5    1    7      0.00      0.00
    7    1    7      0.00      0.00
    9    1    7      0.00      0.00
   11    1    7      0.00      0.00
   13    1    7      0.00      0.00
   15    1    7      0.00      0.00
   17    1    7      0.00      0.00
   19    1    7      0.00      0.00
   21    1    7      0.00      0.00
   23    1    7      0.00      0.00
   25    1    7      0.00      0.00
   27    1    7      0.00      0.00
   29    1    7      0.00      0.00
   31    1    7      0.00      0.00
   33    1    7      0.00      0.00
   35    1    7      0.00      0.00
   37    1    7      0.00      0.00
   39    1    7      0.00      0.00
  -44    2    7      0.00      0.00
  -42    2    7      0.00      0.00
  -40    2    7      0.00      0.00
  -38    2    7      0.00      0.00
  -36    2    7      0.00      0.00
  -34    2    7      0.00      0.00
  -32    2    7      0.00      0.00
  -30    2    7      0.00      0.00
  -28    2    7      0.00      0.00
  -26    2    7      0.00      0.00
  -24    2    7      0.00      0.00
  -22    2    7      0.00      0.00
  -20    2    7      0.00      0.00
  -18    2    7      0.00      0.00
  -16    2    7      0.00      0.00
  -14    2    7      0.00      0.00
  -12    2    7      0.00      0.00
  -10    2    7      0.00      0.00
   -8    2    7      0.00      0.00
   -6    2    7      0.00      0.00
   -4    2    7      0.00      0.00
   -2    2    7      0.00      0.00
    0    2    7      0.00      0.00
    2    2    7      0.00      0.00
    4    2    7      0.00      0.00
    6    2    7      0.00      0.00
    8    2    7      0.00      0.00
   10    2    7      0.00      0.00
   12    2    7      0.00      0.00
   14    2    7      0.00      0.00
   16    2    7      0.00      0.00
   18    2    7      0.00      0.00
   20    2    7      0.00      0.00
   22    2    7      0.00      0.00
   24    2    7      0.00      0.00
   26    2    7      0.00      0.00
   28    2    7      0.00      0.00
   30    2    7      0.00      0.00
   32    2    7      0.00      0.00
   34    2    7      0.00      0.00
   36    2    7      0.00      0.00
   38    2    7      0.00      0.00
  -45    3    7      0.00      0.00
  -43    3    7      0.00      0.00
  -41    3    7      0.00      0.00
  -39    3    7      0.00      0.00
  -37    3    7      0.00      0.00
  -35    3    7      0.00      0.00
  -33    3    7      0.00      0.00
  -31    3    7      0.00      0.00
  -29    3    7      0.00      0.00
  -27    3    7      0.00      0.00
  -25    3    7      0.00      0.00
  -23    3    7      0.00      0.00
  -21    3    7      0.00      0.00
  -19    3    7      0.00      0.00
  -17    3    7      0.00      0.00
  -15    3    7      0.00      0.00
  -13    3    7      0.00      0.00
  -11    3    7      0.00      0.00
   -9    3    7      0.00      0.00
   -7    3    7      0.00      0.00
   -5    3    7      0.00      0.00
   -3    3    7      0.00      0.00
   -1    3    7      0.00      0.00
    1    3    7      0.00      0.00
    3    3    7      0.00      0.00
    5    3    7      0.00      0.00
    7    3    7      0.00      0.00
    9    3    7      0.00      0.00
   11    3    7      0.00      0.00
   13    3    7      0.00      0.00
   15    3    7      0.00      0.00
   17    3    7      0.00      0.00
   19    3    7      0.00      0.00
   21    3    7      0.00      0.00
   23    3    7      0.00      0.00
   25    3    7      0.00      0.00
   27    3    7      0.00      0.00
   29    3    7      0.00      0.00
   31    3    7      0.00      0.00
   33    3    7      0.00      0.00
   35    3    7      0.00      0.00
   37    3    7      0.00      0.00
   39    3    7      0.00      0.00
  -44    4    7      0.00      0.00
  -42    4    7      0.00      0.00
  -40    4    7      0.00      0.00
  -38    4    7      0.00      0.00
  -36    4    7      0.00      0.00
  -34    4    7      0.00      0.00
  -32    4    7      0.00      0.00
  -30    4    7      0.00      0.00
  -28    4    7      0.00      0.00
  -26    4    7      0.00      0.00
  -24    4    7      0.00      0.00
  -22    4    7      0.00      0.00
  -20    4    7      0.00      0.00
  -18    4    7      0.00      0.00
  -16    4    7      0.00      0.00
  -14    4    7      0.00      0.00
  -12    4    7      0.00      0.00
  -10    4    7      0.00      0.00
   -8    4    7      0.00      0.00
   -6    4    7      0.00      0.00
   -4    4    7      0.00      0.00
   -2    4    7      0.00      0.00
    0    4    7      0.00      0.00
    2    4    7      0.00      0.00
    4    4    7      0.00      0.00
    6    4    7      0.00      0.00
    8    4    7      0.00      0.00
   10    4    7      0.00      0.00
   12    4    7      0.00      0.00
   14    4    7      0.00      0.00
   16    4    7      0.00      0.00
   18    4    7      0.00      0.00
   20    4    7      0.00      0.00
   22    4    7      0.00      0.00
   24    4    7      0.00      0.00
   26    4    7      0.00      0.00
   28    4    7      0.00      0.00
   30    4    7      0.00      0.00
   32    4    7      0.00      0.00
   34    4    7      0.00      0.00
   36    4    7      0.00      0.00
   38    4    7      0.00      0.00
  -43    5    7      0.00      0.00
  -41    5    7      0.00      0.00
  -39    5    7      0.00      0.00
  -37    5    7      0.00      0.00
  -35    5    7      0.00      0.00
  -33    5    7      0.00      0.00
  -31    5    7      0.00      0.00
  -29    5    7      0.00      0.00
  -27    5    7      0.00      0.00
  -25    5    7      0.00      0.00
  -23    5    7      0.00      0.00
  -21    5    7      0.00      0.00
  -19    5    7      0.00      0.00
  -17    5    7      0.00      0.00
  -15    5    7      0.00      0.00
  -13    5    7      0.00      0.00
  -11    5    7      0.00      0.00
   -9    5    7      0.00      0.00
   -7    5    7      0.00      0.00
   -5    5    7      0.00      0.00
   -3    5    7      0.00      0.00
   -1    5    7      0.00      0.00
    1    5    7      0.00      0.00
    3    5    7      0.00      0.00
    5    5    7      0.00      0.00
    7    5    7      0.00      0.00
    9    5    7      0.00      0.00
   11    5    7      0.00      0.00
   13    5    7      0.00      0.00
   15    5    7      0.00      0.00
   17    5    7      0.00      0.00
   19    5    7      0.00      0.00
   21    5    7      0.00      0.00
   23    5    7      0.00      0.00
   25    5    7      0.00      0.00
   27    5    7      0.00      0.00
   29    5    7      0.00      0.00
   31    5    7      0.00      0.00
   33    5    7      0.00      0.00
   35    5    7      0.00      0.00
   37    5    7      0.00      0.00
  -42    6    7      0.00      0.00
  -40    6    7      0.00      0.00
  -38    6    7      0.00      0.00
  -36    6    7      0.00      0.00
  -34    6    7      0.00      0.00
  -32    6    7      0.00      0.00
  -30    6    7      0.00      0.00
  -28    6    7      0.00      0.00
  -26    6    7      0.00      0.00
  -24    6    7      0.00      0.00
  -22    6    7      0.00      0.00
  -20    6    7      0.00      0.00
  -18    6    7      0.00      0.00
  -16    6    7      0.00      0.00
  -14    6    7      0.00      0.00
  -12    6    7      0.00      0.00
  -10    6    7      0.00      0.00
   -8    6    7      0.00      0.00
   -6    6    7      0.00      0.00
   -4    6    7      0.00      0.00
   -2    6    7      0.00      0.00
    0    6    7      0.00      0.00
    2    6    7      0.00      0.00
    4    6    7      0.00      0.00
    6    6    7      0.00      0.00
    8    6    7      0.00      0.00
   10    6    7      0.00      0.00
   12    6    7      0.00      0.00
   14    6    7      0.00      0.00
   16    6    7      0.00      0.00
   18    6    7      0.00      0.00
   20    6    7      0.00      0.00
   22    6    7      0.00      0.00
   24    6    7      0.00      0.00
   26    6    7      0.00      0.00
   28    6    7      0.00      0.00
   30    6    7      0.00      0.00
   32    6    7      0.00      0.00
   34    6    7      0.00      0.00
   36    6    7      0.00      0.00
  -41    7    7      0.00      0.00
  -39    7    7      0.00      0.00
  -37    7    7      0.00      0.00
  -35    7    7      0.00      0.00
  -33    7    7      0.00      0.00
  -31    7    7      0.00      0.00
  -29    7    7      0.00      0.00
  -27    7    7      0.00      0.00
  -25    7    7      0.00      0.00
  -23    7    7      0.00      0.00
  -21    7    7      0.00      0.00
  -19    7    7      0.00      0.00
  -17    7    7      0.00      0.00
  -15    7    7      0.00      0.00
  -13    7    7      0.00      0.00
  -11    7    7      0.00      0.00
   -9    7    7      0.00      0.00
   -7    7    7      0.00      0.00
   -5    7    7      0.00      0.00
   -3    7    7      0.00      0.00
   -1    7    7      0.00      0.00
    1    7    7      0.00      0.00
    3    7    7      0.00      0.00
    5    7    7      0.00      0.00
    7    7    7      0.00      0.00
    9    7    7      0.00      0.00
   11    7    7      0.00      0.00
   13    7    7      0.00      0.00
   15    7    7      0.00      0.00
   17    7    7      0.00      0.00
   19    7    7      0.00      0.00
   21    7    7      0.00      0.00
   23    7    7      0.00      0.00
   25    7    7      0.00      0.00
   27    7    7      0.00      0.00
   29    7    7      0.00      0.00
   31    7    7      0.00      0.00
   33    7    7      0.00      0.00
   35    7    7      0.00      0.00
  -40    8    7      0.00      0.00
  -38    8    7      0.00      0.00
  -36    8    7      0.00      0.00
  -34    8    7      0.00      0.00
  -32    8    7      0.00      0.00
  -30    8    7      0.00      0.00
  -28    8    7      0.00      0.00
  -26    8    7      0.00      0.00
  -24    8    7      0.00      0.00
  -22    8    7      0.00      0.00
  -20    8    7      0.00      0.00
  -18    8    7      0.00      0.00
  -16    8    7      0.00      0.00
  -14    8    7      0.00      0.00
  -12    8    7      0.00      0.00
  -10    8    7      0.00      0.00
   -8    8    7      0.00      0.00
   -6    8    7      0.00      0.00
   -4    8    7      0.00      0.00
   -2    8    7      0.00      0.00
    0    8    7      0.00      0.00
    2    8    7      0.00      0.00
    4    8    7      0.00      0.00
    6    8    7      0.00      0.00
    8    8    7      0.00      0.00
   10    8    7      0.00      0.00
   12    8    7      0.00      0.00
   14    8    7      0.00      0.00
   16    8    7      0.00      0.00
   18    8    7      0.00      0.00
   20    8    7      0.00      0.00
   22    8    7      0.00      0.00
   24    8    7      0.00      0.00
   26    8    7      0.00      0.00
   28    8    7      0.00      0.00
   30    8    7      0.00      0.00
   32    8    7      0.00      0.00
   34    8    7      0.00      0.00
  -39    9    7      0.00      0.00
  -37    9    7      0.00      0.00
  -35    9    7      0.00      0.00
  -33    9    7      0.00      0.00
  -31    9    7      0.00      0.00
  -29    9    7      0.00      0.00
  -27    9    7      0.00      0.00
  -25    9    7      0.00      0.00
  -23    9    7      0.00      0.00
  -21    9    7      0.00      0.00
  -19    9    7      0.00      0.00
  -17    9    7      0.00      0.00
  -15    9    7      0.00      0.00
  -13    9    7      0.00      0.00
  -11    9    7      0.00      0.00
   -9    9    7      0.00      0.00
   -7    9    7      0.00      0.00
   -5    9    7      0.00      0.00
   -3    9    7      0.00      0.00
   -1    9    7      0.00      0.00
    1    9    7      0.00      0.00
    3    9    7      0.00      0.00
    5    9    7      0.00      0.00
    7    9    7      0.00      0.00
    9    9    7      0.00      0.00
   11    9    7      0.00      0.00
   13    9    7      0.00      0.00
   15    9    7      0.00      0.00
   17    9    7      0.00      0.00
   19    9    7      0.00      0.00
   21    9    7      0.00      0.00
   23    9    7      0.00      0.00
   25    9    7      0.00      0.00
   27    9    7      0.00      0.00
   29    9    7      0.00      0.00
   31    9    7      0.00      0.00
   33    9    7      0.00      0.00
  -38   10    7      0.00      0.00
  -36   10    7      0.00      0.00
  -34   10    7      0.00      0.00
  -32   10    7      0.00      0.00
  -30   10    7      0.00      0.00
  -28   10    7      0.00      0.00
  -26   10    7      0.00      0.00
  -24   10    7      0.00      0.00
  -22   10    7      0.00      0.00
  -20   10    7      0.00      0.00
  -18   10    7      0.00      0.00
  -16   10    7      0.00      0.00
  -14   10    7      0.00      0.00
  -12   10    7      0.00      0.00
  -10   10    7      0.00      0.00
   -8   10    7      0.00      0.00
   -6   10    7      0.00      0.00
   -4   10    7      0.00      0.00
   -2   10    7      0.00      0.00
    0   10    7      0.00      0.00
    2   10    7      0.00      0.00
    4   10    7      0.00      0.00
    6   10    7      0.00      0.00
    8   10    7      0.00      0.00
   10   10    7      0.00      0.00
   12   10    7      0.00      0.00
   14   10    7      0.00      0.00
   16   10    7      0.00      0.00
   18   10    7      0.00      0.00
   20   10    7      0.00      0.00
   22   10    7      0.00      0.00
   24   10    7      0.00      0.00
   26   10    7      0.00      0.00
   28   10    7      0.00      0.00
   30   10    7      0.00      0.00
   32   10    7      0.00      0.00
  -35   11    7      0.00      0.00
  -33   11    7      0.00      0.00
  -31   11    7      0.00      0.00
  -29   11    7      0.00      0.00
  -27   11    7      0.00      0.00
  -25   11    7      0.00      0.00
  -23   11    7      0.00      0.00
  -21   11    7      0.00      0.00
  -19   11    7      0.00      0.00
  -17   11    7      0.00      0.00
  -15   11    7      0.00      0.00
  -13   11    7      0.00      0.00
  -11   11    7      0.00      0.00
   -9   11    7      0.00      0.00
   -7   11    7      0.00      0.00
   -5   11    7      0.00      0.00
   -3   11    7      0.00      0.00
   -1   11    7      0.00      0.00
    1   11    7      0.00      0.00
    3   11    7      0.00      0.00
    5   11    7      0.00      0.00
    7   11    7      0.00      0.00
    9   11    7      0.00      0.00
   11   11    7      0.00      0.00
   13   11    7      0.00      0.00
   15   11    7      0.00      0.00
   17   11    7      0.00      0.00
   19   11    7      0.00      0.00
   21   11    7      0.00      0.00
   23   11    7      0.00      0.00
   25   11    7      0.00      0.00
   27   11    7      0.00      0.00
   29   11    7      0.00      0.00
   31   11    7      0.00      0.00
  -34   12    7      0.00      0.00
  -32   12    7      0.00      0.00
  -30   12    7      0.00      0.00
  -28   12    7      0.00      0.00
  -26   12    7      0.00      0.00
  -24   12    7      0.00      0.00
  -22   12    7      0.00      0.00
  -20   12    7      0.00      0.00
  -18   12    7      0.00      0.00
  -16   12    7      0.00      0.00
  -14   12    7      0.00      0.00
  -12   12    7      0.00      0.00
  -10   12    7      0.00      0.00
   -8   12    7      0.00      0.00
   -6   12    7      0.00      0.00
   -4   12    7      0.00      0.00
   -2   12    7      0.00      0.00
    0   12    7      0.00      0.00
    2   12    7      0.00      0.00
    4   12    7      0.00      0.00
    6   12    7      0.00      0.00
    8   12    7      0.00      0.00
   10   12    7      0.00      0.00
   12   12    7      0.00      0.00
   14   12    7      0.00      0.00
   16   12    7      0.00      0.00
   18   12    7      0.00      0.00
   20   12    7      0.00      0.00
   22   12    7      0.00      0.00
   24   12    7      0.00      0.00
   26   12    7      0.00      0.00
   28   12    7      0.00      0.00
  -31   13    7      0.00      0.00
  -29   13    7      0.00      0.00
  -27   13    7      0.00      0.00
  -25   13    7      0.00      0.00
  -23   13    7      0.00      0.00
  -21   13    7      0.00      0.00
  -19   13    7      0.00      0.00
  -17   13    7      0.00      0.00
  -15   13    7      0.00      0.00
  -13   13    7      0.00      0.00
  -11   13    7      0.00      0.00
   -9   13    7      0.00      0.00
   -7   13    7      0.00      0.00
   -5   13    7      0.00      0.00
   -3   13    7      0.00      0.00
   -1   13    7      0.00      0.00
    1   13    7      0.00      0.00
    3   13    7      0.00      0.00
    5   13    7      0.00      0.00
    7   13    7      0.00      0.00
    9   13    7      0.00      0.00
   11   13    7      0.00      0.00
   13   13    7      0.00      0.00
   15   13    7      0.00      0.00
   17   13    7      0.00      0.00
   19   13    7      0.00      0.00
   21   13    7      0.00      0.00
   23   13    7      0.00      0.00
   25   13    7      0.00      0.00
  -28   14    7      0.00      0.00
  -26   14    7      0.00      0.00
  -24   14    7      0.00      0.00
  -22   14    7      0.00      0.00
  -20   14    7      0.00      0.00
  -18   14    7      0.00      0.00
  -16   14    7      0.00      0.00
  -14   14    7      0.00      0.00
  -12   14    7      0.00      0.00
  -10   14    7      0.00      0.00
   -8   14    7      0.00      0.00
   -6   14    7      0.00      0.00
   -4   14    7      0.00      0.00
   -2   14    7      0.00      0.00
    0   14    7      0.00      0.00
    2   14    7      0.00      0.00
    4   14    7      0.00      0.00
    6   14    7      0.00      0.00
    8   14    7      0.00      0.00
   10   14    7      0.00      0.00
   12   14    7      0.00      0.00
   14   14    7      0.00      0.00
   16   14    7      0.00      0.00
   18   14    7      0.00      0.00
   20   14    7      0.00      0.00
   22   14    7      0.00      0.00
   24   14    7      0.00      0.00
  -25   15    7      0.00      0.00
  -23   15    7      0.00      0.00
  -21   15    7      0.00      0.00
  -19   15    7      0.00      0.00
  -17   15    7      0.00      0.00
  -15   15    7      0.00      0.00
  -13   15    7      0.00      0.00
  -11   15    7      0.00      0.00
   -9   15    7      0.00      0.00
   -7   15    7      0.00      0.00
   -5   15    7      0.00      0.00
   -3   15    7      0.00      0.00
   -1   15    7      0.00      0.00
    1   15    7      0.00      0.00
    3   15    7      0.00      0.00
    5   15    7      0.00      0.00
    7   15    7      0.00      0.00
    9   15    7      0.00      0.00
   11   15    7      0.00      0.00
   13   15    7      0.00      0.00
   15   15    7      0.00      0.00
   17   15    7      0.00      0.00
   19   15    7      0.00      0.00
  -22   16    7      0.00      0.00
  -20   16    7      0.00      0.00
  -18   16    7      0.00      0.00
  -16   16    7      0.00      0.00
  -14   16    7      0.00      0.00
  -12   16    7      0.00      0.00
  -10   16    7      0.00      0.00
   -8   16    7      0.00      0.00
   -6   16    7      0.00      0.00
   -4   16    7      0.00      0.00
   -2   16    7      0.00      0.00
    0   16    7      0.00      0.00
    2   16    7      0.00      0.00
    4   16    7      0.00      0.00
    6   16    7      0.00      0.00
    8   16    7      0.00      0.00
   10   16    7      0.00      0.00
   12   16    7      0.00      0.00
   14   16    7      0.00      0.00
   16   16    7      0.00      0.00
  -17   17    7      0.00      0.00
  -15   17    7      0.00      0.00
  -13   17    7      0.00      0.00
  -11   17    7      0.00      0.00
   -9   17    7      0.00      0.00
   -7   17    7      0.00      0.00
   -5   17    7      0.00      0.00
   -3   17    7      0.00      0.00
   -1   17    7      0.00      0.00
    1   17    7      0.00      0.00
    3   17    7      0.00      0.00
    5   17    7      0.00      0.00
    7   17    7      0.00      0.00
    9   17    7      0.00      0.00
   11   17    7      0.00      0.00
   -4   18    7      0.00      0.00
   -2   18    7      0.00      0.00
    0   18    7      0.00      0.00
  -44    0    8      0.00      0.00
  -42    0    8      0.00      0.00
  -40    0    8      0.00      0.00
  -38    0    8      0.00      0.00
  -36    0    8      0.00      0.00
  -34    0    8      0.00      0.00
  -32    0    8      0.00      0.00
  -30    0    8      0.00      0.00
  -28    0    8      0.00      0.00
  -26    0    8      0.00      0.00
  -24    0    8      0.00      0.00
  -22    0    8      0.00      0.00
  -20    0    8      0.00      0.00
  -18    0    8      0.00      0.00
  -16    0    8      0.00      0.00
  -14    0    8      0.00      0.00
  -12    0    8      0.00      0.00
  -10    0    8      0.00      0.00
   -8    0    8      0.00      0.00
   -6    0    8      0.00      0.00
   -4    0    8      0.00      0.00
   -2    0    8      0.00      0.00
    0    0    8      0.00      0.00
    2    0    8      0.00      0.00
    4    0    8      0.00      0.00
    6    0    8      0.00      0.00
    8    0    8      0.00      0.00
   10    0    8      0.00      0.00
   12    0    8      0.00      0.00
   14    0    8      0.00      0.00
   16    0    8      0.00      0.00
   18    0    8      0.00      0.00
   20    0    8      0.00      0.00
   22    0    8      0.00      0.00
   24    0    8      0.00      0.00
   26    0    8      0.00      0.00
   28    0    8      0.00      0.00
   30    0    8      0.00      0.00
   32    0    8      0.00      0.00
   34    0    8      0.00      0.00
   36    0    8      0.00      0.00
   38    0    8      0.00      0.00
  -45    1    8      0.00      0.00
  -43    1    8      0.00      0.00
  -41    1    8      0.00      0.00
  -39    1    8      0.00      0.00
  -37    1    8      0.00      0.00
  -35    1    8      0.00      0.00
  -33    1    8      0.00      0.00
  -31    1    8      0.00      0.00
  -29    1    8      0.00      0.00
  -27    1    8      0.00      0.00
  -25    1    8      0.00      0.00
  -23    1    8      0.00      0.00
  -21    1    8      0.00      0.00
  -19    1    8      0.00      0.00
  -17    1    8      0.00      0.00
  -15    1    8      0.00      0.00
  -13    1    8      0.00      0.00
  -11    1    8      0.00      0.00
   -9    1    8      0.00      0.00
   -7    1    8      0.00      0.00
   -5    1    8      0.00      0.00
   -3    1    8      0.00      0.00
   -1    1    8      0.00      0.00
    1    1    8      0.00      0.00
    3    1    8      0.00      0.00
    5    1    8      0.00      0.00
    7    1    8      0.00      0.00
    9    1    8      0.00      0.00
   11    1    8      0.00      0.00
   13    1    8      0.00      0.00
   15    1    8      0.00      0.00
   17    1    8      0.00      0.00
   19    1    8      0.00      0.00
   21    1    8      0.00      0.00
   23    1    8      0.00      0.00
   25    1    8      0.00      0.00
   27    1    8      0.00      0.00
   29    1    8      0.00      0.00
   31    1    8      0.00      0.00
   33    1    8      0.00      0.00
   35    1    8      0.00      0.00
   37    1    8      0.00      0.00
  -44    2    8      0.00      0.00
  -42    2    8      0.00      0.00
  -40    2    8      0.00      0.00
  -38    2    8      0.00      0.00
  -36    2    8      0.00      0.00
  -34    2    8      0.00      0.00
  -32    2    8      0.00      0.00
  -30    2    8      0.00      0.00
  -28    2    8      0.00      0.00
  -26    2    8      0.00      0.00
  -24    2    8      0.00      0.00
  -22    2    8      0.00      0.00
  -20    2    8      0.00      0.00
  -18    2    8      0.00      0.00
  -16    2    8      0.00      0.00
  -14    2    8      0.00      0.00
  -12    2    8      0.00      0.00
  -10    2    8      0.00      0.00
   -8    2    8      0.00      0.00
   -6    2    8      0.00      0.00
   -4    2    8      0.00      0.00
   -2    2    8      0.00      0.00
    0    2    8      0.00      0.00
    2    2    8      0.00      0.00
    4    2    8      0.00      0.00
    6    2    8      0.00      0.00
    8    2    8      0.00      0.00
   10    2    8      0.00      0.00
   12    2    8      0.00      0.00
   14    2    8      0.00      0.00
   16    2    8      0.00      0.00
   18    2    8      0.00      0.00
   20    2    8      0.00      0.00
   22    2    8      0.00      0.00
   24    2    8      0.00      0.00
   26    2    8      0.00      0.00
   28    2    8      0.00      0.00
   30    2    8      0.00      0.00
   32    2    8      0.00      0.00
   34    2    8      0.00      0.00
   36    2    8      0.00      0.00
   38    2    8      0.00      0.00
  -43    3    8      0.00      0.00
  -41    3    8      0.00      0.00
  -39    3    8      0.00      0.00
  -37    3    8      0.00      0.00
  -35    3    8      0.00      0.00
  -33    3    8      0.00      0.00
  -31    3    8      0.00      0.00
  -29    3    8      0.00      0.00
  -27    3    8      0.00      0.00
  -25    3    8      0.00      0.00
  -23    3    8      0.00      0.00
  -21    3    8      0.00      0.00
  -19    3    8      0.00      0.00
  -17    3    8      0.00      0.00
  -15    3    8      0.00      0.00
  -13    3    8      0.00      0.00
  -11    3    8      0.00      0.00
   -9    3    8      0.00      0.00
   -7    3    8      0.00      0.00
   -5    3    8      0.00      0.00
   -3    3    8      0.00      0.00
   -1    3    8      0.00      0.00
    1    3    8      0.00      0.00
    3    3    8      0.00      0.00
    5    3    8      0.00      0.00
    7    3    8      0.00      0.00
    9    3    8      0.00      0.00
   11    3    8      0.00      0.00
   13    3    8      0.00      0.00
   15    3    8      0.00      0.00
   17    3    8      0.00      0.00
   19    3    8      0.00      0.00
   21    3    8      0.00      0.00
   23    3    8      0.00      0.00
   25    3    8      0.00      0.00
   27    3    8      0.00      0.00
   29    3    8      0.00      0.00
   31    3    8      0.00      0.00
   33    3    8      0.00      0.00
   35    3    8      0.00      0.00
   37    3    8      0.00      0.00
  -44    4    8      0.00      0.00
  -42    4    8      0.00      0.00
  -40    4    8      0.00      0.00
  -38    4    8      0.00      0.00
  -36    4    8      0.00      0.00
  -34    4    8      0.00      0.00
  -32    4    8      0.00      0.00
  -30    4    8      0.00      0.00
  -28    4    8      0.00      0.00
  -26    4    8      0.00      0.00
  -24    4    8      0.00      0.00
  -22    4    8      0.00      0.00
  -20    4    8      0.00      0.00
  -18    4    8      0.00      0.00
  -16    4    8      0.00      0.00
  -14    4    8      0.00      0.00
  -12    4    8      0.00      0.00
  -10    4    8      0.00      0.00
   -8    4    8      0.00      0.00
   -6    4    8      0.00      0.00
   -4    4    8      0.00      0.00
   -2    4    8      0.00      0.00
    0    4    8      0.00      0.00
    2    4    8      0.00      0.00
    4    4    8      0.00      0.00
    6    4    8      0.00      0.00
    8    4    8      0.00      0.00
   10    4    8      0.00      0.00
   12    4    8      0.00      0.00
   14    4    8      0.00      0.00
   16    4    8      0.00      0.00
   18    4    8      0.00      0.00
   20    4    8      0.00      0.00
   22    4    8      0.00      0.00
   24    4    8      0.00      0.00
   26    4    8      0.00      0.00
   28    4    8      0.00      0.00
   30    4    8      0.00      0.00
   32    4    8      0.00      0.00
   34    4    8      0.00      0.00
   36    4    8      0.00      0.00
  -43    5    8      0.00      0.00
  -41    5    8      0.00      0.00
  -39    5    8      0.00      0.00
  -37    5    8      0.00      0.00
  -35    5    8      0.00      0.00
  -33    5    8      0.00      0.00
  -31    5    8      0.00      0.00
  -29    5    8      0.00      0.00
  -27    5    8      0.00      0.00
  -25    5    8      0.00      0.00
  -23    5    8      0.00      0.00
  -21    5    8      0.00      0.00
  -19    5    8      0.00      0.00
  -17    5    8      0.00      0.00
  -15    5    8      0.00      0.00
  -13    5    8      0.00      0.00
  -11    5    8      0.00      0.00
   -9    5    8      0.00      0.00
   -7    5    8      0.00      0.00
   -5    5    8      0.00      0.00
   -3    5    8      0.00      0.00
   -1    5    8      0.00      0.00
    1    5    8      0.00      0.00
    3    5    8      0.00      0.00
    5    5    8      0.00      0.00
    7    5    8      0.00      0.00
    9    5    8      0.00      0.00
   11    5    8      0.00      0.00
   13    5    8      0.00      0.00
   15    5    8      0.00      0.00
   17    5    8      0.00      0.00
   19    5    8      0.00      0.00
   21    5    8      0.00      0.00
   23    5    8      0.00      0.00
   25    5    8      0.00      0.00
   27    5    8      0.00      0.00
   29    5    8      0.00      0.00
   31    5    8      0.00      0.00
   33    5    8      0.00      0.00
   35    5    8      0.00      0.00
   37    5    8      0.00      0.00
  -42    6    8      0.00      0.00
  -40    6    8      0.00      0.00
  -38    6    8      0.00      0.00
  -36    6    8      0.00      0.00
  -34    6    8      0.00      0.00
  -32    6    8      0.00      0.00
  -30    6    8      0.00      0.00
  -28    6    8      0.00      0.00
  -26    6    8      0.00      0.00
  -24    6    8      0.00      0.00
  -22    6    8      0.00      0.00
  -20    6    8      0.00      0.00
  -18    6    8      0.00      0.00
  -16    6    8      0.00      0.00
  -14    6    8      0.00      0.00
  -12    6    8      0.00      0.00
  -10    6    8      0.00      0.00
   -8    6    8      0.00      0.00
   -6    6    8      0.00      0.00
   -4    6    8      0.00      0.00
   -2    6    8      0.00      0.00
    0    6    8      0.00      0.00
    2    6    8      0.00      0.00
    4    6    8      0.00      0.00
    6    6    8      0.00      0.00
    8    6    8      0.00      0.00
   10    6    8      0.00      0.00
   12    6    8      0.00      0.00
   14    6    8      0.00      0.00
   16    6    8      0.00      0.00
   18    6    8      0.00      0.00
   20    6    8      0.00      0.00
   22    6    8      0.00      0.00
   24    6    8      0.00      0.00
   26    6    8      0.00      0.00
   28    6    8      0.00      0.00
   30    6    8      0.00      0.00
   32    6    8      0.00      0.00
   34    6    8      0.00      0.00
   36    6    8      0.00      0.00
  -41    7    8      0.00      0.00
  -39    7    8      0.00      0.00
  -37    7    8      0.00      0.00
  -35    7    8      0.00      0.00
  -33    7    8      0.00      0.00
  -31    7    8      0.00      0.00
  -29    7    8      0.00      0.00
  -27    7    8      0.00      0.00
  -25    7    8      0.00      0.00
  -23    7    8      0.00      0.00
  -21    7    8      0.00      0.00
  -19    7    8      0.00      0.00
  -17    7    8      0.00      0.00
  -15    7    8      0.00      0.00
  -13    7    8      0.00      0.00
  -11    7    8      0.00      0.00
   -9    7    8      0.00      0.00
   -7    7    8      0.00      0.00
   -5    7    8      0.00      0.00
   -3    7    8      0.00      0.00
   -1    7    8      0.00      0.00
    1    7    8      0.00      0.00
    3    7    8      0.00      0.00
    5    7    8      0.00      0.00
    7    7    8      0.00      0.00
    9    7    8      0.00      0.00
   11    7    8      0.00      0.00
   13    7    8      0.00      0.00
   15    7    8      0.00      0.00
   17    7    8      0.00      0.00
   19    7    8      0.00      0.00
   21    7    8      0.00      0.00
   23    7    8      0.00      0.00
   25    7    8      0.00      0.00
   27    7    8      0.00      0.00
   29    7    8      0.00      0.00
   31    7    8      0.00      0.00
   33    7    8      0.00      0.00
   35    7    8      0.00      0.00
  -40    8    8      0.00      0.00
  -38    8    8      0.00      0.00
  -36    8    8      0.00      0.00
  -34    8    8      0.00      0.00
  -32    8    8      0.00      0.00
  -30    8    8      0.00      0.00
  -28    8    8      0.00      0.00
  -26    8    8      0.00      0.00
  -24    8    8      0.00      0.00
  -22    8    8      0.00      0.00
  -20    8    8      0.00      0.00
  -18    8    8      0.00      0.00
  -16    8    8      0.00      0.00
  -14    8    8      0.00      0.00
  -12    8    8      0.00      0.00
  -10    8    8      0.00      0.00
   -8    8    8      0.00      0.00
   -6    8    8      0.00      0.00
   -4    8    8      0.00      0.00
   -2    8    8      0.00      0.00
    0    8    8      0.00      0.00
    2    8    8      0.00      0.00
    4    8    8      0.00      0.00
    6    8    8      0.00      0.00
    8    8    8      0.00      0.00
   10    8    8      0.00      0.00
   12    8    8      0.00      0.00
   14    8    8      0.00      0.00
   16    8    8      0.00      0.00
   18    8    8      0.00      0.00
   20    8    8      0.00      0.00
   22    8    8      0.00      0.00
   24    8    8      0.00      0.00
   26    8    8      0.00      0.00
   28    8    8      0.00      0.00
   30    8    8      0.00      0.00
   32    8    8      0.00      0.00
   34    8    8      0.00      0.00
  -39    9    8      0.00      0.00
  -37    9    8      0.00      0.00
  -35    9    8      0.00      0.00
  -33    9    8      0.00      0.00
  -31    9    8      0.00      0.00
  -29    9    8      0.00      0.00
  -27    9    8      0.00      0.00
  -25    9    8      0.00      0.00
  -23    9    8      0.00      0.00
  -21    9    8      0.00      0.00
  -19    9    8      0.00      0.00
  -17    9    8      0.00      0.00
  -15    9    8      0.00      0.00
  -13    9    8      0.00      0.00
  -11    9    8      0.00      0.00
   -9    9    8      0.00      0.00
   -7    9    8      0.00      0.00
   -5    9    8      0.00      0.00
   -3    9    8      0.00      0.00
   -1    9    8      0.00      0.00
    1    9    8      0.00      0.00
    3    9    8      0.00      0.00
    5    9    8      0.00      0.00
    7    9    8      0.00      0.00
    9    9    8      0.00      0.00
   11    9    8      0.00      0.00
   13    9    8      0.00      0.00
   15    9    8      0.00      0.00
   17    9    8      0.00      0.00
   19    9    8      0.00      0.00
   21    9    8      0.00      0.00
   23    9    8      0.00      0.00
   25    9    8      0.00      0.00
   27    9    8      0.00      0.00
   29    9    8      0.00      0.00
   31    9    8      0.00      0.00
  -38   10    8      0.00      0.00
  -36   10    8      0.00      0.00
  -34   10    8      0.00      0.00
  -32   10    8      0.00      0.00
  -30   10    8      0.00      0.00
  -28   10    8      0.00      0.00
  -26   10    8      0.00      0.00
  -24   10    8      0.00      0.00
  -22   10    8      0.00      0.00
  -20   10    8      0.00      0.00
  -18   10    8      0.00      0.00
  -16   10    8      0.00      0.00
  -14   10    8      0.00      0.00
  -12   10    8      0.00      0.00
  -10   10    8      0.00      0.00
   -8   10    8      0.00      0.00
   -6   10    8      0.00      0.00
   -4   10    8      0.00      0.00
   -2   10    8      0.00      0.00
    0   10    8      0.00      0.00
    2   10    8      0.00      0.00
    4   10    8      0.00      0.00
    6   10    8      0.00      0.00
    8   10    8      0.00      0.00
   10   10    8      0.00      0.00
   12   10    8      0.00      0.00
   14   10    8      0.00      0.00
   16   10    8      0.00      0.00
   18   10    8      0.00      0.00
   20   10    8      0.00      0.00
   22   10    8      0.00      0.00
   24   10    8      0.00      0.00
   26   10    8      0.00      0.00
   28   10    8      0.00      0.00
   30   10    8      0.00      0.00
  -35   11    8      0.00      0.00
  -33   11    8      0.00      0.00
  -31   11    8      0.00      0.00
  -29   11    8      0.00      0.00
  -27   11    8      0.00      0.00
  -25   11    8      0.00      0.00
  -23   11    8      0.00      0.00
  -21   11    8      0.00      0.00
  -19   11    8      0.00      0.00
  -17   11    8      0.00      0.00
  -15   11    8      0.00      0.00
  -13   11    8      0.00      0.00
  -11   11    8      0.00      0.00
   -9   11    8      0.00      0.00
   -7   11    8      0.00      0.00
   -5   11    8      0.00      0.00
   -3   11    8      0.00      0.00
   -1   11    8      0.00      0.00
    1   11    8      0.00      0.00
    3   11    8      0.00      0.00
    5   11    8      0.00      0.00
    7   11    8      0.00      0.00
    9   11    8      0.00      0.00
   11   11    8      0.00      0.00
   13   11    8      0.00      0.00
   15   11    8      0.00      0.00
   17   11    8      0.00      0.00
   19   11    8      0.00      0.00
   21   11    8      0.00      0.00
   23   11    8      0.00      0.00
   25   11    8      0.00      0.00
   27   11    8      0.00      0.00
   29   11    8      0.00      0.00
  -34   12    8      0.00      0.00
  -32   12    8      0.00      0.00
  -30   12    8      0.00      0.00
  -28   12    8      0.00      0.00
  -26   12    8      0.00      0.00
  -24   12    8      0.00      0.00
  -22   12    8      0.00      0.00
  -20   12    8      0.00      0.00
  -18   12    8      0.00      0.00
  -16   12    8      0.00      0.00
  -14   12    8      0.00      0.00
  -12   12    8      0.00      0.00
  -10   12    8      0.00      0.00
   -8   12    8      0.00      0.00
   -6   12    8      0.00      0.00
   -4   12    8      0.00      0.00
   -2   12    8      0.00      0.00
    0   12    8      0.00      0.00
    2   12    8      0.00      0.00
    4   12    8      0.00      0.00
    6   12    8      0.00      0.00
    8   12    8      0.00      0.00
   10   12    8      0.00      0.00
   12   12    8      0.00      0.00
   14   12    8      0.00      0.00
   16   12    8      0.00      0.00
   18   12    8      0.00      0.00
   20   12    8      0.00      0.00
   22   12    8      0.00      0.00
   24   12    8      0.00      0.00
   26   12    8      0.00      0.00
  -31   13    8      0.00      0.00
  -29   13    8      0.00      0.00
  -27   13    8      0.00      0.00
  -25   13    8      0.00      0.00
  -23   13    8      0.00      0.00
  -21   13    8      0.00      0.00
  -19   13    8      0.00      0.00
  -17   13    8      0.00      0.00
  -15   13    8      0.00      0.00
  -13   13    8      0.00      0.00
  -11   13    8      0.00      0.00
   -9   13    8      0.00      0.00
   -7   13    8      0.00      0.00
   -5   13    8      0.00      0.00
   -3   13    8      0.00      0.00
   -1   13    8      0.00      0.00
    1   13    8      0.00      0.00
    3   13    8      0.00      0.00
    5   13    8      0.00      0.00
    7   13    8      0.00      0.00
    9   13    8      0.00      0.00
   11   13    8      0.00      0.00
   13   13    8      0.00      0.00
   15   13    8      0.00      0.00
   17   13    8      0.00      0.00
   19   13    8      0.00      0.00
   21   13    8      0.00      0.00
   23   13    8      0.00      0.00
   25   13    8      0.00      0.00
  -28   14    8      0.00      0.00
  -26   14    8      0.00      0.00
  -24   14    8      0.00      0.00
  -22   14    8      0.00      0.00
  -20   14    8      0.00      0.00
  -18   14    8      0.00      0.00
  -16   14    8      0.00      0.00
  -14   14    8      0.00      0.00
  -12   14    8      0.00      0.00
  -10   14    8      0.00      0.00
   -8   14    8      0.00      0.00
   -6   14    8      0.00      0.00
   -4   14    8      0.00      0.00
   -2   14    8      0.00      0.00
    0   14    8      0.00      0.00
    2   14    8      0.00      0.00
    4   14    8      0.00      0.00
    6   14    8      0.00      0.00
    8   14    8      0.00      0.00
   10   14    8      0.00      0.00
   12   14    8      0.00      0.00
   14   14    8      0.00      0.00
   16   14    8      0.00      0.00
   18   14    8      0.00      0.00
   20   14    8      0.00      0.00
   22   14    8      0.00      0.00
  -25   15    8      0.00      0.00
  -23   15    8      0.00      0.00
  -21   15    8      0.00      0.00
  -19   15    8      0.00      0.00
  -17   15    8      0.00      0.00
  -15   15    8      0.00      0.00
  -13   15    8      0.00      0.00
  -11   15    8      0.00      0.00
   -9   15    8      0.00      0.00
   -7   15    8      0.00      0.00
   -5   15    8      0.00      0.00
   -3   15    8      0.00      0.00
   -1   15    8      0.00      0.00
    1   15    8      0.00      0.00
    3   15    8      0.00      0.00
    5   15    8      0.00      0.00
    7   15    8      0.00      0.00
    9   15    8      0.00      0.00
   11   15    8      0.00      0.00
   13   15    8      0.00      0.00
   15   15    8      0.00      0.00
   17   15    8      0.00      0.00
   19   15    8      0.00      0.00
  -20   16    8      0.00      0.00
  -18   16    8      0.00      0.00
  -16   16    8      0.00      0.00
  -14   16    8      0.00      0.00
  -12   16    8      0.00      0.00
  -10   16    8      0.00      0.00
   -8   16    8      0.00      0.00
   -6   16    8      0.00      0.00
   -4   16    8      0.00      0.00
   -2   16    8      0.00      0.00
    0   16    8      0.00      0.00
    2   16    8      0.00      0.00
    4   16    8      0.00      0.00
    6   16    8      0.00      0.00
    8   16    8      0.00      0.00
   10   16    8      0.00      0.00
   12   16    8      0.00      0.00
   14   16    8      0.00      0.00
  -13   17    8      0.00      0.00
  -11   17    8      0.00      0.00
   -9   17    8      0.00      0.00
   -7   17    8      0.00      0.00
   -5   17    8      0.00      0.00
   -3   17    8      0.00      0.00
   -1   17    8      0.00      0.00
    1   17    8      0.00      0.00
    3   17    8      0.00      0.00
    5   17    8      0.00      0.00
    7   17    8      0.00      0.00
  -43    1    9      0.00      0.00
  -41    1    9      0.00      0.00
  -39    1    9      0.00      0.00
  -37    1    9      0.00      0.00
  -35    1    9      0.00      0.00
  -33    1    9      0.00      0.00
  -31    1    9      0.00      0.00
  -29    1    9      0.00      0.00
  -27    1    9      0.00      0.00
  -25    1    9      0.00      0.00
  -23    1    9      0.00      0.00
  -21    1    9      0.00      0.00
  -19    1    9      0.00      0.00
  -17    1    9      0.00      0.00
  -15    1    9      0.00      0.00
  -13    1    9      0.00      0.00
  -11    1    9      0.00      0.00
   -9    1    9      0.00      0.00
   -7    1    9      0.00      0.00
   -5    1    9      0.00      0.00
   -3    1    9      0.00      0.00
   -1    1    9      0.00      0.00
    1    1    9      0.00      0.00
    3    1    9      0.00      0.00
    5    1    9      0.00      0.00
    7    1    9      0.00      0.00
    9    1    9      0.00      0.00
   11    1    9      0.00      0.00
   13    1    9      0.00      0.00
   15    1    9      0.00      0.00
   17    1    9      0.00      0.00
   19    1    9      0.00      0.00
   21    1    9      0.00      0.00
   23    1    9      0.00      0.00
   25    1    9      0.00      0.00
   27    1    9      0.00      0.00
   29    1    9      0.00      0.00
   31    1    9      0.00      0.00
   33    1    9      0.00      0.00
   35    1    9      0.00      0.00
   37    1    9      0.00      0.00
  -44    2    9      0.00      0.00
  -42    2    9      0.00      0.00
  -40    2    9      0.00      0.00
  -38    2    9      0.00      0.00
  -36    2    9      0.00      0.00
  -34    2    9      0.00      0.00
  -32    2    9      0.00      0.00
  -30    2    9      0.00      0.00
  -28    2    9      0.00      0.00
  -26    2    9      0.00      0.00
  -24    2    9      0.00      0.00
  -22    2    9      0.00      0.00
  -20    2    9      0.00      0.00
  -18    2    9      0.00      0.00
  -16    2    9      0.00      0.00
  -14    2    9      0.00      0.00
  -12    2    9      0.00      0.00
  -10    2    9      0.00      0.00
   -8    2    9      0.00      0.00
   -6    2    9      0.00      0.00
   -4    2    9      0.00      0.00
   -2    2    9      0.00      0.00
    0    2    9      0.00      0.00
    2    2    9      0.00      0.00
    4    2    9      0.00      0.00
    6    2    9      0.00      0.00
    8    2    9      0.00      0.00
   10    2    9      0.00      0.00
   12    2    9      0.00      0.00
   14    2    9      0.00      0.00
   16    2    9      0.00      0.00
   18    2    9      0.00      0.00
   20    2    9      0.00      0.00
   22    2    9      0.00      0.00
   24    2    9      0.00      0.00
   26    2    9      0.00      0.00
   28    2    9      0.00      0.00
   30    2    9      0.00      0.00
   32    2    9      0.00      0.00
   34    2    9      0.00      0.00
   36    2    9      0.00      0.00
  -43    3    9      0.00      0.00
  -41    3    9      0.00      0.00
  -39    3    9      0.00      0.00
  -37    3    9      0.00      0.00
  -35    3    9      0.00      0.00
  -33    3    9      0.00      0.00
  -31    3    9      0.00      0.00
  -29    3    9      0.00      0.00
  -27    3    9      0.00      0.00
  -25    3    9      0.00      0.00
  -23    3    9      0.00      0.00
  -21    3    9      0.00      0.00
  -19    3    9      0.00      0.00
  -17    3    9      0.00      0.00
  -15    3    9      0.00      0.00
  -13    3    9      0.00      0.00
  -11    3    9      0.00      0.00
   -9    3    9      0.00      0.00
   -7    3    9      0.00      0.00
   -5    3    9      0.00      0.00
   -3    3    9      0.00      0.00
   -1    3    9      0.00      0.00
    1    3    9      0.00      0.00
    3    3    9      0.00      0.00
    5    3    9      0.00      0.00
    7    3    9      0.00      0.00
    9    3    9      0.00      0.00
   11    3    9      0.00      0.00
   13    3    9      0.00      0.00
   15    3    9      0.00      0.00
   17    3    9      0.00      0.00
   19    3    9      0.00      0.00
   21    3    9      0.00      0.00
   23    3    9      0.00      0.00
   25    3    9      0.00      0.00
   27    3    9      0.00      0.00
   29    3    9      0.00      0.00
   31    3    9      0.00      0.00
   33    3    9      0.00      0.00
   35    3    9      0.00      0.00
  -42    4    9      0.00      0.00
  -40    4    9      0.00      0.00
  -38    4    9      0.00      0.00
  -36    4    9      0.00      0.00
  -34    4    9      0.00      0.00
  -32    4    9      0.00      0.00
  -30    4    9      0.00      0.00
  -28    4    9      0.00      0.00
  -26    4    9      0.00      0.00
  -24    4    9      0.00      0.00
  -22    4    9      0.00      0.00
  -20    4    9      0.00      0.00
  -18    4    9      0.00      0.00
  -16    4    9      0.00      0.00
  -14    4    9      0.00      0.00
  -12    4    9      0.00      0.00
  -10    4    9      0.00      0.00
   -8    4    9      0.00      0.00
   -6    4    9      0.00      0.00
   -4    4    9      0.00      0.00
   -2    4    9      0.00      0.00
    0    4    9      0.00      0.00
    2    4    9      0.00      0.00
    4    4    9      0.00      0.00
    6    4    9      0.00      0.00
    8    4    9      0.00      0.00
   10    4    9      0.00      0.00
   12    4    9      0.00      0.00
   14    4    9      0.00      0.00
   16    4    9      0.00      0.00
   18    4    9      0.00      0.00
   20    4    9      0.00      0.00
   22    4    9      0.00      0.00
   24    4    9      0.00      0.00
   26    4    9      0.00      0.00
   28    4    9      0.00      0.00
   30    4    9      0.00      0.00
   32    4    9      0.00      0.00
   34    4    9      0.00      0.00
   36    4    9      0.00      0.00
  -43    5    9      0.00      0.00
  -41    5    9      0.00      0.00
  -39    5    9      0.00      0.00
  -37    5    9      0.00      0.00
  -35    5    9      0.00      0.00
  -33    5    9      0.00      0.00
  -31    5    9      0.00      0.00
  -29    5    9      0.00      0.00
  -27    5    9      0.00      0.00
  -25    5    9      0.00      0.00
  -23    5    9      0.00      0.00
  -21    5    9      0.00      0.00
  -19    5    9      0.00      0.00
  -17    5    9      0.00      0.00
  -15    5    9      0.00      0.00
  -13    5    9      0.00      0.00
  -11    5    9      0.00      0.00
   -9    5    9      0.00      0.00
   -7    5    9      0.00      0.00
   -5    5    9      0.00      0.00
   -3    5    9      0.00      0.00
   -1    5    9      0.00      0.00
    1    5    9      0.00      0.00
    3    5    9      0.00      0.00
    5    5    9      0.00      0.00
    7    5    9      0.00      0.00
    9    5    9      0.00      0.00
   11    5    9      0.00      0.00
   13    5    9      0.00      0.00
   15    5    9      0.00      0.00
   17    5    9      0.00      0.00
   19    5    9      0.00      0.00
   21    5    9      0.00      0.00
   23    5    9      0.00      0.00
   25    5    9      0.00      0.00
   27    5    9      0.00      0.00
   29    5    9      0.00      0.00
   31    5    9      0.00      0.00
   33    5    9      0.00      0.00
   35    5    9      0.00      0.00
  -42    6    9      0.00      0.00
  -40    6    9      0.00      0.00
  -38    6    9      0.00      0.00
  -36    6    9      0.00      0.00
  -34    6    9      0.00      0.00
  -32    6    9      0.00      0.00
  -30    6    9      0.00      0.00
  -28    6    9      0.00      0.00
  -26    6    9      0.00      0.00
  -24    6    9      0.00      0.00
  -22    6    9      0.00      0.00
  -20    6    9      0.00      0.00
  -18    6    9      0.00      0.00
  -16    6    9      0.00      0.00
  -14    6    9      0.00      0.00
  -12    6    9      0.00      0.00
  -10    6    9      0.00      0.00
   -8    6    9      0.00      0.00
   -6    6    9      0.00      0.00
   -4    6    9      0.00      0.00
   -2    6    9      0.00      0.00
    0    6    9      0.00      0.00
    2    6    9      0.00      0.00
    4    6    9      0.00      0.00
    6    6    9      0.00      0.00
    8    6    9      0.00      0.00
   10    6    9      0.00      0.00
   12    6    9      0.00      0.00
   14    6    9      0.00      0.00
   16    6    9      0.00      0.00
   18    6    9      0.00      0.00
   20    6    9      0.00      0.00
   22    6    9      0.00      0.00
   24    6    9      0.00      0.00
   26    6    9      0.00      0.00
   28    6    9      0.00      0.00
   30    6    9      0.00      0.00
   32    6    9      0.00      0.00
   34    6    9      0.00      0.00
  -41    7    9      0.00      0.00
  -39    7    9      0.00      0.00
  -37    7    9      0.00      0.00
  -35    7    9      0.00      0.00
  -33    7    9      0.00      0.00
  -31    7    9      0.00      0.00
  -29    7    9      0.00      0.00
  -27    7    9      0.00      0.00
  -25    7    9      0.00      0.00
  -23    7    9      0.00      0.00
  -21    7    9      0.00      0.00
  -19    7    9      0.00      0.00
  -17    7    9      0.00      0.00
  -15    7    9      0.00      0.00
  -13    7    9      0.00      0.00
  -11    7    9      0.00      0.00
   -9    7    9      0.00      0.00
   -7    7    9      0.00      0.00
   -5    7    9      0.00      0.00
   -3    7    9      0.00      0.00
   -1    7    9      0.00      0.00
    1    7    9      0.00      0.00
    3    7    9      0.00      0.00
    5    7    9      0.00      0.00
    7    7    9      0.00      0.00
    9    7    9      0.00      0.00
   11    7    9      0.00      0.00
   13    7    9      0.00      0.00
   15    7    9      0.00      0.00
   17    7    9      0.00      0.00
   19    7    9      0.00      0.00
   21    7    9      0.00      0.00
   23    7    9      0.00      0.00
   25    7    9      0.00      0.00
   27    7    9      0.00      0.00
   29    7    9      0.00      0.00
   31    7    9      0.00      0.00
   33    7    9      0.00      0.00
  -40    8    9      0.00      0.00
  -38    8    9      0.00      0.00
  -36    8    9      0.00      0.00
  -34    8    9      0.00      0.00
  -32    8    9      0.00      0.00
  -30    8    9      0.00      0.00
  -28    8    9      0.00      0.00
  -26    8    9      0.00      0.00
  -24    8    9      0.00      0.00
  -22    8    9      0.00      0.00
  -20    8    9      0.00      0.00
  -18    8    9      0.00      0.00
  -16    8    9      0.00      0.00
  -14    8    9      0.00      0.00
  -12    8    9      0.00      0.00
  -10    8    9      0.00      0.00
   -8    8    9      0.00      0.00
   -6    8    9      0.00      0.00
   -4    8    9      0.00      0.00
   -2    8    9      0.00      0.00
    0    8    9      0.00      0.00
    2    8    9      0.00      0.00
    4    8    9      0.00      0.00
    6    8    9      0.00      0.00
    8    8    9      0.00      0.00
   10    8    9      0.00      0.00
   12    8    9      0.00      0.00
   14    8    9      0.00      0.00
   16    8    9      0.00      0.00
   18    8    9      0.00      0.00
   20    8    9      0.00      0.00
   22    8    9      0.00      0.00
   24    8    9      0.00      0.00
   26    8    9      0.00      0.00
   28    8    9      0.00      0.00
   30    8    9      0.00      0.00
   32    8    9      0.00      0.00
  -37    9    9      0.00      0.00
  -35    9    9      0.00      0.00
  -33    9    9      0.00      0.00
  -31    9    9      0.00      0.00
  -29    9    9      0.00      0.00
  -27    9    9      0.00      0.00
  -25    9    9      0.00      0.00
  -23    9    9      0.00      0.00
  -21    9    9      0.00      0.00
  -19    9    9      0.00      0.00
  -17    9    9      0.00      0.00
  -15    9    9      0.00      0.00
  -13    9    9      0.00      0.00
  -11    9    9      0.00      0.00
   -9    9    9      0.00      0.00
   -7    9    9      0.00      0.00
   -5    9    9      0.00      0.00
   -3    9    9      0.00      0.00
   -1    9    9      0.00      0.00
    1    9    9      0.00      0.00
    3    9    9      0.00      0.00
    5    9    9      0.00      0.00
    7    9    9      0.00      0.00
    9    9    9      0.00      0.00
   11    9    9      0.00      0.00
   13    9    9      0.00      0.00
   15    9    9      0.00      0.00
   17    9    9      0.00      0.00
   19    9    9      0.00      0.00
   21    9    9      0.00      0.00
   23    9    9      0.00      0.00
   25    9    9      0.00      0.00
   27    9    9      0.00      0.00
   29    9    9      0.00      0.00
   31    9    9      0.00      0.00
  -36   10    9      0.00      0.00
  -34   10    9      0.00      0.00
  -32   10    9      0.00      0.00
  -30   10    9      0.00      0.00
  -28   10    9      0.00      0.00
  -26   10    9      0.00      0.00
  -24   10    9      0.00      0.00
  -22   10    9      0.00      0.00
  -20   10    9      0.00      0.00
  -18   10    9      0.00      0.00
  -16   10    9      0.00      0.00
  -14   10    9      0.00      0.00
  -12   10    9      0.00      0.00
  -10   10    9      0.00      0.00
   -8   10    9      0.00      0.00
   -6   10    9      0.00      0.00
   -4   10    9      0.00      0.00
   -2   10    9      0.00      0.00
    0   10    9      0.00      0.00
    2   10    9      0.00      0.00
    4   10    9      0.00      0.00
    6   10    9      0.00      0.00
    8   10    9      0.00      0.00
   10   10    9      0.00      0.00
   12   10    9      0.00      0.00
   14   10    9      0.00      0.00
   16   10    9      0.00      0.00
   18   10    9      0.00      0.00
   20   10    9      0.00      0.00
   22   10    9      0.00      0.00
   24   10    9      0.00      0.00
   26   10    9      0.00      0.00
   28   10    9      0.00      0.00
  -35   11    9      0.00      0.00
  -33   11    9      0.00      0.00
  -31   11    9      0.00      0.00
  -29   11    9      0.00      0.00
  -27   11    9      0.00      0.00
  -25   11    9      0.00      0.00
  -23   11    9      0.00      0.00
  -21   11    9      0.00      0.00
  -19   11    9      0.00      0.00
  -17   11    9      0.00      0.00
  -15   11    9      0.00      0.00
  -13   11    9      0.00      0.00
  -11   11    9      0.00      0.00
   -9   11    9      0.00      0.00
   -7   11    9      0.00      0.00
   -5   11    9      0.00      0.00
   -3   11    9      0.00      0.00
   -1   11    9      0.00      0.00
    1   11    9      0.00      0.00
    3   11    9      0.00      0.00
    5   11    9      0.00      0.00
    7   11    9      0.00      0.00
    9   11    9      0.00      0.00
   11   11    9      0.00      0.00
   13   11    9      0.00      0.00
   15   11    9      0.00      0.00
   17   11    9      0.00      0.00
   19   11    9      0.00      0.00
   21   11    9      0.00      0.00
   23   11    9      0.00      0.00
   25   11    9      0.00      0.00
   27   11    9      0.00      0.00
  -32   12    9      0.00      0.00
  -30   12    9      0.00      0.00
  -28   12    9      0.00      0.00
  -26   12    9      0.00      0.00
  -24   12    9      0.00      0.00
  -22   12    9      0.00      0.00
  -20   12    9      0.00      0.00
  -18   12    9      0.00      0.00
  -16   12    9      0.00      0.00
  -14   12    9      0.00      0.00
  -12   12    9      0.00      0.00
  -10   12    9      0.00      0.00
   -8   12    9      0.00      0.00
   -6   12    9      0.00      0.00
   -4   12    9      0.00      0.00
   -2   12    9      0.00      0.00
    0   12    9      0.00      0.00
    2   12    9      0.00      0.00
    4   12    9      0.00      0.00
    6   12    9      0.00      0.00
    8   12    9      0.00      0.00
   10   12    9      0.00      0.00
   12   12    9      0.00      0.00
   14   12    9      0.00      0.00
   16   12    9      0.00      0.00
   18   12    9      0.00      0.00
   20   12    9      0.00      0.00
   22   12    9      0.00      0.00
   24   12    9      0.00      0.00
   26   12    9      0.00      0.00
  -29   13    9      0.00      0.00
  -27   13    9      0.00      0.00
  -25   13    9      0.00      0.00
  -23   13    9      0.00      0.00
  -21   13    9      0.00      0.00
  -19   13    9      0.00      0.00
  -17   13    9      0.00      0.00
  -15   13    9      0.00      0.00
  -13   13    9      0.00      0.00
  -11   13    9      0.00      0.00
   -9   13    9      0.00      0.00
   -7   13    9      0.00      0.00
   -5   13    9      0.00      0.00
   -3   13    9      0.00      0.00
   -1   13    9      0.00      0.00
    1   13    9      0.00      0.00
    3   13    9      0.00      0.00
    5   13    9      0.00      0.00
    7   13    9      0.00      0.00
    9   13    9      0.00      0.00
   11   13    9      0.00      0.00
   13   13    9      0.00      0.00
   15   13    9      0.00      0.00
   17   13    9      0.00      0.00
   19   13    9      0.00      0.00
   21   13    9      0.00      0.00
   23   13    9      0.00      0.00
  -26   14    9      0.00      0.00
  -24   14    9      0.00      0.00
  -22   14    9      0.00      0.00
  -20   14    9      0.00      0.00
  -18   14    9      0.00      0.00
  -16   14    9      0.00      0.00
  -14   14    9      0.00      0.00
  -12   14    9      0.00      0.00
  -10   14    9      0.00      0.00
   -8   14    9      0.00      0.00
   -6   14    9      0.00      0.00
   -4   14    9      0.00      0.00
   -2   14    9      0.00      0.00
    0   14    9      0.00      0.00
    2   14    9      0.00      0.00
    4   14    9      0.00      0.00
    6   14    9      0.00      0.00
    8   14    9      0.00      0.00
   10   14    9      0.00      0.00
   12   14    9      0.00      0.00
   14   14    9      0.00      0.00
   16   14    9      0.00      0.00
   18   14    9      0.00      0.00
   20   14    9      0.00      0.00
  -23   15    9      0.00      0.00
  -21   15    9      0.00      0.00
  -19   15    9      0.00      0.00
  -17   15    9      0.00      0.00
  -15   15    9      0.00      0.00
  -13   15    9      0.00      0.00
  -11   15    9      0.00      0.00
   -9   15    9      0.00      0.00
   -7   15    9      0.00      0.00
   -5   15    9      0.00      0.00
   -3   15    9      0.00      0.00
   -1   15    9      0.00      0.00
    1   15    9      0.00      0.00
    3   15    9      0.00      0.00
    5   15    9      0.00      0.00
    7   15    9      0.00      0.00
    9   15    9      0.00      0.00
   11   15    9      0.00      0.00
   13   15    9      0.00      0.00
   15   15    9      0.00      0.00
  -18   16    9      0.00      0.00
  -16   16    9      0.00      0.00
  -14   16    9      0.00      0.00
  -12   16    9      0.00      0.00
  -10   16    9      0.00      0.00
   -8   16    9      0.00      0.00
   -6   16    9      0.00      0.00
   -4   16    9      0.00      0.00
   -2   16    9      0.00      0.00
    0   16    9      0.00      0.00
    2   16    9      0.00      0.00
    4   16    9      0.00      0.00
    6   16    9      0.00      0.00
    8   16    9      0.00      0.00
   10   16    9      0.00      0.00
   12   16    9      0.00      0.00
  -11   17    9      0.00      0.00
   -9   17    9      0.00      0.00
   -7   17    9      0.00      0.00
   -5   17    9      0.00      0.00
   -3   17    9      0.00      0.00
   -1   17    9      0.00      0.00
    1   17    9      0.00      0.00
    3   17    9      0.00      0.00
  -44    0   10      0.00      0.00
  -42    0   10      0.00      0.00
  -40    0   10      0.00      0.00
  -38    0   10      0.00      0.00
  -36    0   10      0.00      0.00
  -34    0   10      0.00      0.00
  -32    0   10      0.00      0.00
  -30    0   10      0.00      0.00
  -28    0   10      0.00      0.00
  -26    0   10      0.00      0.00
  -24    0   10      0.00      0.00
  -22    0   10      0.00      0.00
  -20    0   10      0.00      0.00
  -18    0   10      0.00      0.00
  -16    0   10      0.00      0.00
  -14    0   10      0.00      0.00
  -12    0   10      0.00      0.00
  -10    0   10      0.00      0.00
   -8    0   10      0.00      0.00
   -6    0   10      0.00      0.00
   -4    0   10      0.00      0.00
   -2    0   10      0.00      0.00
    0    0   10      0.00      0.00
    2    0   10      0.00      0.00
    4    0   10      0.00      0.00
    6    0   10      0.00      0.00
    8    0   10      0.00      0.00
   10    0   10      0.00      0.00
   12    0   10      0.00      0.00
   14    0   10      0.00      0.00
   16    0   10      0.00      0.00
   18    0   10      0.00      0.00
   20    0   10      0.00      0.00
   22    0   10      0.00      0.00
   24    0   10      0.00      0.00
   26    0   10      0.00      0.00
   28    0   10      0.00      0.00
   30    0   10      0.00      0.00
   32    0   10      0.00      0.00
   34    0   10      0.00      0.00
   36    0   10      0.00      0.00
  -43    1   10      0.00      0.00
  -41    1   10      0.00      0.00
  -39    1   10      0.00      0.00
  -37    1   10      0.00      0.00
  -35    1   10      0.00      0.00
  -33    1   10      0.00      0.00
  -31    1   10      0.00      0.00
  -29    1   10      0.00      0.00
  -27    1   10      0.00      0.00
  -25    1   10      0.00      0.00
  -23    1   10      0.00      0.00
  -21    1   10      0.00      0.00
  -19    1   10      0.00      0.00
  -17    1   10      0.00      0.00
  -15    1   10      0.00      0.00
  -13    1   10      0.00      0.00
  -11    1   10      0.00      0.00
   -9    1   10      0.00      0.00
   -7    1   10      0.00      0.00
   -5    1   10      0.00      0.00
   -3    1   10      0.00      0.00
   -1    1   10      0.00      0.00
    1    1   10      0.00      0.00
    3    1   10      0.00      0.00
    5    1   10      0.00      0.00
    7    1   10      0.00      0.00
    9    1   10      0.00      0.00
   11    1   10      0.00      0.00
   13    1   10      0.00      0.00
   15    1   10      0.00      0.00
   17    1   10      0.00      0.00
   19    1   10      0.00      0.00
   21    1   10      0.00      0.00
   23    1   10      0.00      0.00
   25    1   10      0.00      0.00
   27    1   10      0.00      0.00
   29    1   10      0.00      0.00
   31    1   10      0.00      0.00
   33    1   10      0.00      0.00
   35    1   10      0.00      0.00
  -42    2   10      0.00      0.00
  -40    2   10      0.00      0.00
  -38    2   10      0.00      0.00
  -36    2   10      0.00      0.00
  -34    2   10      0.00      0.00
  -32    2   10      0.00      0.00
  -30    2   10      0.00      0.00
  -28    2   10      0.00      0.00
  -26    2   10      0.00      0.00
  -24    2   10      0.00      0.00
  -22    2   10      0.00      0.00
  -20    2   10      0.00      0.00
  -18    2   10      0.00      0.00
  -16    2   10      0.00      0.00
  -14    2   10      0.00      0.00
  -12    2   10      0.00      0.00
  -10    2   10      0.00      0.00
   -8    2   10      0.00      0.00
   -6    2   10      0.00      0.00
   -4    2   10      0.00      0.00
   -2    2   10      0.00      0.00
    0    2   10      0.00      0.00
    2    2   10      0.00      0.00
    4    2   10      0.00      0.00
    6    2   10      0.00      0.00
    8    2   10      0.00      0.00
   10    2   10      0.00      0.00
   12    2   10      0.00      0.00
   14    2   10      0.00      0.00
   16    2   10      0.00      0.00
   18    2   10      0.00      0.00
   20    2   10      0.00      0.00
   22    2   10      0.00      0.00
   24    2   10      0.00      0.00
   26    2   10      0.00      0.00
   28    2   10      0.00      0.00
   30    2   10      0.00      0.00
   32    2   10      0.00      0.00
   34    2   10      0.00      0.00
  -43    3   10      0.00      0.00
  -41    3   10      0.00      0.00
  -39    3   10      0.00      0.00
  -37    3   10      0.00      0.00
  -35    3   10      0.00      0.00
  -33    3   10      0.00      0.00
  -31    3   10      0.00      0.00
  -29    3   10      0.00      0.00
  -27    3   10      0.00      0.00
  -25    3   10      0.00      0.00
  -23    3   10      0.00      0.00
  -21    3   10      0.00      0.00
  -19    3   10      0.00      0.00
  -17    3   10      0.00      0.00
  -15    3   10      0.00      0.00
  -13    3   10      0.00      0.00
  -11    3   10      0.00      0.00
   -9    3   10      0.00      0.00
   -7    3   10      0.00      0.00
   -5    3   10      0.00      0.00
   -3    3   10      0.00      0.00
   -1    3   10      0.00      0.00
    1    3   10      0.00      0.00
    3    3   10      0.00      0.00
    5    3   10      0.00      0.00
    7    3   10      0.00      0.00
    9    3   10      0.00      0.00
   11    3   10      0.00      0.00
   13    3   10      0.00      0.00
   15    3   10      0.00      0.00
   17    3   10      0.00      0.00
   19    3   10      0.00      0.00
   21    3   10      0.00      0.00
   23    3   10      0.00      0.00
   25    3   10      0.00      0.00
   27    3   10      0.00      0.00
   29    3   10      0.00      0.00
   31    3   10      0.00      0.00
   33    3   10      0.00      0.00
   35    3   10      0.00      0.00
  -42    4   10      0.00      0.00
  -40    4   10      0.00      0.00
  -38    4   10      0.00      0.00
  -36    4   10      0.00      0.00
  -34    4   10      0.00      0.00
  -32    4   10      0.00      0.00
  -30    4   10      0.00      0.00
  -28    4   10      0.00      0.00
  -26    4   10      0.00      0.00
  -24    4   10      0.00      0.00
  -22    4   10      0.00      0.00
  -20    4   10      0.00      0.00
  -18    4   10      0.00      0.00
  -16    4   10      0.00      0.00
  -14    4   10      0.00      0.00
  -12    4   10      0.00      0.00
  -10    4   10      0.00      0.00
   -8    4   10      0.00      0.00
   -6    4   10      0.00      0.00
   -4    4   10      0.00      0.00
   -2    4   10      0.00      0.00
    0    4   10      0.00      0.00
    2    4   10      0.00      0.00
    4    4   10      0.00      0.00
    6    4   10      0.00      0.00
    8    4   10      0.00      0.00
   10    4   10      0.00      0.00
   12    4   10      0.00      0.00
   14    4   10      0.00      0.00
   16    4   10      0.00      0.00
   18    4   10      0.00      0.00
   20    4   10      0.00      0.00
   22    4   10      0.00      0.00
   24    4   10      0.00      0.00
   26    4   10      0.00      0.00
   28    4   10      0.00      0.00
   30    4   10      0.00      0.00
   32    4   10      0.00      0.00
   34    4   10      0.00      0.00
  -41    5   10      0.00      0.00
  -39    5   10      0.00      0.00
  -37    5   10      0.00      0.00
  -35    5   10      0.00      0.00
  -33    5   10      0.00      0.00
  -31    5   10      0.00      0.00
  -29    5   10      0.00      0.00
  -27    5   10      0.00      0.00
  -25    5   10      0.00      0.00
  -23    5   10      0.00      0.00
  -21    5   10      0.00      0.00
  -19    5   10      0.00      0.00
  -17    5   10      0.00      0.00
  -15    5   10      0.00      0.00
  -13    5   10      0.00      0.00
  -11    5   10      0.00      0.00
   -9    5   10      0.00      0.00
   -7    5   10      0.00      0.00
   -5    5   10      0.00      0.00
   -3    5   10      0.00      0.00
   -1    5   10      0.00      0.00
    1    5   10      0.00      0.00
    3    5   10      0.00      0.00
    5    5   10      0.00      0.00
    7    5   10      0.00      0.00
    9    5   10      0.00      0.00
   11    5   10      0.00      0.00
   13    5   10      0.00      0.00
   15    5   10      0.00      0.00
   17    5   10      0.00      0.00
   19    5   10      0.00      0.00
   21    5   10      0.00      0.00
   23    5   10      0.00      0.00
   25    5   10      0.00      0.00
   27    5   10      0.00      0.00
   29    5   10      0.00      0.00
   31    5   10      0.00      0.00
   33    5   10      0.00      0.00
  -40    6   10      0.00      0.00
  -38    6   10      0.00      0.00
  -36    6   10      0.00      0.00
  -34    6   10      0.00      0.00
  -32    6   10      0.00      0.00
  -30    6   10      0.00      0.00
  -28    6   10      0.00      0.00
  -26    6   10      0.00      0.00
  -24    6   10      0.00      0.00
  -22    6   10      0.00      0.00
  -20    6   10      0.00      0.00
  -18    6   10      0.00      0.00
  -16    6   10      0.00      0.00
  -14    6   10      0.00      0.00
  -12    6   10      0.00      0.00
  -10    6   10      0.00      0.00
   -8    6   10      0.00      0.00
   -6    6   10      0.00      0.00
   -4    6   10      0.00      0.00
   -2    6   10      0.00      0.00
    0    6   10      0.00      0.00
    2    6   10      0.00      0.00
    4    6   10      0.00      0.00
    6    6   10      0.00      0.00
    8    6   10      0.00      0.00
   10    6   10      0.00      0.00
   12    6   10      0.00      0.00
   14    6   10      0.00      0.00
   16    6   10      0.00      0.00
   18    6   10      0.00      0.00
   20    6   10      0.00      0.00
   22    6   10      0.00      0.00
   24    6   10      0.00      0.00
   26    6   10      0.00      0.00
   28    6   10      0.00      0.00
   30    6   10      0.00      0.00
   32    6   10      0.00      0.00
  -39    7   10      0.00      0.00
  -37    7   10      0.00      0.00
  -35    7   10      0.00      0.00
  -33    7   10      0.00      0.00
  -31    7   10      0.00      0.00
  -29    7   10      0.00      0.00
  -27    7   10      0.00      0.00
  -25    7   10      0.00      0.00
  -23    7   10      0.00      0.00
  -21    7   10      0.00      0.00
  -19    7   10      0.00      0.00
  -17    7   10      0.00      0.00
  -15    7   10      0.00      0.00
  -13    7   10      0.00      0.00
  -11    7   10      0.00      0.00
   -9    7   10      0.00      0.00
   -7    7   10      0.00      0.00
   -5    7   10      0.00      0.00
   -3    7   10      0.00      0.00
   -1    7   10      0.00      0.00
    1    7   10      0.00      0.00
    3    7   10      0.00      0.00
    5    7   10      0.00      0.00
    7    7   10      0.00      0.00
    9    7   10      0.00      0.00
   11    7   10      0.00      0.00
   13    7   10      0.00      0.00
   15    7   10      0.00      0.00
   17    7   10      0.00      0.00
   19    7   10      0.00      0.00
   21    7   10      0.00      0.00
   23    7   10      0.00      0.00
   25    7   10      0.00      0.00
   27    7   10      0.00      0.00
   29    7   10      0.00      0.00
   31    7   10      0.00      0.00
  -38    8   10      0.00      0.00
  -36    8   10      0.00      0.00
  -34    8   10      0.00      0.00
  -32    8   10      0.00      0.00
  -30    8   10      0.00      0.00
  -28    8   10      0.00      0.00
  -26    8   10      0.00      0.00
  -24    8   10      0.00      0.00
  -22    8   10      0.00      0.00
  -20    8   10      0.00      0.00
  -18    8   10      0.00      0.00
  -16    8   10      0.00      0.00
  -14    8   10      0.00      0.00
  -12    8   10      0.00      0.00
  -10    8   10      0.00      0.00
   -8    8   10      0.00      0.00
   -6    8   10      0.00      0.00
   -4    8   10      0.00      0.00
   -2    8   10      0.00      0.00
    0    8   10      0.00      0.00
    2    8   10      0.00      0.00
    4    8   10      0.00      0.00
    6    8   10      0.00      0.00
    8    8   10      0.00      0.00
   10    8   10      0.00      0.00
   12    8   10      0.00      0.00
   14    8   10      0.00      0.00
   16    8   10      0.00      0.00
   18    8   10      0.00      0.00
   20    8   10      0.00      0.00
   22    8   10      0.00      0.00
   24    8   10      0.00      0.00
   26    8   10      0.00      0.00
   28    8   10      0.00      0.00
   30    8   10      0.00      0.00
  -37    9   10      0.00      0.00
  -35    9   10      0.00      0.00
  -33    9   10      0.00      0.00
  -31    9   10      0.00      0.00
  -29    9   10      0.00      0.00
  -27    9   10      0.00      0.00
  -25    9   10      0.00      0.00
  -23    9   10      0.00      0.00
  -21    9   10      0.00      0.00
  -19    9   10      0.00      0.00
  -17    9   10      0.00      0.00
  -15    9   10      0.00      0.00
  -13    9   10      0.00      0.00
  -11    9   10      0.00      0.00
   -9    9   10      0.00      0.00
   -7    9   10      0.00      0.00
   -5    9   10      0.00      0.00
   -3    9   10      0.00      0.00
   -1    9   10      0.00      0.00
    1    9   10      0.00      0.00
    3    9   10      0.00      0.00
    5    9   10      0.00      0.00
    7    9   10      0.00      0.00
    9    9   10      0.00      0.00
   11    9   10      0.00      0.00
   13    9   10      0.00      0.00
   15    9   10      0.00      0.00
   17    9   10      0.00      0.00
   19    9   10      0.00      0.00
   21    9   10      0.00      0.00
   23    9   10      0.00      0.00
   25    9   10      0.00      0.00
   27    9   10      0.00      0.00
   29    9   10      0.00      0.00
  -36   10   10      0.00      0.00
  -34   10   10      0.00      0.00
  -32   10   10      0.00      0.00
  -30   10   10      0.00      0.00
  -28   10   10      0.00      0.00
  -26   10   10      0.00      0.00
  -24   10   10      0.00      0.00
  -22   10   10      0.00      0.00
  -20   10   10      0.00      0.00
  -18   10   10      0.00      0.00
  -16   10   10      0.00      0.00
  -14   10   10      0.00      0.00
  -12   10   10      0.00      0.00
  -10   10   10      0.00      0.00
   -8   10   10      0.00      0.00
   -6   10   10      0.00      0.00
   -4   10   10      0.00      0.00
   -2   10   10      0.00      0.00
    0   10   10      0.00      0.00
    2   10   10      0.00      0.00
    4   10   10      0.00      0.00
    6   10   10      0.00      0.00
    8   10   10      0.00      0.00
   10   10   10      0.00      0.00
   12   10   10      0.00      0.00
   14   10   10      0.00      0.00
   16   10   10      0.00      0.00
   18   10   10      0.00      0.00
   20   10   10      0.00      0.00
   22   10   10      0.00      0.00
   24   10   10      0.00      0.00
   26   10   10      0.00      0.00
   28   10   10      0.00      0.00
  -33   11   10      0.00      0.00
  -31   11   10      0.00      0.00
  -29   11   10      0.00      0.00
  -27   11   10      0.00      0.00
  -25   11   10      0.00      0.00
  -23   11   10      0.00      0.00
  -21   11   10      0.00      0.00
  -19   11   10      0.00      0.00
  -17   11   10      0.00      0.00
  -15   11   10      0.00      0.00
  -13   11   10      0.00      0.00
  -11   11   10      0.00      0.00
   -9   11   10      0.00      0.00
   -7   11   10      0.00      0.00
   -5   11   10      0.00      0.00
   -3   11   10      0.00      0.00
   -1   11   10      0.00      0.00
    1   11   10      0.00      0.00
    3   11   10      0.00      0.00
    5   11   10      0.00      0.00
    7   11   10      0.00      0.00
    9   11   10      0.00      0.00
   11   11   10      0.00      0.00
   13   11   10      0.00      0.00
   15   11   10      0.00      0.00
   17   11   10      0.00      0.00
   19   11   10      0.00      0.00
   21   11   10      0.00      0.00
   23   11   10      0.00      0.00
   25   11   10      0.00      0.00
  -32   12   10      0.00      0.00
  -30   12   10      0.00      0.00
  -28   12   10      0.00      0.00
  -26   12   10      0.00      0.00
  -24   12   10      0.00      0.00
  -22   12   10      0.00      0.00
  -20   12   10      0.00      0.00
  -18   12   10      0.00      0.00
  -16   12   10      0.00      0.00
  -14   12   10      0.00      0.00
  -12   12   10      0.00      0.00
  -10   12   10      0.00      0.00
   -8   12   10      0.00      0.00
   -6   12   10      0.00      0.00
   -4   12   10      0.00      0.00
   -2   12   10      0.00      0.00
    0   12   10      0.00      0.00
    2   12   10      0.00      0.00
    4   12   10      0.00      0.00
    6   12   10      0.00      0.00
    8   12   10      0.00      0.00
   10   12   10      0.00      0.00
   12   12   10      0.00      0.00
   14   12   10      0.00      0.00
   16   12   10      0.00      0.00
   18   12   10      0.00      0.00
   20   12   10      0.00      0.00
   22   12   10      0.00      0.00
   24   12   10      0.00      0.00
  -29   13   10      0.00      0.00
  -27   13   10      0.00      0.00
  -25   13   10      0.00      0.00
  -23   13   10      0.00      0.00
  -21   13   10      0.00      0.00
  -19   13   10      0.00      0.00
  -17   13   10      0.00      0.00
  -15   13   10      0.00      0.00
  -13   13   10      0.00      0.00
  -11   13   10      0.00      0.00
   -9   13   10      0.00      0.00
   -7   13   10      0.00      0.00
   -5   13   10      0.00      0.00
   -3   13   10      0.00      0.00
   -1   13   10      0.00      0.00
    1   13   10      0.00      0.00
    3   13   10      0.00      0.00
    5   13   10      0.00      0.00
    7   13   10      0.00      0.00
    9   13   10      0.00      0.00
   11   13   10      0.00      0.00
   13   13   10      0.00      0.00
   15   13   10      0.00      0.00
   17   13   10      0.00      0.00
   19   13   10      0.00      0.00
   21   13   10      0.00      0.00
  -26   14   10      0.00      0.00
  -24   14   10      0.00      0.00
  -22   14   10      0.00      0.00
  -20   14   10      0.00      0.00
  -18   14   10      0.00      0.00
  -16   14   10      0.00      0.00
  -14   14   10      0.00      0.00
  -12   14   10      0.00      0.00
  -10   14   10      0.00      0.00
   -8   14   10      0.00      0.00
   -6   14   10      0.00      0.00
   -4   14   10      0.00      0.00
   -2   14   10      0.00      0.00
    0   14   10      0.00      0.00
    2   14   10      0.00      0.00
    4   14   10      0.00      0.00
    6   14   10      0.00      0.00
    8   14   10      0.00      0.00
   10   14   10      0.00      0.00
   12   14   10      0.00      0.00
   14   14   10      0.00      0.00
   16   14   10      0.00      0.00
   18   14   10      0.00      0.00
  -21   15   10      0.00      0.00
  -19   15   10      0.00      0.00
  -17   15   10      0.00      0.00
  -15   15   10      0.00      0.00
  -13   15   10      0.00      0.00
  -11   15   10      0.00      0.00
   -9   15   10      0.00      0.00
   -7   15   10      0.00      0.00
   -5   15   10      0.00      0.00
   -3   15   10      0.00      0.00
   -1   15   10      0.00      0.00
    1   15   10      0.00      0.00
    3   15   10      0.00      0.00
    5   15   10      0.00      0.00
    7   15   10      0.00      0.00
    9   15   10      0.00      0.00
   11   15   10      0.00      0.00
   13   15   10      0.00      0.00
  -16   16   10      0.00      0.00
  -14   16   10      0.00      0.00
  -12   16   10      0.00      0.00
  -10   16   10      0.00      0.00
   -8   16   10      0.00      0.00
   -6   16   10      0.00      0.00
   -4   16   10      0.00      0.00
   -2   16   10      0.00      0.00
    0   16   10      0.00      0.00
    2   16   10      0.00      0.00
    4   16   10      0.00      0.00
    6   16   10      0.00      0.00
    8   16   10      0.00      0.00
  -43    1   11      0.00      0.00
  -41    1   11      0.00      0.00
  -39    1   11      0.00      0.00
  -37    1   11      0.00      0.00
  -35    1   11      0.00      0.00
  -33    1   11      0.00      0.00
  -31    1   11      0.00      0.00
  -29    1   11      0.00      0.00
  -27    1   11      0.00      0.00
  -25    1   11      0.00      0.00
  -23    1   11      0.00      0.00
  -21    1   11      0.00      0.00
  -19    1   11      0.00      0.00
  -17    1   11      0.00      0.00
  -15    1   11      0.00      0.00
  -13    1   11      0.00      0.00
  -11    1   11      0.00      0.00
   -9    1   11      0.00      0.00
   -7    1   11      0.00      0.00
   -5    1   11      0.00      0.00
   -3    1   11      0.00      0.00
   -1    1   11      0.00      0.00
    1    1   11      0.00      0.00
    3    1   11      0.00      0.00
    5    1   11      0.00      0.00
    7    1   11      0.00      0.00
    9    1   11      0.00      0.00
   11    1   11      0.00      0.00
   13    1   11      0.00      0.00
   15    1   11      0.00      0.00
   17    1   11      0.00      0.00
   19    1   11      0.00      0.00
   21    1   11      0.00      0.00
   23    1   11      0.00      0.00
   25    1   11      0.00      0.00
   27    1   11      0.00      0.00
   29    1   11      0.00      0.00
   31    1   11      0.00      0.00
   33    1   11      0.00      0.00
  -42    2   11      0.00      0.00
  -40    2   11      0.00      0.00
  -38    2   11      0.00      0.00
  -36    2   11      0.00      0.00
  -34    2   11      0.00      0.00
  -32    2   11      0.00      0.00
  -30    2   11      0.00      0.00
  -28    2   11      0.00      0.00
  -26    2   11      0.00      0.00
  -24    2   11      0.00      0.00
  -22    2   11      0.00      0.00
  -20    2   11      0.00      0.00
  -18    2   11      0.00      0.00
  -16    2   11      0.00      0.00
  -14    2   11      0.00      0.00
  -12    2   11      0.00      0.00
  -10    2   11      0.00      0.00
   -8    2   11      0.00      0.00
   -6    2   11      0.00      0.00
   -4    2   11      0.00      0.00
   -2    2   11      0.00      0.00
    0    2   11      0.00      0.00
    2    2   11      0.00      0.00
    4    2   11      0.00      0.00
    6    2   11      0.00      0.00
    8    2   11      0.00      0.00
   10    2   11      0.00      0.00
   12    2   11      0.00      0.00
   14    2   11      0.00      0.00
   16    2   11      0.00      0.00
   18    2   11      0.00      0.00
   20    2   11      0.00      0.00
   22    2   11      0.00      0.00
   24    2   11      0.00      0.00
   26    2   11      0.00      0.00
   28    2   11      0.00      0.00
   30    2   11      0.00      0.00
   32    2   11      0.00      0.00
   34    2   11      0.00      0.00
  -41    3   11      0.00      0.00
  -39    3   11      0.00      0.00
  -37    3   11      0.00      0.00
  -35    3   11      0.00      0.00
  -33    3   11      0.00      0.00
  -31    3   11      0.00      0.00
  -29    3   11      0.00      0.00
  -27    3   11      0.00      0.00
  -25    3   11      0.00      0.00
  -23    3   11      0.00      0.00
  -21    3   11      0.00      0.00
  -19    3   11      0.00      0.00
  -17    3   11      0.00      0.00
  -15    3   11      0.00      0.00
  -13    3   11      0.00      0.00
  -11    3   11      0.00      0.00
   -9    3   11      0.00      0.00
   -7    3   11      0.00      0.00
   -5    3   11      0.00      0.00
   -3    3   11      0.00      0.00
   -1    3   11      0.00      0.00
    1    3   11      0.00      0.00
    3    3   11      0.00      0.00
    5    3   11      0.00      0.00
    7    3   11      0.00      0.00
    9    3   11      0.00      0.00
   11    3   11      0.00      0.00
   13    3   11      0.00      0.00
   15    3   11      0.00      0.00
   17    3   11      0.00      0.00
   19    3   11      0.00      0.00
   21    3   11      0.00      0.00
   23    3   11      0.00      0.00
   25    3   11      0.00      0.00
   27    3   11      0.00      0.00
   29    3   11      0.00      0.00
   31    3   11      0.00      0.00
   33    3   11      0.00      0.00
  -42    4   11      0.00      0.00
  -40    4   11      0.00      0.00
  -38    4   11      0.00      0.00
  -36    4   11      0.00      0.00
  -34    4   11      0.00      0.00
  -32    4   11      0.00      0.00
  -30    4   11      0.00      0.00
  -28    4   11      0.00      0.00
  -26    4   11      0.00      0.00
  -24    4   11      0.00      0.00
  -22    4   11      0.00      0.00
  -20    4   11      0.00      0.00
  -18    4   11      0.00      0.00
  -16    4   11      0.00      0.00
  -14    4   11      0.00      0.00
  -12    4   11      0.00      0.00
  -10    4   11      0.00      0.00
   -8    4   11      0.00      0.00
   -6    4   11      0.00      0.00
   -4    4   11      0.00      0.00
   -2    4   11      0.00      0.00
    0    4   11      0.00      0.00
    2    4   11      0.00      0.00
    4    4   11      0.00      0.00
    6    4   11      0.00      0.00
    8    4   11      0.00      0.00
   10    4   11      0.00      0.00
   12    4   11      0.00      0.00
   14    4   11      0.00      0.00
   16    4   11      0.00      0.00
   18    4   11      0.00      0.00
   20    4   11      0.00      0.00
   22    4   11      0.00      0.00
   24    4   11      0.00      0.00
   26    4   11      0.00      0.00
   28    4   11      0.00      0.00
   30    4   11      0.00      0.00
   32    4   11      0.00      0.00
  -41    5   11      0.00      0.00
  -39    5   11      0.00      0.00
  -37    5   11      0.00      0.00
  -35    5   11      0.00      0.00
  -33    5   11      0.00      0.00
  -31    5   11      0.00      0.00
  -29    5   11      0.00      0.00
  -27    5   11      0.00      0.00
  -25    5   11      0.00      0.00
  -23    5   11      0.00      0.00
  -21    5   11      0.00      0.00
  -19    5   11      0.00      0.00
  -17    5   11      0.00      0.00
  -15    5   11      0.00      0.00
  -13    5   11      0.00      0.00
  -11    5   11      0.00      0.00
   -9    5   11      0.00      0.00
   -7    5   11      0.00      0.00
   -5    5   11      0.00      0.00
   -3    5   11      0.00      0.00
   -1    5   11      0.00      0.00
    1    5   11      0.00      0.00
    3    5   11      0.00      0.00
    5    5   11      0.00      0.00
    7    5   11      0.00      0.00
    9    5   11      0.00      0.00
   11    5   11      0.00      0.00
   13    5   11      0.00      0.00
   15    5   11      0.00      0.00
   17    5   11      0.00      0.00
   19    5   11      0.00      0.00
   21    5   11      0.00      0.00
   23    5   11      0.00      0.00
   25    5   11      0.00      0.00
   27    5   11      0.00      0.00
   29    5   11      0.00      0.00
   31    5   11      0.00      0.00
  -40    6   11      0.00      0.00
  -38    6   11      0.00      0.00
  -36    6   11      0.00      0.00
  -34    6   11      0.00      0.00
  -32    6   11      0.00      0.00
  -30    6   11      0.00      0.00
  -28    6   11      0.00      0.00
  -26    6   11      0.00      0.00
  -24    6   11      0.00      0.00
  -22    6   11      0.00      0.00
  -20    6   11      0.00      0.00
  -18    6   11      0.00      0.00
  -16    6   11      0.00      0.00
  -14    6   11      0.00      0.00
  -12    6   11      0.00      0.00
  -10    6   11      0.00      0.00
   -8    6   11      0.00      0.00
   -6    6   11      0.00      0.00
   -4    6   11      0.00      0.00
   -2    6   11      0.00      0.00
    0    6   11      0.00      0.00
    2    6   11      0.00      0.00
    4    6   11      0.00      0.00
    6    6   11      0.00      0.00
    8    6   11      0.00      0.00
   10    6   11      0.00      0.00
   12    6   11      0.00      0.00
   14    6   11      0.00      0.00
   16    6   11      0.00      0.00
   18    6   11      0.00      0.00
   20    6   11      0.00      0.00
   22    6   11      0.00      0.00
   24    6   11      0.00      0.00
   26    6   11      0.00      0.00
   28    6   11      0.00      0.00
   30    6   11      0.00      0.00
  -39    7   11      0.00      0.00
  -37    7   11      0.00      0.00
  -35    7   11      0.00      0.00
  -33    7   11      0.00      0.00
  -31    7   11      0.00      0.00
  -29    7   11      0.00      0.00
  -27    7   11      0.00      0.00
  -25    7   11      0.00      0.00
  -23    7   11      0.00      0.00
  -21    7   11      0.00      0.00
  -19    7   11      0.00      0.00
  -17    7   11      0.00      0.00
  -15    7   11      0.00      0.00
  -13    7   11      0.00      0.00
  -11    7   11      0.00      0.00
   -9    7   11      0.00      0.00
   -7    7   11      0.00      0.00
   -5    7   11      0.00      0.00
   -3    7   11      0.00      0.00
   -1    7   11      0.00      0.00
    1    7   11      0.00      0.00
    3    7   11      0.00      0.00
    5    7   11      0.00      0.00
    7    7   11      0.00      0.00
    9    7   11      0.00      0.00
   11    7   11      0.00      0.00
   13    7   11      0.00      0.00
   15    7   11      0.00      0.00
   17    7   11      0.00      0.00
   19    7   11      0.00      0.00
   21    7   11      0.00      0.00
   23    7   11      0.00      0.00
   25    7   11      0.00      0.00
   27    7   11      0.00      0.00
   29    7   11      0.00      0.00
  -38    8   11      0.00      0.00
  -36    8   11      0.00      0.00
  -34    8   11      0.00      0.00
  -32    8   11      0.00      0.00
  -30    8   11      0.00      0.00
  -28    8   11      0.00      0.00
  -26    8   11      0.00      0.00
  -24    8   11      0.00      0.00
  -22    8   11      0.00      0.00
  -20    8   11      0.00      0.00
  -18    8   11      0.00      0.00
  -16    8   11      0.00      0.00
  -14    8   11      0.00      0.00
  -12    8   11      0.00      0.00
  -10    8   11      0.00      0.00
   -8    8   11      0.00      0.00
   -6    8   11      0.00      0.00
   -4    8   11      0.00      0.00
   -2    8   11      0.00      0.00
    0    8   11      0.00      0.00
    2    8   11      0.00      0.00
    4    8   11      0.00      0.00
    6    8   11      0.00      0.00
    8    8   11      0.00      0.00
   10    8   11      0.00      0.00
   12    8   11      0.00      0.00
   14    8   11      0.00      0.00
   16    8   11      0.00      0.00
   18    8   11      0.00      0.00
   20    8   11      0.00      0.00
   22    8   11      0.00      0.00
   24    8   11      0.00      0.00
   26    8   11      0.00      0.00
   28    8   11      0.00      0.00
  -35    9   11      0.00      0.00
  -33    9   11      0.00      0.00
  -31    9   11      0.00      0.00
  -29    9   11      0.00      0.00
  -27    9   11      0.00      0.00
  -25    9   11      0.00      0.00
  -23    9   11      0.00      0.00
  -21    9   11      0.00      0.00
  -19    9   11      0.00      0.00
  -17    9   11      0.00      0.00
  -15    9   11      0.00      0.00
  -13    9   11      0.00      0.00
  -11    9   11      0.00      0.00
   -9    9   11      0.00      0.00
   -7    9   11      0.00      0.00
   -5    9   11      0.00      0.00
   -3    9   11      0.00      0.00
   -1    9   11      0.00      0.00
    1    9   11      0.00      0.00
    3    9   11      0.00      0.00
    5    9   11      0.00      0.00
    7    9   11      0.00      0.00
    9    9   11      0.00      0.00
   11    9   11      0.00      0.00
   13    9   11      0.00      0.00
   15    9   11      0.00      0.00
   17    9   11      0.00      0.00
   19    9   11      0.00      0.00
   21    9   11      0.00      0.00
   23    9   11      0.00      0.00
   25    9   11      0.00      0.00
   27    9   11      0.00      0.00
  -34   10   11      0.00      0.00
  -32   10   11      0.00      0.00
  -30   10   11      0.00      0.00
  -28   10   11      0.00      0.00
  -26   10   11      0.00      0.00
  -24   10   11      0.00      0.00
  -22   10   11      0.00      0.00
  -20   10   11      0.00      0.00
  -18   10   11      0.00      0.00
  -16   10   11      0.00      0.00
  -14   10   11      0.00      0.00
  -12   10   11      0.00      0.00
  -10   10   11      0.00      0.00
   -8   10   11      0.00      0.00
   -6   10   11      0.00      0.00
   -4   10   11      0.00      0.00
   -2   10   11      0.00      0.00
    0   10   11      0.00      0.00
    2   10   11      0.00      0.00
    4   10   11      0.00      0.00
    6   10   11      0.00      0.00
    8   10   11      0.00      0.00
   10   10   11      0.00      0.00
   12   10   11      0.00      0.00
   14   10   11      0.00      0.00
   16   10   11      0.00      0.00
   18   10   11      0.00      0.00
   20   10   11      0.00      0.00
   22   10   11      0.00      0.00
   24   10   11      0.00      0.00
   26   10   11      0.00      0.00
  -33   11   11      0.00      0.00
  -31   11   11      0.00      0.00
  -29   11   11      0.00      0.00
  -27   11   11      0.00      0.00
  -25   11   11      0.00      0.00
  -23   11   11      0.00      0.00
  -21   11   11      0.00      0.00
  -19   11   11      0.00      0.00
  -17   11   11      0.00      0.00
  -15   11   11      0.00      0.00
  -13   11   11      0.00      0.00
  -11   11   11      0.00      0.00
   -9   11   11      0.00      0.00
   -7   11   11      0.00      0.00
   -5   11   11      0.00      0.00
   -3   11   11      0.00      0.00
   -1   11   11      0.00      0.00
    1   11   11      0.00      0.00
    3   11   11      0.00      0.00
    5   11   11      0.00      0.00
    7   11   11      0.00      0.00
    9   11   11      0.00      0.00
   11   11   11      0.00      0.00
   13   11   11      0.00      0.00
   15   11   11      0.00      0.00
   17   11   11      0.00      0.00
   19   11   11      0.00      0.00
   21   11   11      0.00      0.00
   23   11   11      0.00      0.00
  -30   12   11      0.00      0.00
  -28   12   11      0.00      0.00
  -26   12   11      0.00      0.00
  -24   12   11      0.00      0.00
  -22   12   11      0.00      0.00
  -20   12   11      0.00      0.00
  -18   12   11      0.00      0.00
  -16   12   11      0.00      0.00
  -14   12   11      0.00      0.00
  -12   12   11      0.00      0.00
  -10   12   11      0.00      0.00
   -8   12   11      0.00      0.00
   -6   12   11      0.00      0.00
   -4   12   11      0.00      0.00
   -2   12   11      0.00      0.00
    0   12   11      0.00      0.00
    2   12   11      0.00      0.00
    4   12   11      0.00      0.00
    6   12   11      0.00      0.00
    8   12   11      0.00      0.00
   10   12   11      0.00      0.00
   12   12   11      0.00      0.00
   14   12   11      0.00      0.00
   16   12   11      0.00      0.00
   18   12   11      0.00      0.00
   20   12   11      0.00      0.00
  -27   13   11      0.00      0.00
  -25   13   11      0.00      0.00
  -23   13   11      0.00      0.00
  -21   13   11      0.00      0.00
  -19   13   11      0.00      0.00
  -17   13   11      0.00      0.00
  -15   13   11      0.00      0.00
  -13   13   11      0.00      0.00
  -11   13   11      0.00      0.00
   -9   13   11      0.00      0.00
   -7   13   11      0.00      0.00
   -5   13   11      0.00      0.00
   -3   13   11      0.00      0.00
   -1   13   11      0.00      0.00
    1   13   11      0.00      0.00
    3   13   11      0.00      0.00
    5   13   11      0.00      0.00
    7   13   11      0.00      0.00
    9   13   11      0.00      0.00
   11   13   11      0.00      0.00
   13   13   11      0.00      0.00
   15   13   11      0.00      0.00
   17   13   11      0.00      0.00
   19   13   11      0.00      0.00
  -24   14   11      0.00      0.00
  -22   14   11      0.00      0.00
  -20   14   11      0.00      0.00
  -18   14   11      0.00      0.00
  -16   14   11      0.00      0.00
  -14   14   11      0.00      0.00
  -12   14   11      0.00      0.00
  -10   14   11      0.00      0.00
   -8   14   11      0.00      0.00
   -6   14   11      0.00      0.00
   -4   14   11      0.00      0.00
   -2   14   11      0.00      0.00
    0   14   11      0.00      0.00
    2   14   11      0.00      0.00
    4   14   11      0.00      0.00
    6   14   11      0.00      0.00
    8   14   11      0.00      0.00
   10   14   11      0.00      0.00
   12   14   11      0.00      0.00
   14   14   11      0.00      0.00
  -19   15   11      0.00      0.00
  -17   15   11      0.00      0.00
  -15   15   11      0.00      0.00
  -13   15   11      0.00      0.00
  -11   15   11      0.00      0.00
   -9   15   11      0.00      0.00
   -7   15   11      0.00      0.00
   -5   15   11      0.00      0.00
   -3   15   11      0.00      0.00
   -1   15   11      0.00      0.00
    1   15   11      0.00      0.00
    3   15   11      0.00      0.00
    5   15   11      0.00      0.00
    7   15   11      0.00      0.00
    9   15   11      0.00      0.00
   11   15   11      0.00      0.00
  -12   16   11      0.00      0.00
  -10   16   11      0.00      0.00
   -8   16   11      0.00      0.00
   -6   16   11      0.00      0.00
   -4   16   11      0.00      0.00
   -2   16   11      0.00      0.00
    0   16   11      0.00      0.00
    2   16   11      0.00      0.00
  -42    0   12      0.00      0.00
  -40    0   12      0.00      0.00
  -38    0   12      0.00      0.00
  -36    0   12      0.00      0.00
  -34    0   12      0.00      0.00
  -32    0   12      0.00      0.00
  -30    0   12      0.00      0.00
  -28    0   12      0.00      0.00
  -26    0   12      0.00      0.00
  -24    0   12      0.00      0.00
  -22    0   12      0.00      0.00
  -20    0   12      0.00      0.00
  -18    0   12      0.00      0.00
  -16    0   12      0.00      0.00
  -14    0   12      0.00      0.00
  -12    0   12      0.00      0.00
  -10    0   12      0.00      0.00
   -8    0   12      0.00      0.00
   -6    0   12      0.00      0.00
   -4    0   12      0.00      0.00
   -2    0   12      0.00      0.00
    0    0   12      0.00      0.00
    2    0   12      0.00      0.00
    4    0   12      0.00      0.00
    6    0   12      0.00      0.00
    8    0   12      0.00      0.00
   10    0   12      0.00      0.00
   12    0   12      0.00      0.00
   14    0   12      0.00      0.00
   16    0   12      0.00      0.00
   18    0   12      0.00      0.00
   20    0   12      0.00      0.00
   22    0   12      0.00      0.00
   24    0   12      0.00      0.00
   26    0   12      0.00      0.00
   28    0   12      0.00      0.00
   30    0   12      0.00      0.00
   32    0   12      0.00      0.00
  -41    1   12      0.00      0.00
  -39    1   12      0.00      0.00
  -37    1   12      0.00      0.00
  -35    1   12      0.00      0.00
  -33    1   12      0.00      0.00
  -31    1   12      0.00      0.00
  -29    1   12      0.00      0.00
  -27    1   12      0.00      0.00
  -25    1   12      0.00      0.00
  -23    1   12      0.00      0.00
  -21    1   12      0.00      0.00
  -19    1   12      0.00      0.00
  -17    1   12      0.00      0.00
  -15    1   12      0.00      0.00
  -13    1   12      0.00      0.00
  -11    1   12      0.00      0.00
   -9    1   12      0.00      0.00
   -7    1   12      0.00      0.00
   -5    1   12      0.00      0.00
   -3    1   12      0.00      0.00
   -1    1   12      0.00      0.00
    1    1   12      0.00      0.00
    3    1   12      0.00      0.00
    5    1   12      0.00      0.00
    7    1   12      0.00      0.00
    9    1   12      0.00      0.00
   11    1   12      0.00      0.00
   13    1   12      0.00      0.00
   15    1   12      0.00      0.00
   17    1   12      0.00      0.00
   19    1   12      0.00      0.00
   21    1   12      0.00      0.00
   23    1   12      0.00      0.00
   25    1   12      0.00      0.00
   27    1   12      0.00      0.00
   29    1   12      0.00      0.00
   31    1   12      0.00      0.00
  -42    2   12      0.00      0.00
  -40    2   12      0.00      0.00
  -38    2   12      0.00      0.00
  -36    2   12      0.00      0.00
  -34    2   12      0.00      0.00
  -32    2   12      0.00      0.00
  -30    2   12      0.00      0.00
  -28    2   12      0.00      0.00
  -26    2   12      0.00      0.00
  -24    2   12      0.00      0.00
  -22    2   12      0.00      0.00
  -20    2   12      0.00      0.00
  -18    2   12      0.00      0.00
  -16    2   12      0.00      0.00
  -14    2   12      0.00      0.00
  -12    2   12      0.00      0.00
  -10    2   12      0.00      0.00
   -8    2   12      0.00      0.00
   -6    2   12      0.00      0.00
   -4    2   12      0.00      0.00
   -2    2   12      0.00      0.00
    0    2   12      0.00      0.00
    2    2   12      0.00      0.00
    4    2   12      0.00      0.00
    6    2   12      0.00      0.00
    8    2   12      0.00      0.00
   10    2   12      0.00      0.00
   12    2   12      0.00      0.00
   14    2   12      0.00      0.00
   16    2   12      0.00      0.00
   18    2   12      0.00      0.00
   20    2   12      0.00      0.00
   22    2   12      0.00      0.00
   24    2   12      0.00      0.00
   26    2   12      0.00      0.00
   28    2   12      0.00      0.00
   30    2   12      0.00      0.00
   32    2   12      0.00      0.00
  -41    3   12      0.00      0.00
  -39    3   12      0.00      0.00
  -37    3   12      0.00      0.00
  -35    3   12      0.00      0.00
  -33    3   12      0.00      0.00
  -31    3   12      0.00      0.00
  -29    3   12      0.00      0.00
  -27    3   12      0.00      0.00
  -25    3   12      0.00      0.00
  -23    3   12      0.00      0.00
  -21    3   12      0.00      0.00
  -19    3   12      0.00      0.00
  -17    3   12      0.00      0.00
  -15    3   12      0.00      0.00
  -13    3   12      0.00      0.00
  -11    3   12      0.00      0.00
   -9    3   12      0.00      0.00
   -7    3   12      0.00      0.00
   -5    3   12      0.00      0.00
   -3    3   12      0.00      0.00
   -1    3   12      0.00      0.00
    1    3   12      0.00      0.00
    3    3   12      0.00      0.00
    5    3   12      0.00      0.00
    7    3   12      0.00      0.00
    9    3   12      0.00      0.00
   11    3   12      0.00      0.00
   13    3   12      0.00      0.00
   15    3   12      0.00      0.00
   17    3   12      0.00      0.00
   19    3   12      0.00      0.00
   21    3   12      0.00      0.00
   23    3   12      0.00      0.00
   25    3   12      0.00      0.00
   27    3   12      0.00      0.00
   29    3   12      0.00      0.00
   31    3   12      0.00      0.00
  -40    4   12      0.00      0.00
  -38    4   12      0.00      0.00
  -36    4   12      0.00      0.00
  -34    4   12      0.00      0.00
  -32    4   12      0.00      0.00
  -30    4   12      0.00      0.00
  -28    4   12      0.00      0.00
  -26    4   12      0.00      0.00
  -24    4   12      0.00      0.00
  -22    4   12      0.00      0.00
  -20    4   12      0.00      0.00
  -18    4   12      0.00      0.00
  -16    4   12      0.00      0.00
  -14    4   12      0.00      0.00
  -12    4   12      0.00      0.00
  -10    4   12      0.00      0.00
   -8    4   12      0.00      0.00
   -6    4   12      0.00      0.00
   -4    4   12      0.00      0.00
   -2    4   12      0.00      0.00
    0    4   12      0.00      0.00
    2    4   12      0.00      0.00
    4    4   12      0.00      0.00
    6    4   12      0.00      0.00
    8    4   12      0.00      0.00
   10    4   12      0.00      0.00
   12    4   12      0.00      0.00
   14    4   12      0.00      0.00
   16    4   12      0.00      0.00
   18    4   12      0.00      0.00
   20    4   12      0.00      0.00
   22    4   12      0.00      0.00
   24    4   12      0.00      0.00
   26    4   12      0.00      0.00
   28    4   12      0.00      0.00
   30    4   12      0.00      0.00
  -39    5   12      0.00      0.00
  -37    5   12      0.00      0.00
  -35    5   12      0.00      0.00
  -33    5   12      0.00      0.00
  -31    5   12      0.00      0.00
  -29    5   12      0.00      0.00
  -27    5   12      0.00      0.00
  -25    5   12      0.00      0.00
  -23    5   12      0.00      0.00
  -21    5   12      0.00      0.00
  -19    5   12      0.00      0.00
  -17    5   12      0.00      0.00
  -15    5   12      0.00      0.00
  -13    5   12      0.00      0.00
  -11    5   12      0.00      0.00
   -9    5   12      0.00      0.00
   -7    5   12      0.00      0.00
   -5    5   12      0.00      0.00
   -3    5   12      0.00      0.00
   -1    5   12      0.00      0.00
    1    5   12      0.00      0.00
    3    5   12      0.00      0.00
    5    5   12      0.00      0.00
    7    5   12      0.00      0.00
    9    5   12      0.00      0.00
   11    5   12      0.00      0.00
   13    5   12      0.00      0.00
   15    5   12      0.00      0.00
   17    5   12      0.00      0.00
   19    5   12      0.00      0.00
   21    5   12      0.00      0.00
   23    5   12      0.00      0.00
   25    5   12      0.00      0.00
   27    5   12      0.00      0.00
   29    5   12      0.00      0.00
  -38    6   12      0.00      0.00
  -36    6   12      0.00      0.00
  -34    6   12      0.00      0.00
  -32    6   12      0.00      0.00
  -30    6   12      0.00      0.00
  -28    6   12      0.00      0.00
  -26    6   12      0.00      0.00
  -24    6   12      0.00      0.00
  -22    6   12      0.00      0.00
  -20    6   12      0.00      0.00
  -18    6   12      0.00      0.00
  -16    6   12      0.00      0.00
  -14    6   12      0.00      0.00
  -12    6   12      0.00      0.00
  -10    6   12      0.00      0.00
   -8    6   12      0.00      0.00
   -6    6   12      0.00      0.00
   -4    6   12      0.00      0.00
   -2    6   12      0.00      0.00
    0    6   12      0.00      0.00
    2    6   12      0.00      0.00
    4    6   12      0.00      0.00
    6    6   12      0.00      0.00
    8    6   12      0.00      0.00
   10    6   12      0.00      0.00
   12    6   12      0.00      0.00
   14    6   12      0.00      0.00
   16    6   12      0.00      0.00
   18    6   12      0.00      0.00
   20    6   12      0.00      0.00
   22    6   12      0.00      0.00
   24    6   12      0.00      0.00
   26    6   12      0.00      0.00
   28    6   12      0.00      0.00
  -37    7   12      0.00      0.00
  -35    7   12      0.00      0.00
  -33    7   12      0.00      0.00
  -31    7   12      0.00      0.00
  -29    7   12      0.00      0.00
  -27    7   12      0.00      0.00
  -25    7   12      0.00      0.00
  -23    7   12      0.00      0.00
  -21    7   12      0.00      0.00
  -19    7   12      0.00      0.00
  -17    7   12      0.00      0.00
  -15    7   12      0.00      0.00
  -13    7   12      0.00      0.00
  -11    7   12      0.00      0.00
   -9    7   12      0.00      0.00
   -7    7   12      0.00      0.00
   -5    7   12      0.00      0.00
   -3    7   12      0.00      0.00
   -1    7   12      0.00      0.00
    1    7   12      0.00      0.00
    3    7   12      0.00      0.00
    5    7   12      0.00      0.00
    7    7   12      0.00      0.00
    9    7   12      0.00      0.00
   11    7   12      0.00      0.00
   13    7   12      0.00      0.00
   15    7   12      0.00      0.00
   17    7   12      0.00      0.00
   19    7   12      0.00      0.00
   21    7   12      0.00      0.00
   23    7   12      0.00      0.00
   25    7   12      0.00      0.00
   27    7   12      0.00      0.00
  -36    8   12      0.00      0.00
  -34    8   12      0.00      0.00
  -32    8   12      0.00      0.00
  -30    8   12      0.00      0.00
  -28    8   12      0.00      0.00
  -26    8   12      0.00      0.00
  -24    8   12      0.00      0.00
  -22    8   12      0.00      0.00
  -20    8   12      0.00      0.00
  -18    8   12      0.00      0.00
  -16    8   12      0.00      0.00
  -14    8   12      0.00      0.00
  -12    8   12      0.00      0.00
  -10    8   12      0.00      0.00
   -8    8   12      0.00      0.00
   -6    8   12      0.00      0.00
   -4    8   12      0.00      0.00
   -2    8   12      0.00      0.00
    0    8   12      0.00      0.00
    2    8   12      0.00      0.00
    4    8   12      0.00      0.00
    6    8   12      0.00      0.00
    8    8   12      0.00      0.00
   10    8   12      0.00      0.00
   12    8   12      0.00      0.00
   14    8   12      0.00      0.00
   16    8   12      0.00      0.00
   18    8   12      0.00      0.00
   20    8   12      0.00      0.00
   22    8   12      0.00      0.00
   24    8   12      0.00      0.00
   26    8   12      0.00      0.00
  -35    9   12      0.00      0.00
  -33    9   12      0.00      0.00
  -31    9   12      0.00      0.00
  -29    9   12      0.00      0.00
  -27    9   12      0.00      0.00
  -25    9   12      0.00      0.00
  -23    9   12      0.00      0.00
  -21    9   12      0.00      0.00
  -19    9   12      0.00      0.00
  -17    9   12      0.00      0.00
  -15    9   12      0.00      0.00
  -13    9   12      0.00      0.00
  -11    9   12      0.00      0.00
   -9    9   12      0.00      0.00
   -7    9   12      0.00      0.00
   -5    9   12      0.00      0.00
   -3    9   12      0.00      0.00
   -1    9   12      0.00      0.00
    1    9   12      0.00      0.00
    3    9   12      0.00      0.00
    5    9   12      0.00      0.00
    7    9   12      0.00      0.00
    9    9   12      0.00      0.00
   11    9   12      0.00      0.00
   13    9   12      0.00      0.00
   15    9   12      0.00      0.00
   17    9   12      0.00      0.00
   19    9   12      0.00      0.00
   21    9   12      0.00      0.00
   23    9   12      0.00      0.00
   25    9   12      0.00      0.00
  -32   10   12      0.00      0.00
  -30   10   12      0.00      0.00
  -28   10   12      0.00      0.00
  -26   10   12      0.00      0.00
  -24   10   12      0.00      0.00
  -22   10   12      0.00      0.00
  -20   10   12      0.00      0.00
  -18   10   12      0.00      0.00
  -16   10   12      0.00      0.00
  -14   10   12      0.00      0.00
  -12   10   12      0.00      0.00
  -10   10   12      0.00      0.00
   -8   10   12      0.00      0.00
   -6   10   12      0.00      0.00
   -4   10   12      0.00      0.00
   -2   10   12      0.00      0.00
    0   10   12      0.00      0.00
    2   10   12      0.00      0.00
    4   10   12      0.00      0.00
    6   10   12      0.00      0.00
    8   10   12      0.00      0.00
   10   10   12      0.00      0.00
   12   10   12      0.00      0.00
   14   10   12      0.00      0.00
   16   10   12      0.00      0.00
   18   10   12      0.00      0.00
   20   10   12      0.00      0.00
   22   10   12      0.00      0.00
   24   10   12      0.00      0.00
  -31   11   12      0.00      0.00
  -29   11   12      0.00      0.00
  -27   11   12      0.00      0.00
  -25   11   12      0.00      0.00
  -23   11   12      0.00      0.00
  -21   11   12      0.00      0.00
  -19   11   12      0.00      0.00
  -17   11   12      0.00      0.00
  -15   11   12      0.00      0.00
  -13   11   12      0.00      0.00
  -11   11   12      0.00      0.00
   -9   11   12      0.00      0.00
   -7   11   12      0.00      0.00
   -5   11   12      0.00      0.00
   -3   11   12      0.00      0.00
   -1   11   12      0.00      0.00
    1   11   12      0.00      0.00
    3   11   12      0.00      0.00
    5   11   12      0.00      0.00
    7   11   12      0.00      0.00
    9   11   12      0.00      0.00
   11   11   12      0.00      0.00
   13   11   12      0.00      0.00
   15   11   12      0.00      0.00
   17   11   12      0.00      0.00
   19   11   12      0.00      0.00
   21   11   12      0.00      0.00
  -28   12   12      0.00      0.00
  -26   12   12      0.00      0.00
  -24   12   12      0.00      0.00
  -22   12   12      0.00      0.00
  -20   12   12      0.00      0.00
  -18   12   12      0.00      0.00
  -16   12   12      0.00      0.00
  -14   12   12      0.00      0.00
  -12   12   12      0.00      0.00
  -10   12   12      0.00      0.00
   -8   12   12      0.00      0.00
   -6   12   12      0.00      0.00
   -4   12   12      0.00      0.00
   -2   12   12      0.00      0.00
    0   12   12      0.00      0.00
    2   12   12      0.00      0.00
    4   12   12      0.00      0.00
    6   12   12      0.00      0.00
    8   12   12      0.00      0.00
   10   12   12      0.00      0.00
   12   12   12      0.00      0.00
   14   12   12      0.00      0.00
   16   12   12      0.00      0.00
   18   12   12      0.00      0.00
  -25   13   12      0.00      0.00
  -23   13   12      0.00      0.00
  -21   13   12      0.00      0.00
  -19   13   12      0.00      0.00
  -17   13   12      0.00      0.00
  -15   13   12      0.00      0.00
  -13   13   12      0.00      0.00
  -11   13   12      0.00      0.00
   -9   13   12      0.00      0.00
   -7   13   12      0.00      0.00
   -5   13   12      0.00      0.00
   -3   13   12      0.00      0.00
   -1   13   12      0.00      0.00
    1   13   12      0.00      0.00
    3   13   12      0.00      0.00
    5   13   12      0.00      0.00
    7   13   12      0.00      0.00
    9   13   12      0.00      0.00
   11   13   12      0.00      0.00
   13   13   12      0.00      0.00
   15   13   12      0.00      0.00
  -22   14   12      0.00      0.00
  -20   14   12      0.00      0.00
  -18   14   12      0.00      0.00
  -16   14   12      0.00      0.00
  -14   14   12      0.00      0.00
  -12   14   12      0.00      0.00
  -10   14   12      0.00      0.00
   -8   14   12      0.00      0.00
   -6   14   12      0.00      0.00
   -4   14   12      0.00      0.00
   -2   14   12      0.00      0.00
    0   14   12      0.00      0.00
    2   14   12      0.00      0.00
    4   14   12      0.00      0.00
    6   14   12      0.00      0.00
    8   14   12      0.00      0.00
   10   14   12      0.00      0.00
   12   14   12      0.00      0.00
  -15   15   12      0.00      0.00
  -13   15   12      0.00      0.00
  -11   15   12      0.00      0.00
   -9   15   12      0.00      0.00
   -7   15   12      0.00      0.00
   -5   15   12      0.00      0.00
   -3   15   12      0.00      0.00
   -1   15   12      0.00      0.00
    1   15   12      0.00      0.00
    3   15   12      0.00      0.00
    5   15   12      0.00      0.00
  -41    1   13      0.00      0.00
  -39    1   13      0.00      0.00
  -37    1   13      0.00      0.00
  -35    1   13      0.00      0.00
  -33    1   13      0.00      0.00
  -31    1   13      0.00      0.00
  -29    1   13      0.00      0.00
  -27    1   13      0.00      0.00
  -25    1   13      0.00      0.00
  -23    1   13      0.00      0.00
  -21    1   13      0.00      0.00
  -19    1   13      0.00      0.00
  -17    1   13      0.00      0.00
  -15    1   13      0.00      0.00
  -13    1   13      0.00      0.00
  -11    1   13      0.00      0.00
   -9    1   13      0.00      0.00
   -7    1   13      0.00      0.00
   -5    1   13      0.00      0.00
   -3    1   13      0.00      0.00
   -1    1   13      0.00      0.00
    1    1   13      0.00      0.00
    3    1   13      0.00      0.00
    5    1   13      0.00      0.00
    7    1   13      0.00      0.00
    9    1   13      0.00      0.00
   11    1   13      0.00      0.00
   13    1   13      0.00      0.00
   15    1   13      0.00      0.00
   17    1   13      0.00      0.00
   19    1   13      0.00      0.00
   21    1   13      0.00      0.00
   23    1   13      0.00      0.00
   25    1   13      0.00      0.00
   27    1   13      0.00      0.00
   29    1   13      0.00      0.00
  -40    2   13      0.00      0.00
  -38    2   13      0.00      0.00
  -36    2   13      0.00      0.00
  -34    2   13      0.00      0.00
  -32    2   13      0.00      0.00
  -30    2   13      0.00      0.00
  -28    2   13      0.00      0.00
  -26    2   13      0.00      0.00
  -24    2   13      0.00      0.00
  -22    2   13      0.00      0.00
  -20    2   13      0.00      0.00
  -18    2   13      0.00      0.00
  -16    2   13      0.00      0.00
  -14    2   13      0.00      0.00
  -12    2   13      0.00      0.00
  -10    2   13      0.00      0.00
   -8    2   13      0.00      0.00
   -6    2   13      0.00      0.00
   -4    2   13      0.00      0.00
   -2    2   13      0.00      0.00
    0    2   13      0.00      0.00
    2    2   13      0.00      0.00
    4    2   13      0.00      0.00
    6    2   13      0.00      0.00
    8    2   13      0.00      0.00
   10    2   13      0.00      0.00
   12    2   13      0.00      0.00
   14    2   13      0.00      0.00
   16    2   13      0.00      0.00
   18    2   13      0.00      0.00
   20    2   13      0.00      0.00
   22    2   13      0.00      0.00
   24    2   13      0.00      0.00
   26    2   13      0.00      0.00
   28    2   13      0.00      0.00
   30    2   13      0.00      0.00
  -39    3   13      0.00      0.00
  -37    3   13      0.00      0.00
  -35    3   13      0.00      0.00
  -33    3   13      0.00      0.00
  -31    3   13      0.00      0.00
  -29    3   13      0.00      0.00
  -27    3   13      0.00      0.00
  -25    3   13      0.00      0.00
  -23    3   13      0.00      0.00
  -21    3   13      0.00      0.00
  -19    3   13      0.00      0.00
  -17    3   13      0.00      0.00
  -15    3   13      0.00      0.00
  -13    3   13      0.00      0.00
  -11    3   13      0.00      0.00
   -9    3   13      0.00      0.00
   -7    3   13      0.00      0.00
   -5    3   13      0.00      0.00
   -3    3   13      0.00      0.00
   -1    3   13      0.00      0.00
    1    3   13      0.00      0.00
    3    3   13      0.00      0.00
    5    3   13      0.00      0.00
    7    3   13      0.00      0.00
    9    3   13      0.00      0.00
   11    3   13      0.00      0.00
   13    3   13      0.00      0.00
   15    3   13      0.00      0.00
   17    3   13      0.00      0.00
   19    3   13      0.00      0.00
   21    3   13      0.00      0.00
   23    3   13      0.00      0.00
   25    3   13      0.00      0.00
   27    3   13      0.00      0.00
   29    3   13      0.00      0.00
  -40    4   13      0.00      0.00
  -38    4   13      0.00      0.00
  -36    4   13      0.00      0.00
  -34    4   13      0.00      0.00
  -32    4   13      0.00      0.00
  -30    4   13      0.00      0.00
  -28    4   13      0.00      0.00
  -26    4   13      0.00      0.00
  -24    4   13      0.00      0.00
  -22    4   13      0.00      0.00
  -20    4   13      0.00      0.00
  -18    4   13      0.00      0.00
  -16    4   13      0.00      0.00
  -14    4   13      0.00      0.00
  -12    4   13      0.00      0.00
  -10    4   13      0.00      0.00
   -8    4   13      0.00      0.00
   -6    4   13      0.00      0.00
   -4    4   13      0.00      0.00
   -2    4   13      0.00      0.00
    0    4   13      0.00      0.00
    2    4   13      0.00      0.00
    4    4   13      0.00      0.00
    6    4   13      0.00      0.00
    8    4   13      0.00      0.00
   10    4   13      0.00      0.00
   12    4   13      0.00      0.00
   14    4   13      0.00      0.00
   16    4   13      0.00      0.00
   18    4   13      0.00      0.00
   20    4   13      0.00      0.00
   22    4   13      0.00      0.00
   24    4   13      0.00      0.00
   26    4   13      0.00      0.00
   28    4   13      0.00      0.00
  -39    5   13      0.00      0.00
  -37    5   13      0.00      0.00
  -35    5   13      0.00      0.00
  -33    5   13      0.00      0.00
  -31    5   13      0.00      0.00
  -29    5   13      0.00      0.00
  -27    5   13      0.00      0.00
  -25    5   13      0.00      0.00
  -23    5   13      0.00      0.00
  -21    5   13      0.00      0.00
  -19    5   13      0.00      0.00
  -17    5   13      0.00      0.00
  -15    5   13      0.00      0.00
  -13    5   13      0.00      0.00
  -11    5   13      0.00      0.00
   -9    5   13      0.00      0.00
   -7    5   13      0.00      0.00
   -5    5   13      0.00      0.00
   -3    5   13      0.00      0.00
   -1    5   13      0.00      0.00
    1    5   13      0.00      0.00
    3    5   13      0.00      0.00
    5    5   13      0.00      0.00
    7    5   13      0.00      0.00
    9    5   13      0.00      0.00
   11    5   13      0.00      0.00
   13    5   13      0.00      0.00
   15    5   13      0.00      0.00
   17    5   13      0.00      0.00
   19    5   13      0.00      0.00
   21    5   13      0.00      0.00
   23    5   13      0.00      0.00
   25    5   13      0.00      0.00
   27    5   13      0.00      0.00
  -38    6   13      0.00      0.00
  -36    6   13      0.00      0.00
  -34    6   13      0.00      0.00
  -32    6   13      0.00      0.00
  -30    6   13      0.00      0.00
  -28    6   13      0.00      0.00
  -26    6   13      0.00      0.00
  -24    6   13      0.00      0.00
  -22    6   13      0.00      0.00
  -20    6   13      0.00      0.00
  -18    6   13      0.00      0.00
  -16    6   13      0.00      0.00
  -14    6   13      0.00      0.00
  -12    6   13      0.00      0.00
  -10    6   13      0.00      0.00
   -8    6   13      0.00      0.00
   -6    6   13      0.00      0.00
   -4    6   13      0.00      0.00
   -2    6   13      0.00      0.00
    0    6   13      0.00      0.00
    2    6   13      0.00      0.00
    4    6   13      0.00      0.00
    6    6   13      0.00      0.00
    8    6   13      0.00      0.00
   10    6   13      0.00      0.00
   12    6   13      0.00      0.00
   14    6   13      0.00      0.00
   16    6   13      0.00      0.00
   18    6   13      0.00      0.00
   20    6   13      0.00      0.00
   22    6   13      0.00      0.00
   24    6   13      0.00      0.00
   26    6   13      0.00      0.00
  -37    7   13      0.00      0.00
  -35    7   13      0.00      0.00
  -33    7   13      0.00      0.00
  -31    7   13      0.00      0.00
  -29    7   13      0.00      0.00
  -27    7   13      0.00      0.00
  -25    7   13      0.00      0.00
  -23    7   13      0.00      0.00
  -21    7   13      0.00      0.00
  -19    7   13      0.00      0.00
  -17    7   13      0.00      0.00
  -15    7   13      0.00      0.00
  -13    7   13      0.00      0.00
  -11    7   13      0.00      0.00
   -9    7   13      0.00      0.00
   -7    7   13      0.00      0.00
   -5    7   13      0.00      0.00
   -3    7   13      0.00      0.00
   -1    7   13      0.00      0.00
    1    7   13      0.00      0.00
    3    7   13      0.00      0.00
    5    7   13      0.00      0.00
    7    7   13      0.00      0.00
    9    7   13      0.00      0.00
   11    7   13      0.00      0.00
   13    7   13      0.00      0.00
   15    7   13      0.00      0.00
   17    7   13      0.00      0.00
   19    7   13      0.00      0.00
   21    7   13      0.00      0.00
   23    7   13      0.00      0.00
   25    7   13      0.00      0.00
  -34    8   13      0.00      0.00
  -32    8   13      0.00      0.00
  -30    8   13      0.00      0.00
  -28    8   13      0.00      0.00
  -26    8   13      0.00      0.00
  -24    8   13      0.00      0.00
  -22    8   13      0.00      0.00
  -20    8   13      0.00      0.00
  -18    8   13      0.00      0.00
  -16    8   13      0.00      0.00
  -14    8   13      0.00      0.00
  -12    8   13      0.00      0.00
  -10    8   13      0.00      0.00
   -8    8   13      0.00      0.00
   -6    8   13      0.00      0.00
   -4    8   13      0.00      0.00
   -2    8   13      0.00      0.00
    0    8   13      0.00      0.00
    2    8   13      0.00      0.00
    4    8   13      0.00      0.00
    6    8   13      0.00      0.00
    8    8   13      0.00      0.00
   10    8   13      0.00      0.00
   12    8   13      0.00      0.00
   14    8   13      0.00      0.00
   16    8   13      0.00      0.00
   18    8   13      0.00      0.00
   20    8   13      0.00      0.00
   22    8   13      0.00      0.00
   24    8   13      0.00      0.00
  -33    9   13      0.00      0.00
  -31    9   13      0.00      0.00
  -29    9   13      0.00      0.00
  -27    9   13      0.00      0.00
  -25    9   13      0.00      0.00
  -23    9   13      0.00      0.00
  -21    9   13      0.00      0.00
  -19    9   13      0.00      0.00
  -17    9   13      0.00      0.00
  -15    9   13      0.00      0.00
  -13    9   13      0.00      0.00
  -11    9   13      0.00      0.00
   -9    9   13      0.00      0.00
   -7    9   13      0.00      0.00
   -5    9   13      0.00      0.00
   -3    9   13      0.00      0.00
   -1    9   13      0.00      0.00
    1    9   13      0.00      0.00
    3    9   13      0.00      0.00
    5    9   13      0.00      0.00
    7    9   13      0.00      0.00
    9    9   13      0.00      0.00
   11    9   13      0.00      0.00
   13    9   13      0.00      0.00
   15    9   13      0.00      0.00
   17    9   13      0.00      0.00
   19    9   13      0.00      0.00
   21    9   13      0.00      0.00
   23    9   13      0.00      0.00
  -32   10   13      0.00      0.00
  -30   10   13      0.00      0.00
  -28   10   13      0.00      0.00
  -26   10   13      0.00      0.00
  -24   10   13      0.00      0.00
  -22   10   13      0.00      0.00
  -20   10   13      0.00      0.00
  -18   10   13      0.00      0.00
  -16   10   13      0.00      0.00
  -14   10   13      0.00      0.00
  -12   10   13      0.00      0.00
  -10   10   13      0.00      0.00
   -8   10   13      0.00      0.00
   -6   10   13      0.00      0.00
   -4   10   13      0.00      0.00
   -2   10   13      0.00      0.00
    0   10   13      0.00      0.00
    2   10   13      0.00      0.00
    4   10   13      0.00      0.00
    6   10   13      0.00      0.00
    8   10   13      0.00      0.00
   10   10   13      0.00      0.00
   12   10   13      0.00      0.00
   14   10   13      0.00      0.00
   16   10   13      0.00      0.00
   18   10   13      0.00      0.00
   20   10   13      0.00      0.00
  -29   11   13      0.00      0.00
  -27   11   13      0.00      0.00
  -25   11   13      0.00      0.00
  -23   11   13      0.00      0.00
  -21   11   13      0.00      0.00
  -19   11   13      0.00      0.00
  -17   11   13      0.00      0.00
  -15   11   13      0.00      0.00
  -13   11   13      0.00      0.00
  -11   11   13      0.00      0.00
   -9   11   13      0.00      0.00
   -7   11   13      0.00      0.00
   -5   11   13      0.00      0.00
   -3   11   13      0.00      0.00
   -1   11   13      0.00      0.00
    1   11   13      0.00      0.00
    3   11   13      0.00      0.00
    5   11   13      0.00      0.00
    7   11   13      0.00      0.00
    9   11   13      0.00      0.00
   11   11   13      0.00      0.00
   13   11   13      0.00      0.00
   15   11   13      0.00      0.00
   17   11   13      0.00      0.00
   19   11   13      0.00      0.00
  -26   12   13      0.00      0.00
  -24   12   13      0.00      0.00
  -22   12   13      0.00      0.00
  -20   12   13      0.00      0.00
  -18   12   13      0.00      0.00
  -16   12   13      0.00      0.00
  -14   12   13      0.00      0.00
  -12   12   13      0.00      0.00
  -10   12   13      0.00      0.00
   -8   12   13      0.00      0.00
   -6   12   13      0.00      0.00
   -4   12   13      0.00      0.00
   -2   12   13      0.00      0.00
    0   12   13      0.00      0.00
    2   12   13      0.00      0.00
    4   12   13      0.00      0.00
    6   12   13      0.00      0.00
    8   12   13      0.00      0.00
   10   12   13      0.00      0.00
   12   12   13      0.00      0.00
   14   12   13      0.00      0.00
   16   12   13      0.00      0.00
  -23   13   13      0.00      0.00
  -21   13   13      0.00      0.00
  -19   13   13      0.00      0.00
  -17   13   13      0.00      0.00
  -15   13   13      0.00      0.00
  -13   13   13      0.00      0.00
  -11   13   13      0.00      0.00
   -9   13   13      0.00      0.00
   -7   13   13      0.00      0.00
   -5   13   13      0.00      0.00
   -3   13   13      0.00      0.00
   -1   13   13      0.00      0.00
    1   13   13      0.00      0.00
    3   13   13      0.00      0.00
    5   13   13      0.00      0.00
    7   13   13      0.00      0.00
    9   13   13      0.00      0.00
   11   13   13      0.00      0.00
   13   13   13      0.00      0.00
  -18   14   13      0.00      0.00
  -16   14   13      0.00      0.00
  -14   14   13      0.00      0.00
  -12   14   13      0.00      0.00
  -10   14   13      0.00      0.00
   -8   14   13      0.00      0.00
   -6   14   13      0.00      0.00
   -4   14   13      0.00      0.00
   -2   14   13      0.00      0.00
    0   14   13      0.00      0.00
    2   14   13      0.00      0.00
    4   14   13      0.00      0.00
    6   14   13      0.00      0.00
    8   14   13      0.00      0.00
   -9   15   13      0.00      0.00
   -7   15   13      0.00      0.00
   -5   15   13      0.00      0.00
   -3   15   13      0.00      0.00
   -1   15   13      0.00      0.00
  -38    0   14      0.00      0.00
  -36    0   14      0.00      0.00
  -34    0   14      0.00      0.00
  -32    0   14      0.00      0.00
  -30    0   14      0.00      0.00
  -28    0   14      0.00      0.00
  -26    0   14      0.00      0.00
  -24    0   14      0.00      0.00
  -22    0   14      0.00      0.00
  -20    0   14      0.00      0.00
  -18    0   14      0.00      0.00
  -16    0   14      0.00      0.00
  -14    0   14      0.00      0.00
  -12    0   14      0.00      0.00
  -10    0   14      0.00      0.00
   -8    0   14      0.00      0.00
   -6    0   14      0.00      0.00
   -4    0   14      0.00      0.00
   -2    0   14      0.00      0.00
    0    0   14      0.00      0.00
    2    0   14      0.00      0.00
    4    0   14      0.00      0.00
    6    0   14      0.00      0.00
    8    0   14      0.00      0.00
   10    0   14      0.00      0.00
   12    0   14      0.00      0.00
   14    0   14      0.00      0.00
   16    0   14      0.00      0.00
   18    0   14      0.00      0.00
   20    0   14      0.00      0.00
   22    0   14      0.00      0.00
   24    0   14      0.00      0.00
   26    0   14      0.00      0.00
   28    0   14      0.00      0.00
  -39    1   14      0.00      0.00
  -37    1   14      0.00      0.00
  -35    1   14      0.00      0.00
  -33    1   14      0.00      0.00
  -31    1   14      0.00      0.00
  -29    1   14      0.00      0.00
  -27    1   14      0.00      0.00
  -25    1   14      0.00      0.00
  -23    1   14      0.00      0.00
  -21    1   14      0.00      0.00
  -19    1   14      0.00      0.00
  -17    1   14      0.00      0.00
  -15    1   14      0.00      0.00
  -13    1   14      0.00      0.00
  -11    1   14      0.00      0.00
   -9    1   14      0.00      0.00
   -7    1   14      0.00      0.00
   -5    1   14      0.00      0.00
   -3    1   14      0.00      0.00
   -1    1   14      0.00      0.00
    1    1   14      0.00      0.00
    3    1   14      0.00      0.00
    5    1   14      0.00      0.00
    7    1   14      0.00      0.00
    9    1   14      0.00      0.00
   11    1   14      0.00      0.00
   13    1   14      0.00      0.00
   15    1   14      0.00      0.00
   17    1   14      0.00      0.00
   19    1   14      0.00      0.00
   21    1   14      0.00      0.00
   23    1   14      0.00      0.00
   25    1   14      0.00      0.00
   27    1   14      0.00      0.00
  -38    2   14      0.00      0.00
  -36    2   14      0.00      0.00
  -34    2   14      0.00      0.00
  -32    2   14      0.00      0.00
  -30    2   14      0.00      0.00
  -28    2   14      0.00      0.00
  -26    2   14      0.00      0.00
  -24    2   14      0.00      0.00
  -22    2   14      0.00      0.00
  -20    2   14      0.00      0.00
  -18    2   14      0.00      0.00
  -16    2   14      0.00      0.00
  -14    2   14      0.00      0.00
  -12    2   14      0.00      0.00
  -10    2   14      0.00      0.00
   -8    2   14      0.00      0.00
   -6    2   14      0.00      0.00
   -4    2   14      0.00      0.00
   -2    2   14      0.00      0.00
    0    2   14      0.00      0.00
    2    2   14      0.00      0.00
    4    2   14      0.00      0.00
    6    2   14      0.00      0.00
    8    2   14      0.00      0.00
   10    2   14      0.00      0.00
   12    2   14      0.00      0.00
   14    2   14      0.00      0.00
   16    2   14      0.00      0.00
   18    2   14      0.00      0.00
   20    2   14      0.00      0.00
   22    2   14      0.00      0.00
   24    2   14      0.00      0.00
   26    2   14      0.00      0.00
   28    2   14      0.00      0.00
  -39    3   14      0.00      0.00
  -37    3   14      0.00      0.00
  -35    3   14      0.00      0.00
  -33    3   14      0.00      0.00
  -31    3   14      0.00      0.00
  -29    3   14      0.00      0.00
  -27    3   14      0.00      0.00
  -25    3   14      0.00      0.00
  -23    3   14      0.00      0.00
  -21    3   14      0.00      0.00
  -19    3   14      0.00      0.00
  -17    3   14      0.00      0.00
  -15    3   14      0.00      0.00
  -13    3   14      0.00      0.00
  -11    3   14      0.00      0.00
   -9    3   14      0.00      0.00
   -7    3   14      0.00      0.00
   -5    3   14      0.00      0.00
   -3    3   14      0.00      0.00
   -1    3   14      0.00      0.00
    1    3   14      0.00      0.00
    3    3   14      0.00      0.00
    5    3   14      0.00      0.00
    7    3   14      0.00      0.00
    9    3   14      0.00      0.00
   11    3   14      0.00      0.00
   13    3   14      0.00      0.00
   15    3   14      0.00      0.00
   17    3   14      0.00      0.00
   19    3   14      0.00      0.00
   21    3   14      0.00      0.00
   23    3   14      0.00      0.00
   25    3   14      0.00      0.00
   27    3   14      0.00      0.00
  -38    4   14      0.00      0.00
  -36    4   14      0.00      0.00
  -34    4   14      0.00      0.00
  -32    4   14      0.00      0.00
  -30    4   14      0.00      0.00
  -28    4   14      0.00      0.00
  -26    4   14      0.00      0.00
  -24    4   14      0.00      0.00
  -22    4   14      0.00      0.00
  -20    4   14      0.00      0.00
  -18    4   14      0.00      0.00
  -16    4   14      0.00      0.00
  -14    4   14      0.00      0.00
  -12    4   14      0.00      0.00
  -10    4   14      0.00      0.00
   -8    4   14      0.00      0.00
   -6    4   14      0.00      0.00
   -4    4   14      0.00      0.00
   -2    4   14      0.00      0.00
    0    4   14      0.00      0.00
    2    4   14      0.00      0.00
    4    4   14      0.00      0.00
    6    4   14      0.00      0.00
    8    4   14      0.00      0.00
   10    4   14      0.00      0.00
   12    4   14      0.00      0.00
   14    4   14      0.00      0.00
   16    4   14      0.00      0.00
   18    4   14      0.00      0.00
   20    4   14      0.00      0.00
   22    4   14      0.00      0.00
   24    4   14      0.00      0.00
   26    4   14      0.00      0.00
  -37    5   14      0.00      0.00
  -35    5   14      0.00      0.00
  -33    5   14      0.00      0.00
  -31    5   14      0.00      0.00
  -29    5   14      0.00      0.00
  -27    5   14      0.00      0.00
  -25    5   14      0.00      0.00
  -23    5   14      0.00      0.00
  -21    5   14      0.00      0.00
  -19    5   14      0.00      0.00
  -17    5   14      0.00      0.00
  -15    5   14      0.00      0.00
  -13    5   14      0.00      0.00
  -11    5   14      0.00      0.00
   -9    5   14      0.00      0.00
   -7    5   14      0.00      0.00
   -5    5   14      0.00      0.00
   -3    5   14      0.00      0.00
   -1    5   14      0.00      0.00
    1    5   14      0.00      0.00
    3    5   14      0.00      0.00
    5    5   14      0.00      0.00
    7    5   14      0.00      0.00
    9    5   14      0.00      0.00
   11    5   14      0.00      0.00
   13    5   14      0.00      0.00
   15    5   14      0.00      0.00
   17    5   14      0.00      0.00
   19    5   14      0.00      0.00
   21    5   14      0.00      0.00
   23    5   14      0.00      0.00
   25    5   14      0.00      0.00
  -36    6   14      0.00      0.00
  -34    6   14      0.00      0.00
  -32    6   14      0.00      0.00
  -30    6   14      0.00      0.00
  -28    6   14      0.00      0.00
  -26    6   14      0.00      0.00
  -24    6   14      0.00      0.00
  -22    6   14      0.00      0.00
  -20    6   14      0.00      0.00
  -18    6   14      0.00      0.00
  -16    6   14      0.00      0.00
  -14    6   14      0.00      0.00
  -12    6   14      0.00      0.00
  -10    6   14      0.00      0.00
   -8    6   14      0.00      0.00
   -6    6   14      0.00      0.00
   -4    6   14      0.00      0.00
   -2    6   14      0.00      0.00
    0    6   14      0.00      0.00
    2    6   14      0.00      0.00
    4    6   14      0.00      0.00
    6    6   14      0.00      0.00
    8    6   14      0.00      0.00
   10    6   14      0.00      0.00
   12    6   14      0.00      0.00
   14    6   14      0.00      0.00
   16    6   14      0.00      0.00
   18    6   14      0.00      0.00
   20    6   14      0.00      0.00
   22    6   14      0.00      0.00
   24    6   14      0.00      0.00
  -35    7   14      0.00      0.00
  -33    7   14      0.00      0.00
  -31    7   14      0.00      0.00
  -29    7   14      0.00      0.00
  -27    7   14      0.00      0.00
  -25    7   14      0.00      0.00
  -23    7   14      0.00      0.00
  -21    7   14      0.00      0.00
  -19    7   14      0.00      0.00
  -17    7   14      0.00      0.00
  -15    7   14      0.00      0.00
  -13    7   14      0.00      0.00
  -11    7   14      0.00      0.00
   -9    7   14      0.00      0.00
   -7    7   14      0.00      0.00
   -5    7   14      0.00      0.00
   -3    7   14      0.00      0.00
   -1    7   14      0.00      0.00
    1    7   14      0.00      0.00
    3    7   14      0.00      0.00
    5    7   14      0.00      0.00
    7    7   14      0.00      0.00
    9    7   14      0.00      0.00
   11    7   14      0.00      0.00
   13    7   14      0.00      0.00
   15    7   14      0.00      0.00
   17    7   14      0.00      0.00
   19    7   14      0.00      0.00
   21    7   14      0.00      0.00
   23    7   14      0.00      0.00
  -34    8   14      0.00      0.00
  -32    8   14      0.00      0.00
  -30    8   14      0.00      0.00
  -28    8   14      0.00      0.00
  -26    8   14      0.00      0.00
  -24    8   14      0.00      0.00
  -22    8   14      0.00      0.00
  -20    8   14      0.00      0.00
  -18    8   14      0.00      0.00
  -16    8   14      0.00      0.00
  -14    8   14      0.00      0.00
  -12    8   14      0.00      0.00
  -10    8   14      0.00      0.00
   -8    8   14      0.00      0.00
   -6    8   14      0.00      0.00
   -4    8   14      0.00      0.00
   -2    8   14      0.00      0.00
    0    8   14      0.00      0.00
    2    8   14      0.00      0.00
    4    8   14      0.00      0.00
    6    8   14      0.00      0.00
    8    8   14      0.00      0.00
   10    8   14      0.00      0.00
   12    8   14      0.00      0.00
   14    8   14      0.00      0.00
   16    8   14      0.00      0.00
   18    8   14      0.00      0.00
   20    8   14      0.00      0.00
   22    8   14      0.00      0.00
  -31    9   14      0.00      0.00
  -29    9   14      0.00      0.00
  -27    9   14      0.00      0.00
  -25    9   14      0.00      0.00
  -23    9   14      0.00      0.00
  -21    9   14      0.00      0.00
  -19    9   14      0.00      0.00
  -17    9   14      0.00      0.00
  -15    9   14      0.00      0.00
  -13    9   14      0.00      0.00
  -11    9   14      0.00      0.00
   -9    9   14      0.00      0.00
   -7    9   14      0.00      0.00
   -5    9   14      0.00      0.00
   -3    9   14      0.00      0.00
   -1    9   14      0.00      0.00
    1    9   14      0.00      0.00
    3    9   14      0.00      0.00
    5    9   14      0.00      0.00
    7    9   14      0.00      0.00
    9    9   14      0.00      0.00
   11    9   14      0.00      0.00
   13    9   14      0.00      0.00
   15    9   14      0.00      0.00
   17    9   14      0.00      0.00
   19    9   14      0.00      0.00
   21    9   14      0.00      0.00
  -30   10   14      0.00      0.00
  -28   10   14      0.00      0.00
  -26   10   14      0.00      0.00
  -24   10   14      0.00      0.00
  -22   10   14      0.00      0.00
  -20   10   14      0.00      0.00
  -18   10   14      0.00      0.00
  -16   10   14      0.00      0.00
  -14   10   14      0.00      0.00
  -12   10   14      0.00      0.00
  -10   10   14      0.00      0.00
   -8   10   14      0.00      0.00
   -6   10   14      0.00      0.00
   -4   10   14      0.00      0.00
   -2   10   14      0.00      0.00
    0   10   14      0.00      0.00
    2   10   14      0.00      0.00
    4   10   14      0.00      0.00
    6   10   14      0.00      0.00
    8   10   14      0.00      0.00
   10   10   14      0.00      0.00
   12   10   14      0.00      0.00
   14   10   14      0.00      0.00
   16   10   14      0.00      0.00
   18   10   14      0.00      0.00
  -27   11   14      0.00      0.00
  -25   11   14      0.00      0.00
  -23   11   14      0.00      0.00
  -21   11   14      0.00      0.00
  -19   11   14      0.00      0.00
  -17   11   14      0.00      0.00
  -15   11   14      0.00      0.00
  -13   11   14      0.00      0.00
  -11   11   14      0.00      0.00
   -9   11   14      0.00      0.00
   -7   11   14      0.00      0.00
   -5   11   14      0.00      0.00
   -3   11   14      0.00      0.00
   -1   11   14      0.00      0.00
    1   11   14      0.00      0.00
    3   11   14      0.00      0.00
    5   11   14      0.00      0.00
    7   11   14      0.00      0.00
    9   11   14      0.00      0.00
   11   11   14      0.00      0.00
   13   11   14      0.00      0.00
   15   11   14      0.00      0.00
  -24   12   14      0.00      0.00
  -22   12   14      0.00      0.00
  -20   12   14      0.00      0.00
  -18   12   14      0.00      0.00
  -16   12   14      0.00      0.00
  -14   12   14      0.00      0.00
  -12   12   14      0.00      0.00
  -10   12   14      0.00      0.00
   -8   12   14      0.00      0.00
   -6   12   14      0.00      0.00
   -4   12   14      0.00      0.00
   -2   12   14      0.00      0.00
    0   12   14      0.00      0.00
    2   12   14      0.00      0.00
    4   12   14      0.00      0.00
    6   12   14      0.00      0.00
    8   12   14      0.00      0.00
   10   12   14      0.00      0.00
   12   12   14      0.00      0.00
  -19   13   14      0.00      0.00
  -17   13   14      0.00      0.00
  -15   13   14      0.00      0.00
  -13   13   14      0.00      0.00
  -11   13   14      0.00      0.00
   -9   13   14      0.00      0.00
   -7   13   14      0.00      0.00
   -5   13   14      0.00      0.00
   -3   13   14      0.00      0.00
   -1   13   14      0.00      0.00
    1   13   14      0.00      0.00
    3   13   14      0.00      0.00
    5   13   14      0.00      0.00
    7   13   14      0.00      0.00
    9   13   14      0.00      0.00
  -12   14   14      0.00      0.00
  -10   14   14      0.00      0.00
   -8   14   14      0.00      0.00
   -6   14   14      0.00      0.00
   -4   14   14      0.00      0.00
   -2   14   14      0.00      0.00
    0   14   14      0.00      0.00
    2   14   14      0.00      0.00
  -37    1   15      0.00      0.00
  -35    1   15      0.00      0.00
  -33    1   15      0.00      0.00
  -31    1   15      0.00      0.00
  -29    1   15      0.00      0.00
  -27    1   15      0.00      0.00
  -25    1   15      0.00      0.00
  -23    1   15      0.00      0.00
  -21    1   15      0.00      0.00
  -19    1   15      0.00      0.00
  -17    1   15      0.00      0.00
  -15    1   15      0.00      0.00
  -13    1   15      0.00      0.00
  -11    1   15      0.00      0.00
   -9    1   15      0.00      0.00
   -7    1   15      0.00      0.00
   -5    1   15      0.00      0.00
   -3    1   15      0.00      0.00
   -1    1   15      0.00      0.00
    1    1   15      0.00      0.00
    3    1   15      0.00      0.00
    5    1   15      0.00      0.00
    7    1   15      0.00      0.00
    9    1   15      0.00      0.00
   11    1   15      0.00      0.00
   13    1   15      0.00      0.00
   15    1   15      0.00      0.00
   17    1   15      0.00      0.00
   19    1   15      0.00      0.00
   21    1   15      0.00      0.00
   23    1   15      0.00      0.00
   25    1   15      0.00      0.00
  -38    2   15      0.00      0.00
  -36    2   15      0.00      0.00
  -34    2   15      0.00      0.00
  -32    2   15      0.00      0.00
  -30    2   15      0.00      0.00
  -28    2   15      0.00      0.00
  -26    2   15      0.00      0.00
  -24    2   15      0.00      0.00
  -22    2   15      0.00      0.00
  -20    2   15      0.00      0.00
  -18    2   15      0.00      0.00
  -16    2   15      0.00      0.00
  -14    2   15      0.00      0.00
  -12    2   15      0.00      0.00
  -10    2   15      0.00      0.00
   -8    2   15      0.00      0.00
   -6    2   15      0.00      0.00
   -4    2   15      0.00      0.00
   -2    2   15      0.00      0.00
    0    2   15      0.00      0.00
    2    2   15      0.00      0.00
    4    2   15      0.00      0.00
    6    2   15      0.00      0.00
    8    2   15      0.00      0.00
   10    2   15      0.00      0.00
   12    2   15      0.00      0.00
   14    2   15      0.00      0.00
   16    2   15      0.00      0.00
   18    2   15      0.00      0.00
   20    2   15      0.00      0.00
   22    2   15      0.00      0.00
   24    2   15      0.00      0.00
  -37    3   15      0.00      0.00
  -35    3   15      0.00      0.00
  -33    3   15      0.00      0.00
  -31    3   15      0.00      0.00
  -29    3   15      0.00      0.00
  -27    3   15      0.00      0.00
  -25    3   15      0.00      0.00
  -23    3   15      0.00      0.00
  -21    3   15      0.00      0.00
  -19    3   15      0.00      0.00
  -17    3   15      0.00      0.00
  -15    3   15      0.00      0.00
  -13    3   15      0.00      0.00
  -11    3   15      0.00      0.00
   -9    3   15      0.00      0.00
   -7    3   15      0.00      0.00
   -5    3   15      0.00      0.00
   -3    3   15      0.00      0.00
   -1    3   15      0.00      0.00
    1    3   15      0.00      0.00
    3    3   15      0.00      0.00
    5    3   15      0.00      0.00
    7    3   15      0.00      0.00
    9    3   15      0.00      0.00
   11    3   15      0.00      0.00
   13    3   15      0.00      0.00
   15    3   15      0.00      0.00
   17    3   15      0.00      0.00
   19    3   15      0.00      0.00
   21    3   15      0.00      0.00
   23    3   15      0.00      0.00
   25    3   15      0.00      0.00
  -36    4   15      0.00      0.00
  -34    4   15      0.00      0.00
  -32    4   15      0.00      0.00
  -30    4   15      0.00      0.00
  -28    4   15      0.00      0.00
  -26    4   15      0.00      0.00
  -24    4   15      0.00      0.00
  -22    4   15      0.00      0.00
  -20    4   15      0.00      0.00
  -18    4   15      0.00      0.00
  -16    4   15      0.00      0.00
  -14    4   15      0.00      0.00
  -12    4   15      0.00      0.00
  -10    4   15      0.00      0.00
   -8    4   15      0.00      0.00
   -6    4   15      0.00      0.00
   -4    4   15      0.00      0.00
   -2    4   15      0.00      0.00
    0    4   15      0.00      0.00
    2    4   15      0.00      0.00
    4    4   15      0.00      0.00
    6    4   15      0.00      0.00
    8    4   15      0.00      0.00
   10    4   15      0.00      0.00
   12    4   15      0.00      0.00
   14    4   15      0.00      0.00
   16    4   15      0.00      0.00
   18    4   15      0.00      0.00
   20    4   15      0.00      0.00
   22    4   15      0.00      0.00
   24    4   15      0.00      0.00
  -35    5   15      0.00      0.00
  -33    5   15      0.00      0.00
  -31    5   15      0.00      0.00
  -29    5   15      0.00      0.00
  -27    5   15      0.00      0.00
  -25    5   15      0.00      0.00
  -23    5   15      0.00      0.00
  -21    5   15      0.00      0.00
  -19    5   15      0.00      0.00
  -17    5   15      0.00      0.00
  -15    5   15      0.00      0.00
  -13    5   15      0.00      0.00
  -11    5   15      0.00      0.00
   -9    5   15      0.00      0.00
   -7    5   15      0.00      0.00
   -5    5   15      0.00      0.00
   -3    5   15      0.00      0.00
   -1    5   15      0.00      0.00
    1    5   15      0.00      0.00
    3    5   15      0.00      0.00
    5    5   15      0.00      0.00
    7    5   15      0.00      0.00
    9    5   15      0.00      0.00
   11    5   15      0.00      0.00
   13    5   15      0.00      0.00
   15    5   15      0.00      0.00
   17    5   15      0.00      0.00
   19    5   15      0.00      0.00
   21    5   15      0.00      0.00
   23    5   15      0.00      0.00
  -34    6   15      0.00      0.00
  -32    6   15      0.00      0.00
  -30    6   15      0.00      0.00
  -28    6   15      0.00      0.00
  -26    6   15      0.00      0.00
  -24    6   15      0.00      0.00
  -22    6   15      0.00      0.00
  -20    6   15      0.00      0.00
  -18    6   15      0.00      0.00
  -16    6   15      0.00      0.00
  -14    6   15      0.00      0.00
  -12    6   15      0.00      0.00
  -10    6   15      0.00      0.00
   -8    6   15      0.00      0.00
   -6    6   15      0.00      0.00
   -4    6   15      0.00      0.00
   -2    6   15      0.00      0.00
    0    6   15      0.00      0.00
    2    6   15      0.00      0.00
    4    6   15      0.00      0.00
    6    6   15      0.00      0.00
    8    6   15      0.00      0.00
   10    6   15      0.00      0.00
   12    6   15      0.00      0.00
   14    6   15      0.00      0.00
   16    6   15      0.00      0.00
   18    6   15      0.00      0.00
   20    6   15      0.00      0.00
   22    6   15      0.00      0.00
  -33    7   15      0.00      0.00
  -31    7   15      0.00      0.00
  -29    7   15      0.00      0.00
  -27    7   15      0.00      0.00
  -25    7   15      0.00      0.00
  -23    7   15      0.00      0.00
  -21    7   15      0.00      0.00
  -19    7   15      0.00      0.00
  -17    7   15      0.00      0.00
  -15    7   15      0.00      0.00
  -13    7   15      0.00      0.00
  -11    7   15      0.00      0.00
   -9    7   15      0.00      0.00
   -7    7   15      0.00      0.00
   -5    7   15      0.00      0.00
   -3    7   15      0.00      0.00
   -1    7   15      0.00      0.00
    1    7   15      0.00      0.00
    3    7   15      0.00      0.00
    5    7   15      0.00      0.00
    7    7   15      0.00      0.00
    9    7   15      0.00      0.00
   11    7   15      0.00      0.00
   13    7   15      0.00      0.00
   15    7   15      0.00      0.00
   17    7   15      0.00      0.00
   19    7   15      0.00      0.00
   21    7   15      0.00      0.00
  -32    8   15      0.00      0.00
  -30    8   15      0.00      0.00
  -28    8   15      0.00      0.00
  -26    8   15      0.00      0.00
  -24    8   15      0.00      0.00
  -22    8   15      0.00      0.00
  -20    8   15      0.00      0.00
  -18    8   15      0.00      0.00
  -16    8   15      0.00      0.00
  -14    8   15      0.00      0.00
  -12    8   15      0.00      0.00
  -10    8   15      0.00      0.00
   -8    8   15      0.00      0.00
   -6    8   15      0.00      0.00
   -4    8   15      0.00      0.00
   -2    8   15      0.00      0.00
    0    8   15      0.00      0.00
    2    8   15      0.00      0.00
    4    8   15      0.00      0.00
    6    8   15      0.00      0.00
    8    8   15      0.00      0.00
   10    8   15      0.00      0.00
   12    8   15      0.00      0.00
   14    8   15      0.00      0.00
   16    8   15      0.00      0.00
   18    8   15      0.00      0.00
  -29    9   15      0.00      0.00
  -27    9   15      0.00      0.00
  -25    9   15      0.00      0.00
  -23    9   15      0.00      0.00
  -21    9   15      0.00      0.00
  -19    9   15      0.00      0.00
  -17    9   15      0.00      0.00
  -15    9   15      0.00      0.00
  -13    9   15      0.00      0.00
  -11    9   15      0.00      0.00
   -9    9   15      0.00      0.00
   -7    9   15      0.00      0.00
   -5    9   15      0.00      0.00
   -3    9   15      0.00      0.00
   -1    9   15      0.00      0.00
    1    9   15      0.00      0.00
    3    9   15      0.00      0.00
    5    9   15      0.00      0.00
    7    9   15      0.00      0.00
    9    9   15      0.00      0.00
   11    9   15      0.00      0.00
   13    9   15      0.00      0.00
   15    9   15      0.00      0.00
   17    9   15      0.00      0.00
  -26   10   15      0.00      0.00
  -24   10   15      0.00      0.00
  -22   10   15      0.00      0.00
  -20   10   15      0.00      0.00
  -18   10   15      0.00      0.00
  -16   10   15      0.00      0.00
  -14   10   15      0.00      0.00
  -12   10   15      0.00      0.00
  -10   10   15      0.00      0.00
   -8   10   15      0.00      0.00
   -6   10   15      0.00      0.00
   -4   10   15      0.00      0.00
   -2   10   15      0.00      0.00
    0   10   15      0.00      0.00
    2   10   15      0.00      0.00
    4   10   15      0.00      0.00
    6   10   15      0.00      0.00
    8   10   15      0.00      0.00
   10   10   15      0.00      0.00
   12   10   15      0.00      0.00
   14   10   15      0.00      0.00
  -25   11   15      0.00      0.00
  -23   11   15      0.00      0.00
  -21   11   15      0.00      0.00
  -19   11   15      0.00      0.00
  -17   11   15      0.00      0.00
  -15   11   15      0.00      0.00
  -13   11   15      0.00      0.00
  -11   11   15      0.00      0.00
   -9   11   15      0.00      0.00
   -7   11   15      0.00      0.00
   -5   11   15      0.00      0.00
   -3   11   15      0.00      0.00
   -1   11   15      0.00      0.00
    1   11   15      0.00      0.00
    3   11   15      0.00      0.00
    5   11   15      0.00      0.00
    7   11   15      0.00      0.00
    9   11   15      0.00      0.00
   11   11   15      0.00      0.00
  -20   12   15      0.00      0.00
  -18   12   15      0.00      0.00
  -16   12   15      0.00      0.00
  -14   12   15      0.00      0.00
  -12   12   15      0.00      0.00
  -10   12   15      0.00      0.00
   -8   12   15      0.00      0.00
   -6   12   15      0.00      0.00
   -4   12   15      0.00      0.00
   -2   12   15      0.00      0.00
    0   12   15      0.00      0.00
    2   12   15      0.00      0.00
    4   12   15      0.00      0.00
    6   12   15      0.00      0.00
    8   12   15      0.00      0.00
  -15   13   15      0.00      0.00
  -13   13   15      0.00      0.00
  -11   13   15      0.00      0.00
   -9   13   15      0.00      0.00
   -7   13   15      0.00      0.00
   -5   13   15      0.00      0.00
   -3   13   15      0.00      0.00
   -1   13   15      0.00      0.00
    1   13   15      0.00      0.00
    3   13   15      0.00      0.00
  -36    0   16      0.00      0.00
  -34    0   16      0.00      0.00
  -32    0   16      0.00      0.00
  -30    0   16      0.00      0.00
  -28    0   16      0.00      0.00
  -26    0   16      0.00      0.00
  -24    0   16      0.00      0.00
  -22    0   16      0.00      0.00
  -20    0   16      0.00      0.00
  -18    0   16      0.00      0.00
  -16    0   16      0.00      0.00
  -14    0   16      0.00      0.00
  -12    0   16      0.00      0.00
  -10    0   16      0.00      0.00
   -8    0   16      0.00      0.00
   -6    0   16      0.00      0.00
   -4    0   16      0.00      0.00
   -2    0   16      0.00      0.00
    0    0   16      0.00      0.00
    2    0   16      0.00      0.00
    4    0   16      0.00      0.00
    6    0   16      0.00      0.00
    8    0   16      0.00      0.00
   10    0   16      0.00      0.00
   12    0   16      0.00      0.00
   14    0   16      0.00      0.00
   16    0   16      0.00      0.00
   18    0   16      0.00      0.00
   20    0   16      0.00      0.00
   22    0   16      0.00      0.00
  -35    1   16      0.00      0.00
  -33    1   16      0.00      0.00
  -31    1   16      0.00      0.00
  -29    1   16      0.00      0.00
  -27    1   16      0.00      0.00
  -25    1   16      0.00      0.00
  -23    1   16      0.00      0.00
  -21    1   16      0.00      0.00
  -19    1   16      0.00      0.00
  -17    1   16      0.00      0.00
  -15    1   16      0.00      0.00
  -13    1   16      0.00      0.00
  -11    1   16      0.00      0.00
   -9    1   16      0.00      0.00
   -7    1   16      0.00      0.00
   -5    1   16      0.00      0.00
   -3    1   16      0.00      0.00
   -1    1   16      0.00      0.00
    1    1   16      0.00      0.00
    3    1   16      0.00      0.00
    5    1   16      0.00      0.00
    7    1   16      0.00      0.00
    9    1   16      0.00      0.00
   11    1   16      0.00      0.00
   13    1   16      0.00      0.00
   15    1   16      0.00      0.00
   17    1   16      0.00      0.00
   19    1   16      0.00      0.00
   21    1   16      0.00      0.00
   23    1   16      0.00      0.00
  -36    2   16      0.00      0.00
  -34    2   16      0.00      0.00
  -32    2   16      0.00      0.00
  -30    2   16      0.00      0.00
  -28    2   16      0.00      0.00
  -26    2   16      0.00      0.00
  -24    2   16      0.00      0.00
  -22    2   16      0.00      0.00
  -20    2   16      0.00      0.00
  -18    2   16      0.00      0.00
  -16    2   16      0.00      0.00
  -14    2   16      0.00      0.00
  -12    2   16      0.00      0.00
  -10    2   16      0.00      0.00
   -8    2   16      0.00      0.00
   -6    2   16      0.00      0.00
   -4    2   16      0.00      0.00
   -2    2   16      0.00      0.00
    0    2   16      0.00      0.00
    2    2   16      0.00      0.00
    4    2   16      0.00      0.00
    6    2   16      0.00      0.00
    8    2   16      0.00      0.00
   10    2   16      0.00      0.00
   12    2   16      0.00      0.00
   14    2   16      0.00      0.00
   16    2   16      0.00      0.00
   18    2   16      0.00      0.00
   20    2   16      0.00      0.00
   22    2   16      0.00      0.00
  -35    3   16      0.00      0.00
  -33    3   16      0.00      0.00
  -31    3   16      0.00      0.00
  -29    3   16      0.00      0.00
  -27    3   16      0.00      0.00
  -25    3   16      0.00      0.00
  -23    3   16      0.00      0.00
  -21    3   16      0.00      0.00
  -19    3   16      0.00      0.00
  -17    3   16      0.00      0.00
  -15    3   16      0.00      0.00
  -13    3   16      0.00      0.00
  -11    3   16      0.00      0.00
   -9    3   16      0.00      0.00
   -7    3   16      0.00      0.00
   -5    3   16      0.00      0.00
   -3    3   16      0.00      0.00
   -1    3   16      0.00      0.00
    1    3   16      0.00      0.00
    3    3   16      0.00      0.00
    5    3   16      0.00      0.00
    7    3   16      0.00      0.00
    9    3   16      0.00      0.00
   11    3   16      0.00      0.00
   13    3   16      0.00      0.00
   15    3   16      0.00      0.00
   17    3   16      0.00      0.00
   19    3   16      0.00      0.00
   21    3   16      0.00      0.00
  -34    4   16      0.00      0.00
  -32    4   16      0.00      0.00
  -30    4   16      0.00      0.00
  -28    4   16      0.00      0.00
  -26    4   16      0.00      0.00
  -24    4   16      0.00      0.00
  -22    4   16      0.00      0.00
  -20    4   16      0.00      0.00
  -18    4   16      0.00      0.00
  -16    4   16      0.00      0.00
  -14    4   16      0.00      0.00
  -12    4   16      0.00      0.00
  -10    4   16      0.00      0.00
   -8    4   16      0.00      0.00
   -6    4   16      0.00      0.00
   -4    4   16      0.00      0.00
   -2    4   16      0.00      0.00
    0    4   16      0.00      0.00
    2    4   16      0.00      0.00
    4    4   16      0.00      0.00
    6    4   16      0.00      0.00
    8    4   16      0.00      0.00
   10    4   16      0.00      0.00
   12    4   16      0.00      0.00
   14    4   16      0.00      0.00
   16    4   16      0.00      0.00
   18    4   16      0.00      0.00
   20    4   16      0.00      0.00
  -33    5   16      0.00      0.00
  -31    5   16      0.00      0.00
  -29    5   16      0.00      0.00
  -27    5   16      0.00      0.00
  -25    5   16      0.00      0.00
  -23    5   16      0.00      0.00
  -21    5   16      0.00      0.00
  -19    5   16      0.00      0.00
  -17    5   16      0.00      0.00
  -15    5   16      0.00      0.00
  -13    5   16      0.00      0.00
  -11    5   16      0.00      0.00
   -9    5   16      0.00      0.00
   -7    5   16      0.00      0.00
   -5    5   16      0.00      0.00
   -3    5   16      0.00      0.00
   -1    5   16      0.00      0.00
    1    5   16      0.00      0.00
    3    5   16      0.00      0.00
    5    5   16      0.00      0.00
    7    5   16      0.00      0.00
    9    5   16      0.00      0.00
   11    5   16      0.00      0.00
   13    5   16      0.00      0.00
   15    5   16      0.00      0.00
   17    5   16      0.00      0.00
   19    5   16      0.00      0.00
   21    5   16      0.00      0.00
  -32    6   16      0.00      0.00
  -30    6   16      0.00      0.00
  -28    6   16      0.00      0.00
  -26    6   16      0.00      0.00
  -24    6   16      0.00      0.00
  -22    6   16      0.00      0.00
  -20    6   16      0.00      0.00
  -18    6   16      0.00      0.00
  -16    6   16      0.00      0.00
  -14    6   16      0.00      0.00
  -12    6   16      0.00      0.00
  -10    6   16      0.00      0.00
   -8    6   16      0.00      0.00
   -6    6   16      0.00      0.00
   -4    6   16      0.00      0.00
   -2    6   16      0.00      0.00
    0    6   16      0.00      0.00
    2    6   16      0.00      0.00
    4    6   16      0.00      0.00
    6    6   16      0.00      0.00
    8    6   16      0.00      0.00
   10    6   16      0.00      0.00
   12    6   16      0.00      0.00
   14    6   16      0.00      0.00
   16    6   16      0.00      0.00
   18    6   16      0.00      0.00
  -31    7   16      0.00      0.00
  -29    7   16      0.00      0.00
  -27    7   16      0.00      0.00
  -25    7   16      0.00      0.00
  -23    7   16      0.00      0.00
  -21    7   16      0.00      0.00
  -19    7   16      0.00      0.00
  -17    7   16      0.00      0.00
  -15    7   16      0.00      0.00
  -13    7   16      0.00      0.00
  -11    7   16      0.00      0.00
   -9    7   16      0.00      0.00
   -7    7   16      0.00      0.00
   -5    7   16      0.00      0.00
   -3    7   16      0.00      0.00
   -1    7   16      0.00      0.00
    1    7   16      0.00      0.00
    3    7   16      0.00      0.00
    5    7   16      0.00      0.00
    7    7   16      0.00      0.00
    9    7   16      0.00      0.00
   11    7   16      0.00      0.00
   13    7   16      0.00      0.00
   15    7   16      0.00      0.00
   17    7   16      0.00      0.00
  -28    8   16      0.00      0.00
  -26    8   16      0.00      0.00
  -24    8   16      0.00      0.00
  -22    8   16      0.00      0.00
  -20    8   16      0.00      0.00
  -18    8   16      0.00      0.00
  -16    8   16      0.00      0.00
  -14    8   16      0.00      0.00
  -12    8   16      0.00      0.00
  -10    8   16      0.00      0.00
   -8    8   16      0.00      0.00
   -6    8   16      0.00      0.00
   -4    8   16      0.00      0.00
   -2    8   16      0.00      0.00
    0    8   16      0.00      0.00
    2    8   16      0.00      0.00
    4    8   16      0.00      0.00
    6    8   16      0.00      0.00
    8    8   16      0.00      0.00
   10    8   16      0.00      0.00
   12    8   16      0.00      0.00
   14    8   16      0.00      0.00
   16    8   16      0.00      0.00
  -27    9   16      0.00      0.00
  -25    9   16      0.00      0.00
  -23    9   16      0.00      0.00
  -21    9   16      0.00      0.00
  -19    9   16      0.00      0.00
  -17    9   16      0.00      0.00
  -15    9   16      0.00      0.00
  -13    9   16      0.00      0.00
  -11    9   16      0.00      0.00
   -9    9   16      0.00      0.00
   -7    9   16      0.00      0.00
   -5    9   16      0.00      0.00
   -3    9   16      0.00      0.00
   -1    9   16      0.00      0.00
    1    9   16      0.00      0.00
    3    9   16      0.00      0.00
    5    9   16      0.00      0.00
    7    9   16      0.00      0.00
    9    9   16      0.00      0.00
   11    9   16      0.00      0.00
   13    9   16      0.00      0.00
  -24   10   16      0.00      0.00
  -22   10   16      0.00      0.00
  -20   10   16      0.00      0.00
  -18   10   16      0.00      0.00
  -16   10   16      0.00      0.00
  -14   10   16      0.00      0.00
  -12   10   16      0.00      0.00
  -10   10   16      0.00      0.00
   -8   10   16      0.00      0.00
   -6   10   16      0.00      0.00
   -4   10   16      0.00      0.00
   -2   10   16      0.00      0.00
    0   10   16      0.00      0.00
    2   10   16      0.00      0.00
    4   10   16      0.00      0.00
    6   10   16      0.00      0.00
    8   10   16      0.00      0.00
   10   10   16      0.00      0.00
  -21   11   16      0.00      0.00
  -19   11   16      0.00      0.00
  -17   11   16      0.00      0.00
  -15   11   16      0.00      0.00
  -13   11   16      0.00      0.00
  -11   11   16      0.00      0.00
   -9   11   16      0.00      0.00
   -7   11   16      0.00      0.00
   -5   11   16      0.00      0.00
   -3   11   16      0.00      0.00
   -1   11   16      0.00      0.00
    1   11   16      0.00      0.00
    3   11   16      0.00      0.00
    5   11   16      0.00      0.00
    7   11   16      0.00      0.00
  -14   12   16      0.00      0.00
  -12   12   16      0.00      0.00
  -10   12   16      0.00      0.00
   -8   12   16      0.00      0.00
   -6   12   16      0.00      0.00
   -4   12   16      0.00      0.00
   -2   12   16      0.00      0.00
    0   12   16      0.00      0.00
    2   12   16      0.00      0.00
  -33    1   17      0.00      0.00
  -31    1   17      0.00      0.00
  -29    1   17      0.00      0.00
  -27    1   17      0.00      0.00
  -25    1   17      0.00      0.00
  -23    1   17      0.00      0.00
  -21    1   17      0.00      0.00
  -19    1   17      0.00      0.00
  -17    1   17      0.00      0.00
  -15    1   17      0.00      0.00
  -13    1   17      0.00      0.00
  -11    1   17      0.00      0.00
   -9    1   17      0.00      0.00
   -7    1   17      0.00      0.00
   -5    1   17      0.00      0.00
   -3    1   17      0.00      0.00
   -1    1   17      0.00      0.00
    1    1   17      0.00      0.00
    3    1   17      0.00      0.00
    5    1   17      0.00      0.00
    7    1   17      0.00      0.00
    9    1   17      0.00      0.00
   11    1   17      0.00      0.00
   13    1   17      0.00      0.00
   15    1   17      0.00      0.00
   17    1   17      0.00      0.00
   19    1   17      0.00      0.00
  -32    2   17      0.00      0.00
  -30    2   17      0.00      0.00
  -28    2   17      0.00      0.00
  -26    2   17      0.00      0.00
  -24    2   17      0.00      0.00
  -22    2   17      0.00      0.00
  -20    2   17      0.00      0.00
  -18    2   17      0.00      0.00
  -16    2   17      0.00      0.00
  -14    2   17      0.00      0.00
  -12    2   17      0.00      0.00
  -10    2   17      0.00      0.00
   -8    2   17      0.00      0.00
   -6    2   17      0.00      0.00
   -4    2   17      0.00      0.00
   -2    2   17      0.00      0.00
    0    2   17      0.00      0.00
    2    2   17      0.00      0.00
    4    2   17      0.00      0.00
    6    2   17      0.00      0.00
    8    2   17      0.00      0.00
   10    2   17      0.00      0.00
   12    2   17      0.00      0.00
   14    2   17      0.00      0.00
   16    2   17      0.00      0.00
   18    2   17      0.00      0.00
   20    2   17      0.00      0.00
  -33    3   17      0.00      0.00
  -31    3   17      0.00      0.00
  -29    3   17      0.00      0.00
  -27    3   17      0.00      0.00
  -25    3   17      0.00      0.00
  -23    3   17      0.00      0.00
  -21    3   17      0.00      0.00
  -19    3   17      0.00      0.00
  -17    3   17      0.00      0.00
  -15    3   17      0.00      0.00
  -13    3   17      0.00      0.00
  -11    3   17      0.00      0.00
   -9    3   17      0.00      0.00
   -7    3   17      0.00      0.00
   -5    3   17      0.00      0.00
   -3    3   17      0.00      0.00
   -1    3   17      0.00      0.00
    1    3   17      0.00      0.00
    3    3   17      0.00      0.00
    5    3   17      0.00      0.00
    7    3   17      0.00      0.00
    9    3   17      0.00      0.00
   11    3   17      0.00      0.00
   13    3   17      0.00      0.00
   15    3   17      0.00      0.00
   17    3   17      0.00      0.00
   19    3   17      0.00      0.00
  -32    4   17      0.00      0.00
  -30    4   17      0.00      0.00
  -28    4   17      0.00      0.00
  -26    4   17      0.00      0.00
  -24    4   17      0.00      0.00
  -22    4   17      0.00      0.00
  -20    4   17      0.00      0.00
  -18    4   17      0.00      0.00
  -16    4   17      0.00      0.00
  -14    4   17      0.00      0.00
  -12    4   17      0.00      0.00
  -10    4   17      0.00      0.00
   -8    4   17      0.00      0.00
   -6    4   17      0.00      0.00
   -4    4   17      0.00      0.00
   -2    4   17      0.00      0.00
    0    4   17      0.00      0.00
    2    4   17      0.00      0.00
    4    4   17      0.00      0.00
    6    4   17      0.00      0.00
    8    4   17      0.00      0.00
   10    4   17      0.00      0.00
   12    4   17      0.00      0.00
   14    4   17      0.00      0.00
   16    4   17      0.00      0.00
   18    4   17      0.00      0.00
  -31    5   17      0.00      0.00
  -29    5   17      0.00      0.00
  -27    5   17      0.00      0.00
  -25    5   17      0.00      0.00
  -23    5   17      0.00      0.00
  -21    5   17      0.00      0.00
  -19    5   17      0.00      0.00
  -17    5   17      0.00      0.00
  -15    5   17      0.00      0.00
  -13    5   17      0.00      0.00
  -11    5   17      0.00      0.00
   -9    5   17      0.00      0.00
   -7    5   17      0.00      0.00
   -5    5   17      0.00      0.00
   -3    5   17      0.00      0.00
   -1    5   17      0.00      0.00
    1    5   17      0.00      0.00
    3    5   17      0.00      0.00
    5    5   17      0.00      0.00
    7    5   17      0.00      0.00
    9    5   17      0.00      0.00
   11    5   17      0.00      0.00
   13    5   17      0.00      0.00
   15    5   17      0.00      0.00
   17    5   17      0.00      0.00
  -30    6   17      0.00      0.00
  -28    6   17      0.00      0.00
  -26    6   17      0.00      0.00
  -24    6   17      0.00      0.00
  -22    6   17      0.00      0.00
  -20    6   17      0.00      0.00
  -18    6   17      0.00      0.00
  -16    6   17      0.00      0.00
  -14    6   17      0.00      0.00
  -12    6   17      0.00      0.00
  -10    6   17      0.00      0.00
   -8    6   17      0.00      0.00
   -6    6   17      0.00      0.00
   -4    6   17      0.00      0.00
   -2    6   17      0.00      0.00
    0    6   17      0.00      0.00
    2    6   17      0.00      0.00
    4    6   17      0.00      0.00
    6    6   17      0.00      0.00
    8    6   17      0.00      0.00
   10    6   17      0.00      0.00
   12    6   17      0.00      0.00
   14    6   17      0.00      0.00
   16    6   17      0.00      0.00
  -27    7   17      0.00      0.00
  -25    7   17      0.00      0.00
  -23    7   17      0.00      0.00
  -21    7   17      0.00      0.00
  -19    7   17      0.00      0.00
  -17    7   17      0.00      0.00
  -15    7   17      0.00      0.00
  -13    7   17      0.00      0.00
  -11    7   17      0.00      0.00
   -9    7   17      0.00      0.00
   -7    7   17      0.00      0.00
   -5    7   17      0.00      0.00
   -3    7   17      0.00      0.00
   -1    7   17      0.00      0.00
    1    7   17      0.00      0.00
    3    7   17      0.00      0.00
    5    7   17      0.00      0.00
    7    7   17      0.00      0.00
    9    7   17      0.00      0.00
   11    7   17      0.00      0.00
   13    7   17      0.00      0.00
  -26    8   17      0.00      0.00
  -24    8   17      0.00      0.00
  -22    8   17      0.00      0.00
  -20    8   17      0.00      0.00
  -18    8   17      0.00      0.00
  -16    8   17      0.00      0.00
  -14    8   17      0.00      0.00
  -12    8   17      0.00      0.00
  -10    8   17      0.00      0.00
   -8    8   17      0.00      0.00
   -6    8   17      0.00      0.00
   -4    8   17      0.00      0.00
   -2    8   17      0.00      0.00
    0    8   17      0.00      0.00
    2    8   17      0.00      0.00
    4    8   17      0.00      0.00
    6    8   17      0.00      0.00
    8    8   17      0.00      0.00
   10    8   17      0.00      0.00
   12    8   17      0.00      0.00
  -23    9   17      0.00      0.00
  -21    9   17      0.00      0.00
  -19    9   17      0.00      0.00
  -17    9   17      0.00      0.00
  -15    9   17      0.00      0.00
  -13    9   17      0.00      0.00
  -11    9   17      0.00      0.00
   -9    9   17      0.00      0.00
   -7    9   17      0.00      0.00
   -5    9   17      0.00      0.00
   -3    9   17      0.00      0.00
   -1    9   17      0.00      0.00
    1    9   17      0.00      0.00
    3    9   17      0.00      0.00
    5    9   17      0.00      0.00
    7    9   17      0.00      0.00
    9    9   17      0.00      0.00
  -20   10   17      0.00      0.00
  -18   10   17      0.00      0.00
  -16   10   17      0.00      0.00
  -14   10   17      0.00      0.00
  -12   10   17      0.00      0.00
  -10   10   17      0.00      0.00
   -8   10   17      0.00      0.00
   -6   10   17      0.00      0.00
   -4   10   17      0.00      0.00
   -2   10   17      0.00      0.00
    0   10   17      0.00      0.00
    2   10   17      0.00      0.00
    4   10   17      0.00      0.00
    6   10   17      0.00      0.00
  -15   11   17      0.00      0.00
  -13   11   17      0.00      0.00
  -11   11   17      0.00      0.00
   -9   11   17      0.00      0.00
   -7   11   17      0.00      0.00
   -5   11   17      0.00      0.00
   -3   11   17      0.00      0.00
   -1   11   17      0.00      0.00
    1   11   17      0.00      0.00
  -30    0   18      0.00      0.00
  -28    0   18      0.00      0.00
  -26    0   18      0.00      0.00
  -24    0   18      0.00      0.00
  -22    0   18      0.00      0.00
  -20    0   18      0.00      0.00
  -18    0   18      0.00      0.00
  -16    0   18      0.00      0.00
  -14    0   18      0.00      0.00
  -12    0   18      0.00      0.00
  -10    0   18      0.00      0.00
   -8    0   18      0.00      0.00
   -6    0   18      0.00      0.00
   -4    0   18      0.00      0.00
   -2    0   18      0.00      0.00
    0    0   18      0.00      0.00
    2    0   18      0.00      0.00
    4    0   18      0.00      0.00
    6    0   18      0.00      0.00
    8    0   18      0.00      0.00
   10    0   18      0.00      0.00
   12    0   18      0.00      0.00
   14    0   18      0.00      0.00
   16    0   18      0.00      0.00
  -31    1   18      0.00      0.00
  -29    1   18      0.00      0.00
  -27    1   18      0.00      0.00
  -25    1   18      0.00      0.00
  -23    1   18      0.00      0.00
  -21    1   18      0.00      0.00
  -19    1   18      0.00      0.00
  -17    1   18      0.00      0.00
  -15    1   18      0.00      0.00
  -13    1   18      0.00      0.00
  -11    1   18      0.00      0.00
   -9    1   18      0.00      0.00
   -7    1   18      0.00      0.00
   -5    1   18      0.00      0.00
   -3    1   18      0.00      0.00
   -1    1   18      0.00      0.00
    1    1   18      0.00      0.00
    3    1   18      0.00      0.00
    5    1   18      0.00      0.00
    7    1   18      0.00      0.00
    9    1   18      0.00      0.00
   11    1   18      0.00      0.00
   13    1   18      0.00      0.00
   15    1   18      0.00      0.00
  -30    2   18      0.00      0.00
  -28    2   18      0.00      0.00
  -26    2   18      0.00      0.00
  -24    2   18      0.00      0.00
  -22    2   18      0.00      0.00
  -20    2   18      0.00      0.00
  -18    2   18      0.00      0.00
  -16    2   18      0.00      0.00
  -14    2   18      0.00      0.00
  -12    2   18      0.00      0.00
  -10    2   18      0.00      0.00
   -8    2   18      0.00      0.00
   -6    2   18      0.00      0.00
   -4    2   18      0.00      0.00
   -2    2   18      0.00      0.00
    0    2   18      0.00      0.00
    2    2   18      0.00      0.00
    4    2   18      0.00      0.00
    6    2   18      0.00      0.00
    8    2   18      0.00      0.00
   10    2   18      0.00      0.00
   12    2   18      0.00      0.00
   14    2   18      0.00      0.00
   16    2   18      0.00      0.00
  -29    3   18      0.00      0.00
  -27    3   18      0.00      0.00
  -25    3   18      0.00      0.00
  -23    3   18      0.00      0.00
  -21    3   18      0.00      0.00
  -19    3   18      0.00      0.00
  -17    3   18      0.00      0.00
  -15    3   18      0.00      0.00
  -13    3   18      0.00      0.00
  -11    3   18      0.00      0.00
   -9    3   18      0.00      0.00
   -7    3   18      0.00      0.00
   -5    3   18      0.00      0.00
   -3    3   18      0.00      0.00
   -1    3   18      0.00      0.00
    1    3   18      0.00      0.00
    3    3   18      0.00      0.00
    5    3   18      0.00      0.00
    7    3   18      0.00      0.00
    9    3   18      0.00      0.00
   11    3   18      0.00      0.00
   13    3   18      0.00      0.00
   15    3   18      0.00      0.00
  -28    4   18      0.00      0.00
  -26    4   18      0.00      0.00
  -24    4   18      0.00      0.00
  -22    4   18      0.00      0.00
  -20    4   18      0.00      0.00
  -18    4   18      0.00      0.00
  -16    4   18      0.00      0.00
  -14    4   18      0.00      0.00
  -12    4   18      0.00      0.00
  -10    4   18      0.00      0.00
   -8    4   18      0.00      0.00
   -6    4   18      0.00      0.00
   -4    4   18      0.00      0.00
   -2    4   18      0.00      0.00
    0    4   18      0.00      0.00
    2    4   18      0.00      0.00
    4    4   18      0.00      0.00
    6    4   18      0.00      0.00
    8    4   18      0.00      0.00
   10    4   18      0.00      0.00
   12    4   18      0.00      0.00
   14    4   18      0.00      0.00
  -27    5   18      0.00      0.00
  -25    5   18      0.00      0.00
  -23    5   18      0.00      0.00
  -21    5   18      0.00      0.00
  -19    5   18      0.00      0.00
  -17    5   18      0.00      0.00
  -15    5   18      0.00      0.00
  -13    5   18      0.00      0.00
  -11    5   18      0.00      0.00
   -9    5   18      0.00      0.00
   -7    5   18      0.00      0.00
   -5    5   18      0.00      0.00
   -3    5   18      0.00      0.00
   -1    5   18      0.00      0.00
    1    5   18      0.00      0.00
    3    5   18      0.00      0.00
    5    5   18      0.00      0.00
    7    5   18      0.00      0.00
    9    5   18      0.00      0.00
   11    5   18      0.00      0.00
   13    5   18      0.00      0.00
  -26    6   18      0.00      0.00
  -24    6   18      0.00      0.00
  -22    6   18      0.00      0.00
  -20    6   18      0.00      0.00
  -18    6   18      0.00      0.00
  -16    6   18      0.00      0.00
  -14    6   18      0.00      0.00
  -12    6   18      0.00      0.00
  -10    6   18      0.00      0.00
   -8    6   18      0.00      0.00
   -6    6   18      0.00      0.00
   -4    6   18      0.00      0.00
   -2    6   18      0.00      0.00
    0    6   18      0.00      0.00
    2    6   18      0.00      0.00
    4    6   18      0.00      0.00
    6    6   18      0.00      0.00
    8    6   18      0.00      0.00
   10    6   18      0.00      0.00
   12    6   18      0.00      0.00
  -25    7   18      0.00      0.00
  -23    7   18      0.00      0.00
  -21    7   18      0.00      0.00
  -19    7   18      0.00      0.00
  -17    7   18      0.00      0.00
  -15    7   18      0.00      0.00
  -13    7   18      0.00      0.00
  -11    7   18      0.00      0.00
   -9    7   18      0.00      0.00
   -7    7   18      0.00      0.00
   -5    7   18      0.00      0.00
   -3    7   18      0.00      0.00
   -1    7   18      0.00      0.00
    1    7   18      0.00      0.00
    3    7   18      0.00      0.00
    5    7   18      0.00      0.00
    7    7   18      0.00      0.00
    9    7   18      0.00      0.00
  -22    8   18      0.00      0.00
  -20    8   18      0.00      0.00
  -18    8   18      0.00      0.00
  -16    8   18      0.00      0.00
  -14    8   18      0.00      0.00
  -12    8   18      0.00      0.00
  -10    8   18      0.00      0.00
   -8    8   18      0.00      0.00
   -6    8   18      0.00      0.00
   -4    8   18      0.00      0.00
   -2    8   18      0.00      0.00
    0    8   18      0.00      0.00
    2    8   18      0.00      0.00
    4    8   18      0.00      0.00
    6    8   18      0.00      0.00
  -17    9   18      0.00      0.00
  -15    9   18      0.00      0.00
  -13    9   18      0.00      0.00
  -11    9   18      0.00      0.00
   -9    9   18      0.00      0.00
   -7    9   18      0.00      0.00
   -5    9   18      0.00      0.00
   -3    9   18      0.00      0.00
   -1    9   18      0.00      0.00
    1    9   18      0.00      0.00
    3    9   18      0.00      0.00
  -12   10   18      0.00      0.00
  -10   10   18      0.00      0.00
   -8   10   18      0.00      0.00
   -6   10   18      0.00      0.00
   -4   10   18      0.00      0.00
  -27    1   19      0.00      0.00
  -25    1   19      0.00      0.00
  -23    1   19      0.00      0.00
  -21    1   19      0.00      0.00
  -19    1   19      0.00      0.00
  -17    1   19      0.00      0.00
  -15    1   19      0.00      0.00
  -13    1   19      0.00      0.00
  -11    1   19      0.00      0.00
   -9    1   19      0.00      0.00
   -7    1   19      0.00      0.00
   -5    1   19      0.00      0.00
   -3    1   19      0.00      0.00
   -1    1   19      0.00      0.00
    1    1   19      0.00      0.00
    3    1   19      0.00      0.00
    5    1   19      0.00      0.00
    7    1   19      0.00      0.00
    9    1   19      0.00      0.00
   11    1   19      0.00      0.00
  -26    2   19      0.00      0.00
  -24    2   19      0.00      0.00
  -22    2   19      0.00      0.00
  -20    2   19      0.00      0.00
  -18    2   19      0.00      0.00
  -16    2   19      0.00      0.00
  -14    2   19      0.00      0.00
  -12    2   19      0.00      0.00
  -10    2   19      0.00      0.00
   -8    2   19      0.00      0.00
   -6    2   19      0.00      0.00
   -4    2   19      0.00      0.00
   -2    2   19      0.00      0.00
    0    2   19      0.00      0.00
    2    2   19      0.00      0.00
    4    2   19      0.00      0.00
    6    2   19      0.00      0.00
    8    2   19      0.00      0.00
   10    2   19      0.00      0.00
   12    2   19      0.00      0.00
  -27    3   19      0.00      0.00
  -25    3   19      0.00      0.00
  -23    3   19      0.00      0.00
  -21    3   19      0.00      0.00
  -19    3   19      0.00      0.00
  -17    3   19      0.00      0.00
  -15    3   19      0.00      0.00
  -13    3   19      0.00      0.00
  -11    3   19      0.00      0.00
   -9    3   19      0.00      0.00
   -7    3   19      0.00      0.00
   -5    3   19      0.00      0.00
   -3    3   19      0.00      0.00
   -1    3   19      0.00      0.00
    1    3   19      0.00      0.00
    3    3   19      0.00      0.00
    5    3   19      0.00      0.00
    7    3   19      0.00      0.00
    9    3   19      0.00      0.00
   11    3   19      0.00      0.00
  -24    4   19      0.00      0.00
  -22    4   19      0.00      0.00
  -20    4   19      0.00      0.00
  -18    4   19      0.00      0.00
  -16    4   19      0.00      0.00
  -14    4   19      0.00      0.00
  -12    4   19      0.00      0.00
  -10    4   19      0.00      0.00
   -8    4   19      0.00      0.00
   -6    4   19      0.00      0.00
   -4    4   19      0.00      0.00
   -2    4   19      0.00      0.00
    0    4   19      0.00      0.00
    2    4   19      0.00      0.00
    4    4   19      0.00      0.00
    6    4   19      0.00      0.00
    8    4   19      0.00      0.00
   10    4   19      0.00      0.00
  -23    5   19      0.00      0.00
  -21    5   19      0.00      0.00
  -19    5   19      0.00      0.00
  -17    5   19      0.00      0.00
  -15    5   19      0.00      0.00
  -13    5   19      0.00      0.00
  -11    5   19      0.00      0.00
   -9    5   19      0.00      0.00
   -7    5   19      0.00      0.00
   -5    5   19      0.00      0.00
   -3    5   19      0.00      0.00
   -1    5   19      0.00      0.00
    1    5   19      0.00      0.00
    3    5   19      0.00      0.00
    5    5   19      0.00      0.00
    7    5   19      0.00      0.00
    9    5   19      0.00      0.00
  -22    6   19      0.00      0.00
  -20    6   19      0.00      0.00
  -18    6   19      0.00      0.00
  -16    6   19      0.00      0.00
  -14    6   19      0.00      0.00
  -12    6   19      0.00      0.00
  -10    6   19      0.00      0.00
   -8    6   19      0.00      0.00
   -6    6   19      0.00      0.00
   -4    6   19      0.00      0.00
   -2    6   19      0.00      0.00
    0    6   19      0.00      0.00
    2    6   19      0.00      0.00
    4    6   19      0.00      0.00
    6    6   19      0.00      0.00
  -19    7   19      0.00      0.00
  -17    7   19      0.00      0.00
  -15    7   19      0.00      0.00
  -13    7   19      0.00      0.00
  -11    7   19      0.00      0.00
   -9    7   19      0.00      0.00
   -7    7   19      0.00      0.00
   -5    7   19      0.00      0.00
   -3    7   19      0.00      0.00
   -1    7   19      0.00      0.00
    1    7   19      0.00      0.00
    3    7   19      0.00      0.00
  -14    8   19      0.00      0.00
  -12    8   19      0.00      0.00
  -10    8   19      0.00      0.00
   -8    8   19      0.00      0.00
   -6    8   19      0.00      0.00
   -4    8   19      0.00      0.00
   -2    8   19      0.00      0.00
    0    8   19      0.00      0.00
  -22    0   20      0.00      0.00
  -20    0   20      0.00      0.00
  -18    0   20      0.00      0.00
  -16    0   20      0.00      0.00
  -14    0   20      0.00      0.00
  -12    0   20      0.00      0.00
  -10    0   20      0.00      0.00
   -8    0   20      0.00      0.00
   -6    0   20      0.00      0.00
   -4    0   20      0.00      0.00
   -2    0   20      0.00      0.00
    0    0   20      0.00      0.00
    2    0   20      0.00      0.00
    4    0   20      0.00      0.00
    6    0   20      0.00      0.00
  -23    1   20      0.00      0.00
  -21    1   20      0.00      0.00
  -19    1   20      0.00      0.00
  -17    1   20      0.00      0.00
  -15    1   20      0.00      0.00
  -13    1   20      0.00      0.00
  -11    1   20      0.00      0.00
   -9    1   20      0.00      0.00
   -7    1   20      0.00      0.00
   -5    1   20      0.00      0.00
   -3    1   20      0.00      0.00
   -1    1   20      0.00      0.00
    1    1   20      0.00      0.00
    3    1   20      0.00      0.00
    5    1   20      0.00      0.00
    7    1   20      0.00      0.00
  -22    2   20      0.00      0.00
  -20    2   20      0.00      0.00
  -18    2   20      0.00      0.00
  -16    2   20      0.00      0.00
  -14    2   20      0.00      0.00
  -12    2   20      0.00      0.00
  -10    2   20      0.00      0.00
   -8    2   20      0.00      0.00
   -6    2   20      0.00      0.00
   -4    2   20      0.00      0.00
   -2    2   20      0.00      0.00
    0    2   20      0.00      0.00
    2    2   20      0.00      0.00
    4    2   20      0.00      0.00
    6    2   20      0.00      0.00
  -21    3   20      0.00      0.00
  -19    3   20      0.00      0.00
  -17    3   20      0.00      0.00
  -15    3   20      0.00      0.00
  -13    3   20      0.00      0.00
  -11    3   20      0.00      0.00
   -9    3   20      0.00      0.00
   -7    3   20      0.00      0.00
   -5    3   20      0.00      0.00
   -3    3   20      0.00      0.00
   -1    3   20      0.00      0.00
    1    3   20      0.00      0.00
    3    3   20      0.00      0.00
    5    3   20      0.00      0.00
  -20    4   20      0.00      0.00
  -18    4   20      0.00      0.00
  -16    4   20      0.00      0.00
  -14    4   20      0.00      0.00
  -12    4   20      0.00      0.00
  -10    4   20      0.00      0.00
   -8    4   20      0.00      0.00
   -6    4   20      0.00      0.00
   -4    4   20      0.00      0.00
   -2    4   20      0.00      0.00
    0    4   20      0.00      0.00
    2    4   20      0.00      0.00
    4    4   20      0.00      0.00
  -17    5   20      0.00      0.00
  -15    5   20      0.00      0.00
  -13    5   20      0.00      0.00
  -11    5   20      0.00      0.00
   -9    5   20      0.00      0.00
   -7    5   20      0.00      0.00
   -5    5   20      0.00      0.00
   -3    5   20      0.00      0.00
   -1    5   20      0.00      0.00
    1    5   20      0.00      0.00
  -14    6   20      0.00      0.00
  -12    6   20      0.00      0.00
  -10    6   20      0.00      0.00
   -8    6   20      0.00      0.00
   -6    6   20      0.00      0.00
   -4    6   20      0.00      0.00
   -2    6   20      0.00      0.00
  -15    1   21      0.00      0.00
  -13    1   21      0.00      0.00
  -11    1   21      0.00      0.00
   -9    1   21      0.00      0.00
   -7    1   21      0.00      0.00
   -5    1   21      0.00      0.00
   -3    1   21      0.00      0.00
  -14    2   21      0.00      0.00
  -12    2   21      0.00      0.00
  -10    2   21      0.00      0.00
   -8    2   21      0.00      0.00
   -6    2   21      0.00      0.00
   -4    2   21      0.00      0.00
  -11    3   21      0.00      0.00
   -9    3   21      0.00      0.00
   -7    3   21      0.00      0.00
    0    0    0      0.00      0.00
# SQUEEZE RESULTS (Version = 230318)
# Note: Data are Listed for all Voids in the P1 Unit Cell
# i.e. Centre of Gravity, Solvent Accessible Volume,
# Recovered number of Electrons in the Void and
# Details about the Squeezed Material
loop_
  _platon_squeeze_void_nr
  _platon_squeeze_void_average_x
  _platon_squeeze_void_average_y
  _platon_squeeze_void_average_z
  _platon_squeeze_void_volume
  _platon_squeeze_void_count_electrons
  _platon_squeeze_void_content
_platon_squeeze_void_probe_radius                  1.20
_platon_squeeze_details
)
TITL k190304_0ma_a.res in C2/c        New: C2/c
CELL   38.3610   15.8528   17.6645     90.00    100.83     90.00
SPGR C2/c
# Solvent Accessible Volume =         0
# Electrons Found in S.A.V. =         0
# Note: Atoms in Void are Labelled as Cxxx and Qxxx for all Others
Q101 0.847 0.309 0.079 !       1.40 eA-3
Q102 0.819 0.159 0.099 !       0.98 eA-3
Q103 0.107 0.309 0.419 !       0.94 eA-3
Q104 0.250 0.250 0.000 !       0.92 eA-3
Q105 0.198 0.218 0.378 !       0.77 eA-3
Q106 0.813 0.265 0.060 !       0.70 eA-3
Q107 0.899 0.372 0.170 !       0.67 eA-3
Q108 0.968 0.374 0.125 !       0.60 eA-3
Q109 0.159 0.233 0.420 !       0.60 eA-3
Q110 0.868 0.290 0.105 !       0.58 eA-3
Q111 0.949 0.391 0.084 !       0.57 eA-3
Q112 0.657 0.200 0.861 !       0.54 eA-3
Q113 0.924 0.394 0.124 !       0.54 eA-3
)
;
_shelx_fab_checksum              34882
loop_
_space_group_symop_operation_xyz
'x, y, z'
'-x, y, -z+1/2'
'x+1/2, y+1/2, z'
'-x+1/2, y+1/2, -z+1/2'
'-x, -y, -z'
'x, -y, z-1/2'
'-x+1/2, -y+1/2, -z'
'x+1/2, -y+1/2, z-1/2'
loop_
_atom_site_label
_atom_site_type_symbol
_atom_site_fract_x
_atom_site_fract_y
_atom_site_fract_z
_atom_site_U_iso_or_equiv
_atom_site_adp_type
_atom_site_occupancy
_atom_site_site_symmetry_order
_atom_site_calc_flag
_atom_site_refinement_flags_posn
_atom_site_refinement_flags_adp
_atom_site_refinement_flags_occupancy
_atom_site_disorder_assembly
_atom_site_disorder_group
Zn1 Zn 0.250000 0.250000 0.000000 0.0429(2) Uani 1 2 d S . P . .
Si1 Si 0.07148(3) 0.09536(8) 0.11276(7) 0.0455(3) Uani 1 1 d . . . . .
O1 O 0.18449(9) 0.2468(2) -0.29790(16) 0.0555(8) Uani 1 1 d . . . . .
O2 O 0.23258(9) -0.0115(2) -0.20383(16) 0.0551(8) Uani 1 1 d . . . . .
O3 O 0.22556(10) 0.3768(2) -0.04957(18) 0.0688(11) Uani 1 1 d . . . . .
N2 N 0.20486(9) 0.1886(2) -0.05262(17) 0.0407(8) Uani 1 1 d . . . . .
N1 N 0.22837(9) 0.2685(2) 0.09670(18) 0.0418(8) Uani 1 1 d . . . . .
C5 C 0.17102(10) 0.1987(3) 0.0524(2) 0.0404(10) Uani 1 1 d . . . . .
C6 C 0.17524(11) 0.1743(3) -0.0218(2) 0.0410(10) Uani 1 1 d . . . . .
C7 C 0.14940(12) 0.1304(3) -0.0773(2) 0.0508(12) Uani 1 1 d . . . . .
H7 H 0.127185 0.112199 -0.070274 0.061 Uiso 1 1 calc R U . . .
C8 C 0.16315(12) 0.1204(3) -0.1413(2) 0.0496(11) Uani 1 1 d . . . . .
H8 H 0.152056 0.095429 -0.187178 0.059 Uiso 1 1 calc R U . . .
C9 C 0.19821(11) 0.1557(3) -0.1255(2) 0.0422(10) Uani 1 1 d . . . . .
C41 C 0.13874(11) 0.1726(3) 0.0754(2) 0.0428(10) Uani 1 1 d . . . . .
C44 C 0.00056(14) 0.1483(4) 0.1187(4) 0.0781(17) Uani 1 1 d . . . . .
H44A H -0.006075 0.110967 0.075572 0.117 Uiso 1 1 calc R U . . .
H44B H -0.000359 0.118465 0.165553 0.117 Uiso 1 1 calc R U . . .
H44C H -0.015561 0.195147 0.113646 0.117 Uiso 1 1 calc R U . . .
C50 C 0.08255(13) -0.0373(3) 0.0118(3) 0.0651(14) Uani 1 1 d . . . . .
H50A H 0.090178 -0.070261 0.057548 0.098 Uiso 1 1 calc R U . . .
H50B H 0.072352 -0.073792 -0.029853 0.098 Uiso 1 1 calc R U . . .
H50C H 0.102550 -0.008219 -0.001275 0.098 Uiso 1 1 calc R U . . .
C51 C 0.04232(13) 0.0802(4) -0.0462(3) 0.0611(13) Uani 1 1 d . . . . .
H51A H 0.024907 0.120390 -0.036841 0.092 Uiso 1 1 calc R U . . .
H51B H 0.062272 0.109378 -0.059362 0.092 Uiso 1 1 calc R U . . .
H51C H 0.032074 0.043805 -0.087939 0.092 Uiso 1 1 calc R U . . .
C13 C 0.17703(12) 0.1266(3) -0.3859(2) 0.0512(12) Uani 1 1 d . . . . .
H13 H 0.164172 0.158349 -0.425954 0.061 Uiso 1 1 calc R U . . .
C14 C 0.18363(13) 0.0432(3) -0.3968(2) 0.0525(12) Uani 1 1 d . . . . .
H14 H 0.175358 0.018815 -0.444670 0.063 Uiso 1 1 calc R U . . .
C17 C 0.16308(14) 0.2962(3) -0.3560(3) 0.0600(13) Uani 1 1 d . . . . .
H17A H 0.139644 0.271380 -0.369992 0.072 Uiso 1 1 calc R U . . .
H17B H 0.173699 0.298283 -0.401631 0.072 Uiso 1 1 calc R U . . .
C18 C 0.16032(15) 0.3842(3) -0.3247(3) 0.0631(14) Uani 1 1 d . . . . .
H18A H 0.183884 0.408249 -0.310475 0.076 Uiso 1 1 calc R U . . .
H18B H 0.150000 0.381311 -0.278624 0.076 Uiso 1 1 calc R U . . .
C20 C 0.13691(18) 0.5318(4) -0.3579(3) 0.0813(18) Uani 1 1 d . . . . .
H20A H 0.160551 0.555256 -0.353645 0.098 Uiso 1 1 calc R U . . .
H20B H 0.130879 0.533015 -0.306984 0.098 Uiso 1 1 calc R U . . .
C22 C 0.11872(16) 0.5980(4) -0.4923(3) 0.0738(16) Uani 1 1 d . . . . .
H22A H 0.141855 0.624085 -0.488657 0.089 Uiso 1 1 calc R U . . .
H22B H 0.119713 0.542727 -0.515388 0.089 Uiso 1 1 calc R U . . .
C24 C 0.09800(17) 0.6608(4) -0.6256(3) 0.0779(17) Uani 1 1 d . . . . .
H24A H 0.101622 0.605345 -0.645973 0.094 Uiso 1 1 calc R U . . .
H24B H 0.119667 0.692883 -0.624006 0.094 Uiso 1 1 calc R U . . .
C25 C 0.06779(19) 0.7048(4) -0.6802(4) 0.089(2) Uani 1 1 d . . . . .
H25A H 0.046061 0.673173 -0.681152 0.107 Uiso 1 1 calc R U . . .
H25B H 0.064420 0.760544 -0.660218 0.107 Uiso 1 1 calc R U . . .
C28 C 0.0485(3) 0.7518(6) -0.9001(5) 0.146(4) Uani 1 1 d . . . . .
H28A H 0.027608 0.773308 -0.933045 0.220 Uiso 1 1 calc R U . . .
H28B H 0.068150 0.788661 -0.902066 0.220 Uiso 1 1 calc R U . . .
H28C H 0.053695 0.696495 -0.917131 0.220 Uiso 1 1 calc R U . . .
C29 C 0.23456(15) -0.1009(3) -0.2087(3) 0.0612(13) Uani 1 1 d . . . . .
H29A H 0.251956 -0.117066 -0.239447 0.073 Uiso 1 1 calc R U . . .
H29B H 0.211704 -0.123941 -0.232630 0.073 Uiso 1 1 calc R U . . .
C30 C 0.24530(16) -0.1337(3) -0.1275(3) 0.0688(15) Uani 1 1 d . . . . .
H30A H 0.266048 -0.102978 -0.101847 0.083 Uiso 1 1 calc R U . . .
H30B H 0.251867 -0.192673 -0.129455 0.083 Uiso 1 1 calc R U . . .
C32 C 0.1847(3) -0.1830(8) -0.1053(5) 0.205(7) Uani 1 1 d . . . . .
H32A H 0.164297 -0.146599 -0.106576 0.246 Uiso 1 1 calc R U . . .
H32B H 0.185229 -0.196072 -0.158761 0.246 Uiso 1 1 calc R U . . .
C33 C 0.1768(4) -0.2457(6) -0.0799(4) 0.183(6) Uani 1 1 d . . . . .
H33A H 0.172300 -0.233982 -0.028709 0.219 Uiso 1 1 calc R U . . .
H33B H 0.197082 -0.283155 -0.073917 0.219 Uiso 1 1 calc R U . . .
C34 C 0.1372(2) -0.3050(6) -0.1342(7) 0.149(4) Uani 1 1 d . . . . .
H34A H 0.124301 -0.272984 -0.177360 0.178 Uiso 1 1 calc R U . . .
H34B H 0.143599 -0.359875 -0.151717 0.178 Uiso 1 1 calc R U . . .
C35 C 0.1214(9) -0.3099(7) -0.0821(6) 0.50(3) Uani 1 1 d . . . . .
H35A H 0.113053 -0.255719 -0.067368 0.597 Uiso 1 1 calc R U . . .
H35B H 0.134800 -0.338636 -0.037455 0.597 Uiso 1 1 calc R U . . .
C36 C 0.0869(4) -0.3734(7) -0.1354(8) 0.234(11) Uani 1 1 d . . . . .
H36A H 0.079009 -0.346597 -0.184976 0.280 Uiso 1 1 calc R U . . .
H36B H 0.097199 -0.427275 -0.145151 0.280 Uiso 1 1 calc R U . . .
C1 C 0.24370(11) 0.3105(3) 0.1631(2) 0.0392(9) Uani 1 1 d . . . . .
C2 C 0.21947(11) 0.3121(3) 0.2153(2) 0.0417(10) Uani 1 1 d . . . . .
H2 H 0.223478 0.336390 0.264117 0.050 Uiso 1 1 calc R U . . .
C3 C 0.18965(11) 0.2717(3) 0.1809(2) 0.0428(10) Uani 1 1 d . . . . .
H3 H 0.169272 0.263008 0.201286 0.051 Uiso 1 1 calc R U . . .
C4 C 0.19564(10) 0.2449(3) 0.1068(2) 0.0375(9) Uani 1 1 d . . . . .
C42 C 0.11184(12) 0.1461(3) 0.0931(2) 0.0475(11) Uani 1 1 d . . . . .
C43 C 0.03843(13) 0.1807(3) 0.1207(3) 0.0583(12) Uani 1 1 d . . . . .
H43 H 0.037162 0.215410 0.074289 0.070 Uiso 1 1 calc R U . . .
C45 C 0.05001(17) 0.2406(4) 0.1888(4) 0.0785(17) Uani 1 1 d . . . . .
H45A H 0.073721 0.260029 0.188812 0.118 Uiso 1 1 calc R U . . .
H45B H 0.034186 0.288047 0.184203 0.118 Uiso 1 1 calc R U . . .
H45C H 0.049388 0.211365 0.236110 0.118 Uiso 1 1 calc R U . . .
C49 C 0.05459(12) 0.0274(3) 0.0264(3) 0.0510(11) Uani 1 1 d . . . . .
H49 H 0.034009 -0.003960 0.036941 0.061 Uiso 1 1 calc R U . . .
C46 C 0.08502(16) 0.0285(3) 0.2015(3) 0.0677(15) Uani 1 1 d . . . . .
H46 H 0.099026 -0.017821 0.185881 0.081 Uiso 1 1 calc R U . . .
C47 C 0.0540(2) -0.0132(5) 0.2291(4) 0.117(3) Uani 1 1 d . . . . .
H47A H 0.039041 -0.040584 0.186546 0.176 Uiso 1 1 calc R U . . .
H47B H 0.062786 -0.054145 0.268088 0.176 Uiso 1 1 calc R U . . .
H47C H 0.040539 0.028851 0.250268 0.176 Uiso 1 1 calc R U . . .
C48 C 0.1094(2) 0.0726(4) 0.2665(3) 0.095(2) Uani 1 1 d . . . . .
H48A H 0.128630 0.098219 0.247209 0.143 Uiso 1 1 calc R U . . .
H48B H 0.096360 0.115316 0.287919 0.143 Uiso 1 1 calc R U . . .
H48C H 0.118607 0.032319 0.305740 0.143 Uiso 1 1 calc R U . . .
C10 C 0.22183(11) 0.1563(3) -0.1770(2) 0.0406(10) Uani 1 1 d . . . . .
C11 C 0.20888(10) 0.1165(3) -0.2542(2) 0.0392(9) Uani 1 1 d . . . . .
C12 C 0.18967(11) 0.1641(3) -0.3146(2) 0.0447(10) Uani 1 1 d . . . . .
C15 C 0.20230(13) -0.0054(3) -0.3382(2) 0.0520(12) Uani 1 1 d . . . . .
H15 H 0.206616 -0.062067 -0.346357 0.062 Uiso 1 1 calc R U . . .
C16 C 0.21463(11) 0.0315(3) -0.2664(2) 0.0445(10) Uani 1 1 d . . . . .
C19 C 0.13754(16) 0.4408(3) -0.3839(3) 0.0685(15) Uani 1 1 d . . . . .
H19A H 0.146550 0.438670 -0.431662 0.082 Uiso 1 1 calc R U . . .
H19B H 0.113456 0.419153 -0.394357 0.082 Uiso 1 1 calc R U . . .
C21 C 0.11073(19) 0.5876(4) -0.4117(3) 0.087(2) Uani 1 1 d . . . . .
H21A H 0.087128 0.563909 -0.415985 0.105 Uiso 1 1 calc R U . . .
H21B H 0.110494 0.643020 -0.388448 0.105 Uiso 1 1 calc R U . . .
C23 C 0.09119(17) 0.6514(4) -0.5445(3) 0.0802(18) Uani 1 1 d . . . . .
H23A H 0.068003 0.626017 -0.546746 0.096 Uiso 1 1 calc R U . . .
H23B H 0.090657 0.706977 -0.521794 0.096 Uiso 1 1 calc R U . . .
C26 C 0.0741(2) 0.7133(4) -0.7615(4) 0.094(2) Uani 1 1 d . . . . .
H26A H 0.080469 0.658471 -0.779308 0.113 Uiso 1 1 calc R U . . .
H26B H 0.094071 0.750878 -0.761543 0.113 Uiso 1 1 calc R U . . .
C27 C 0.0421(2) 0.7469(5) -0.8174(4) 0.112(3) Uani 1 1 d . . . . .
H27A H 0.036388 0.802711 -0.800930 0.135 Uiso 1 1 calc R U . . .
H27B H 0.021933 0.710542 -0.815996 0.135 Uiso 1 1 calc R U . . .
C31 C 0.21626(17) -0.1255(5) -0.0807(3) 0.087(2) Uani 1 1 d . . . . .
H31A H 0.226337 -0.137059 -0.027150 0.104 Uiso 1 1 calc R U . . .
H31B H 0.207963 -0.067591 -0.083879 0.104 Uiso 1 1 calc R U . . .
C37 C 0.0536(8) -0.3917(10) -0.1005(10) 0.331(18) Uani 1 1 d . . . . .
H37A H 0.061714 -0.409087 -0.047496 0.397 Uiso 1 1 calc R U . . .
H37B H 0.041101 -0.338685 -0.099008 0.397 Uiso 1 1 calc R U . . .
C38 C 0.0302(4) -0.4476(9) -0.1327(10) 0.197(6) Uani 1 1 d . . . . .
H38A H 0.044332 -0.496230 -0.141214 0.236 Uiso 1 1 calc R U . . .
H38B H 0.021066 -0.424752 -0.183533 0.236 Uiso 1 1 calc R U . . .
C52 C 0.20346(15) 0.3858(4) -0.1205(3) 0.0671(15) Uani 1 1 d . . . . .
H52A H 0.181392 0.355710 -0.121056 0.080 Uiso 1 1 calc R U . . .
H52B H 0.214726 0.362818 -0.160764 0.080 Uiso 1 1 calc R U . . .
C53 C 0.19633(17) 0.4771(4) -0.1339(3) 0.0756(17) Uani 1 1 d . . . . .
H53A H 0.170997 0.488071 -0.144452 0.091 Uiso 1 1 calc R U . . .
H53B H 0.206361 0.496957 -0.177130 0.091 Uiso 1 1 calc R U . . .
C54 C 0.2137(2) 0.5198(4) -0.0610(3) 0.089(2) Uani 1 1 d . . . . .
H54A H 0.231516 0.559539 -0.071021 0.107 Uiso 1 1 calc R U . . .
H54B H 0.196273 0.549953 -0.038073 0.107 Uiso 1 1 calc R U . . .
C55 C 0.23015(19) 0.4524(3) -0.0095(3) 0.0804(19) Uani 1 1 d . . . . .
H55A H 0.255247 0.463839 0.007439 0.097 Uiso 1 1 calc R U . . .
H55B H 0.219148 0.449370 0.035546 0.097 Uiso 1 1 calc R U . . .
C39 C -0.0047(4) -0.4876(10) -0.1046(9) 0.207(6) Uiso 1 1 d . . . . .
H39A H 0.003543 -0.529002 -0.064846 0.248 Uiso 1 1 calc R U . . .
H39B H -0.016136 -0.442785 -0.081017 0.248 Uiso 1 1 calc R U . . .
C40 C -0.0286(6) -0.5235(16) -0.1569(13) 0.360(13) Uiso 1 1 d . . . . .
H40A H -0.047581 -0.544232 -0.133353 0.540 Uiso 1 1 calc R U . . .
H40B H -0.037878 -0.483033 -0.195962 0.540 Uiso 1 1 calc R U . . .
H40C H -0.018121 -0.569586 -0.179727 0.540 Uiso 1 1 calc R U . . .
loop_
_atom_site_aniso_label
_atom_site_aniso_U_11
_atom_site_aniso_U_22
_atom_site_aniso_U_33
_atom_site_aniso_U_23
_atom_site_aniso_U_13
_atom_site_aniso_U_12
Zn1 0.0463(4) 0.0529(4) 0.0251(3) 0.0020(3) -0.0048(3) -0.0230(3)
Si1 0.0467(7) 0.0518(7) 0.0384(6) -0.0020(5) 0.0090(5) -0.0175(6)
O1 0.077(2) 0.0508(19) 0.0293(15) -0.0021(13) -0.0155(14) -0.0102(16)
O2 0.071(2) 0.0516(19) 0.0353(16) 0.0018(14) -0.0100(14) -0.0137(16)
O3 0.100(3) 0.0488(19) 0.0414(18) 0.0026(15) -0.0284(17) -0.0105(18)
N2 0.0451(19) 0.048(2) 0.0247(16) 0.0048(14) -0.0038(14) -0.0164(16)
N1 0.0441(19) 0.050(2) 0.0251(16) 0.0038(14) -0.0080(14) -0.0198(16)
C5 0.036(2) 0.046(2) 0.035(2) 0.0071(18) -0.0039(16) -0.0172(18)
C6 0.047(2) 0.044(2) 0.028(2) 0.0060(17) -0.0029(17) -0.0181(19)
C7 0.043(2) 0.069(3) 0.036(2) -0.002(2) -0.0031(18) -0.031(2)
C8 0.052(3) 0.062(3) 0.029(2) 0.000(2) -0.0061(18) -0.030(2)
C9 0.045(2) 0.050(2) 0.0267(19) 0.0010(17) -0.0073(17) -0.0226(19)
C41 0.045(2) 0.047(2) 0.033(2) -0.0002(18) -0.0040(18) -0.014(2)
C44 0.050(3) 0.089(4) 0.099(4) -0.024(4) 0.025(3) -0.011(3)
C50 0.058(3) 0.072(4) 0.066(3) -0.018(3) 0.015(3) -0.010(3)
C51 0.055(3) 0.081(4) 0.045(3) -0.007(2) 0.002(2) -0.018(3)
C13 0.056(3) 0.064(3) 0.027(2) -0.001(2) -0.0088(19) -0.016(2)
C14 0.063(3) 0.064(3) 0.027(2) -0.006(2) -0.0010(19) -0.020(2)
C17 0.075(3) 0.061(3) 0.034(2) 0.000(2) -0.016(2) -0.006(3)
C18 0.079(4) 0.062(3) 0.040(3) -0.004(2) -0.012(2) -0.003(3)
C20 0.111(5) 0.067(4) 0.056(3) -0.013(3) -0.009(3) 0.002(3)
C22 0.088(4) 0.058(3) 0.065(3) -0.010(3) -0.011(3) 0.009(3)
C24 0.090(4) 0.063(3) 0.070(4) -0.006(3) -0.013(3) 0.013(3)
C25 0.103(5) 0.072(4) 0.080(4) -0.008(3) -0.014(4) 0.029(4)
C28 0.174(9) 0.148(8) 0.103(7) 0.046(6) -0.012(6) 0.047(7)
C29 0.082(4) 0.055(3) 0.042(3) -0.003(2) 0.003(2) 0.001(3)
C30 0.097(4) 0.053(3) 0.047(3) -0.001(2) -0.010(3) -0.002(3)
C32 0.191(10) 0.274(13) 0.102(6) 0.121(8) -0.094(6) -0.167(10)
C33 0.332(16) 0.146(8) 0.070(5) -0.012(5) 0.039(7) -0.173(10)
C34 0.135(7) 0.137(8) 0.203(11) 0.087(8) 0.105(8) 0.031(6)
C35 1.37(8) 0.075(7) 0.083(7) 0.021(6) 0.21(2) 0.02(2)
C36 0.272(16) 0.110(8) 0.225(15) 0.105(9) -0.194(14) -0.118(10)
C1 0.044(2) 0.043(2) 0.0259(19) 0.0063(17) -0.0060(16) -0.0160(18)
C2 0.047(2) 0.047(2) 0.028(2) 0.0008(17) -0.0020(17) -0.0121(19)
C3 0.041(2) 0.049(3) 0.036(2) 0.0005(18) 0.0015(17) -0.0112(19)
C4 0.040(2) 0.040(2) 0.0281(19) 0.0046(17) -0.0042(16) -0.0112(18)
C42 0.049(3) 0.055(3) 0.035(2) -0.001(2) -0.0012(19) -0.014(2)
C43 0.054(3) 0.064(3) 0.057(3) -0.009(2) 0.012(2) -0.015(2)
C45 0.084(4) 0.071(4) 0.081(4) -0.023(3) 0.015(3) -0.007(3)
C49 0.043(2) 0.060(3) 0.050(3) -0.004(2) 0.009(2) -0.020(2)
C46 0.103(4) 0.053(3) 0.048(3) 0.000(2) 0.017(3) -0.011(3)
C47 0.146(7) 0.125(6) 0.087(5) 0.039(5) 0.041(5) -0.046(5)
C48 0.131(6) 0.079(4) 0.061(4) 0.011(3) -0.019(4) 0.006(4)
C10 0.049(2) 0.044(2) 0.0239(19) 0.0047(17) -0.0064(17) -0.0164(19)
C11 0.042(2) 0.046(2) 0.0266(19) 0.0008(17) -0.0015(16) -0.0217(18)
C12 0.049(2) 0.053(3) 0.028(2) -0.0010(18) -0.0052(17) -0.016(2)
C15 0.065(3) 0.055(3) 0.033(2) -0.005(2) 0.001(2) -0.018(2)
C16 0.048(2) 0.054(3) 0.028(2) 0.0004(18) -0.0005(17) -0.017(2)
C19 0.090(4) 0.058(3) 0.047(3) -0.008(2) -0.012(3) -0.002(3)
C21 0.116(5) 0.068(4) 0.070(4) -0.016(3) -0.004(4) 0.022(4)
C23 0.088(4) 0.064(4) 0.077(4) -0.014(3) -0.013(3) 0.016(3)
C26 0.110(5) 0.079(4) 0.082(5) 0.003(4) -0.010(4) 0.028(4)
C27 0.128(6) 0.104(6) 0.091(5) 0.005(4) -0.015(5) 0.045(5)
C31 0.091(4) 0.124(5) 0.038(3) 0.015(3) -0.010(3) -0.043(4)
C37 0.62(5) 0.117(13) 0.172(15) -0.038(11) -0.13(2) 0.088(19)
C38 0.196(13) 0.135(10) 0.260(18) -0.021(11) 0.045(12) 0.004(10)
C52 0.080(4) 0.072(4) 0.040(3) 0.002(2) -0.014(2) -0.003(3)
C53 0.094(4) 0.067(4) 0.053(3) 0.007(3) -0.018(3) 0.000(3)
C54 0.128(6) 0.065(4) 0.059(3) 0.002(3) -0.021(3) -0.003(4)
C55 0.124(5) 0.052(3) 0.051(3) -0.007(2) -0.022(3) -0.012(3)
loop_
_atom_type_symbol
_atom_type_description
_atom_type_scat_dispersion_real
_atom_type_scat_dispersion_imag
_atom_type_scat_source
C C 0.0033 0.0016 'International Tables Vol C Tables 4.2.6.8 and 6.1.1.4'
H H 0.0000 0.0000 'International Tables Vol C Tables 4.2.6.8 and 6.1.1.4'
N N 0.0061 0.0033 'International Tables Vol C Tables 4.2.6.8 and 6.1.1.4'
O O 0.0106 0.0060 'International Tables Vol C Tables 4.2.6.8 and 6.1.1.4'
Si Si 0.0817 0.0704 'International Tables Vol C Tables 4.2.6.8 and 6.1.1.4'
Zn Zn 0.2839 1.4301 'International Tables Vol C Tables 4.2.6.8 and 6.1.1.4'
loop_
_geom_angle_atom_site_label_1
_geom_angle_atom_site_label_2
_geom_angle_atom_site_label_3
_geom_angle
_geom_angle_site_symmetry_1
_geom_angle_site_symmetry_3
_geom_angle_publ_flag
N2 Zn1 N2 180.0 . 7 ?
N2 Zn1 N1 90.34(13) . . ?
N2 Zn1 N1 89.66(13) 7 . ?
N2 Zn1 N1 89.66(13) . 7 ?
N2 Zn1 N1 90.34(13) 7 7 ?
N1 Zn1 N1 180.0 . 7 ?
N2 Zn1 O3 89.63(13) . . ?
N2 Zn1 O3 90.37(13) 7 . ?
N1 Zn1 O3 89.57(14) . . ?
N1 Zn1 O3 90.43(14) 7 . ?
N2 Zn1 O3 90.36(13) . 7 ?
N2 Zn1 O3 89.63(13) 7 7 ?
N1 Zn1 O3 90.42(14) . 7 ?
N1 Zn1 O3 89.57(14) 7 7 ?
O3 Zn1 O3 180.0 . 7 ?
C42 Si1 C43 107.7(2) . . ?
C42 Si1 C49 105.8(2) . . ?
C43 Si1 C49 109.8(2) . . ?
C42 Si1 C46 107.1(2) . . ?
C43 Si1 C46 115.4(3) . . ?
C49 Si1 C46 110.6(2) . . ?
C12 O1 C17 117.4(3) . . ?
C16 O2 C29 118.1(3) . . ?
C52 O3 C55 111.8(4) . . ?
C52 O3 Zn1 124.6(3) . . ?
C55 O3 Zn1 123.6(3) . . ?
C9 N2 C6 106.9(3) . . ?
C9 N2 Zn1 126.9(3) . . ?
C6 N2 Zn1 126.3(3) . . ?
C4 N1 C1 106.2(3) . . ?
C4 N1 Zn1 126.8(3) . . ?
C1 N1 Zn1 126.9(3) . . ?
C6 C5 C4 126.5(4) . . ?
C6 C5 C41 116.2(3) . . ?
C4 C5 C41 117.3(4) . . ?
N2 C6 C5 125.2(3) . . ?
N2 C6 C7 109.0(4) . . ?
C5 C6 C7 125.8(4) . . ?
C8 C7 C6 107.6(4) . . ?
C8 C7 H7 126.2 . . ?
C6 C7 H7 126.2 . . ?
C7 C8 C9 107.0(4) . . ?
C7 C8 H8 126.5 . . ?
C9 C8 H8 126.5 . . ?
N2 C9 C10 125.5(3) . . ?
N2 C9 C8 109.6(4) . . ?
C10 C9 C8 125.0(4) . . ?
C42 C41 C5 176.2(5) . . ?
C43 C44 H44A 109.5 . . ?
C43 C44 H44B 109.5 . . ?
H44A C44 H44B 109.5 . . ?
C43 C44 H44C 109.5 . . ?
H44A C44 H44C 109.5 . . ?
H44B C44 H44C 109.5 . . ?
C49 C50 H50A 109.5 . . ?
C49 C50 H50B 109.5 . . ?
H50A C50 H50B 109.5 . . ?
C49 C50 H50C 109.5 . . ?
H50A C50 H50C 109.5 . . ?
H50B C50 H50C 109.5 . . ?
C49 C51 H51A 109.5 . . ?
C49 C51 H51B 109.5 . . ?
H51A C51 H51B 109.5 . . ?
C49 C51 H51C 109.5 . . ?
H51A C51 H51C 109.5 . . ?
H51B C51 H51C 109.5 . . ?
C14 C13 C12 119.8(4) . . ?
C14 C13 H13 120.1 . . ?
C12 C13 H13 120.1 . . ?
C13 C14 C15 121.3(4) . . ?
C13 C14 H14 119.4 . . ?
C15 C14 H14 119.4 . . ?
O1 C17 C18 108.4(3) . . ?
O1 C17 H17A 110.0 . . ?
C18 C17 H17A 110.0 . . ?
O1 C17 H17B 110.0 . . ?
C18 C17 H17B 110.0 . . ?
H17A C17 H17B 108.4 . . ?
C17 C18 C19 111.3(4) . . ?
C17 C18 H18A 109.4 . . ?
C19 C18 H18A 109.4 . . ?
C17 C18 H18B 109.4 . . ?
C19 C18 H18B 109.4 . . ?
H18A C18 H18B 108.0 . . ?
C19 C20 C21 114.1(5) . . ?
C19 C20 H20A 108.7 . . ?
C21 C20 H20A 108.7 . . ?
C19 C20 H20B 108.7 . . ?
C21 C20 H20B 108.7 . . ?
H20A C20 H20B 107.6 . . ?
C23 C22 C21 112.8(5) . . ?
C23 C22 H22A 109.0 . . ?
C21 C22 H22A 109.0 . . ?
C23 C22 H22B 109.0 . . ?
C21 C22 H22B 109.0 . . ?
H22A C22 H22B 107.8 . . ?
C23 C24 C25 113.4(5) . . ?
C23 C24 H24A 108.9 . . ?
C25 C24 H24A 108.9 . . ?
C23 C24 H24B 108.9 . . ?
C25 C24 H24B 108.9 . . ?
H24A C24 H24B 107.7 . . ?
C26 C25 C24 113.8(6) . . ?
C26 C25 H25A 108.8 . . ?
C24 C25 H25A 108.8 . . ?
C26 C25 H25B 108.8 . . ?
C24 C25 H25B 108.8 . . ?
H25A C25 H25B 107.7 . . ?
C27 C28 H28A 109.5 . . ?
C27 C28 H28B 109.5 . . ?
H28A C28 H28B 109.5 . . ?
C27 C28 H28C 109.5 . . ?
H28A C28 H28C 109.5 . . ?
H28B C28 H28C 109.5 . . ?
O2 C29 C30 107.1(4) . . ?
O2 C29 H29A 110.3 . . ?
C30 C29 H29A 110.3 . . ?
O2 C29 H29B 110.3 . . ?
C30 C29 H29B 110.3 . . ?
H29A C29 H29B 108.6 . . ?
C29 C30 C31 113.1(5) . . ?
C29 C30 H30A 109.0 . . ?
C31 C30 H30A 109.0 . . ?
C29 C30 H30B 109.0 . . ?
C31 C30 H30B 109.0 . . ?
H30A C30 H30B 107.8 . . ?
C33 C32 C31 131.5(8) . . ?
C33 C32 H32A 104.4 . . ?
C31 C32 H32A 104.4 . . ?
C33 C32 H32B 104.4 . . ?
C31 C32 H32B 104.4 . . ?
H32A C32 H32B 105.6 . . ?
C32 C33 C34 118.5(9) . . ?
C32 C33 H33A 107.7 . . ?
C34 C33 H33A 107.7 . . ?
C32 C33 H33B 107.7 . . ?
C34 C33 H33B 107.7 . . ?
H33A C33 H33B 107.1 . . ?
C35 C34 C33 96.7(17) . . ?
C35 C34 H34A 112.4 . . ?
C33 C34 H34A 112.4 . . ?
C35 C34 H34B 112.4 . . ?
C33 C34 H34B 112.4 . . ?
H34A C34 H34B 110.0 . . ?
C34 C35 C36 93.7(12) . . ?
C34 C35 H35A 113.0 . . ?
C36 C35 H35A 113.0 . . ?
C34 C35 H35B 113.0 . . ?
C36 C35 H35B 113.0 . . ?
H35A C35 H35B 110.4 . . ?
C37 C36 C35 118.9(15) . . ?
C37 C36 H36A 107.6 . . ?
C35 C36 H36A 107.6 . . ?
C37 C36 H36B 107.6 . . ?
C35 C36 H36B 107.6 . . ?
H36A C36 H36B 107.0 . . ?
N1 C1 C10 124.6(4) . 7 ?
N1 C1 C2 109.4(3) . . ?
C10 C1 C2 125.9(4) 7 . ?
C3 C2 C1 107.4(4) . . ?
C3 C2 H2 126.3 . . ?
C1 C2 H2 126.3 . . ?
C2 C3 C4 106.5(4) . . ?
C2 C3 H3 126.8 . . ?
C4 C3 H3 126.8 . . ?
N1 C4 C5 124.8(4) . . ?
N1 C4 C3 110.4(3) . . ?
C5 C4 C3 124.8(4) . . ?
C41 C42 Si1 173.4(4) . . ?
C45 C43 C44 111.0(4) . . ?
C45 C43 Si1 113.9(4) . . ?
C44 C43 Si1 114.0(4) . . ?
C45 C43 H43 105.7 . . ?
C44 C43 H43 105.7 . . ?
Si1 C43 H43 105.7 . . ?
C43 C45 H45A 109.5 . . ?
C43 C45 H45B 109.5 . . ?
H45A C45 H45B 109.5 . . ?
C43 C45 H45C 109.5 . . ?
H45A C45 H45C 109.5 . . ?
H45B C45 H45C 109.5 . . ?
C51 C49 C50 109.8(4) . . ?
C51 C49 Si1 111.8(3) . . ?
C50 C49 Si1 111.9(3) . . ?
C51 C49 H49 107.7 . . ?
C50 C49 H49 107.7 . . ?
Si1 C49 H49 107.7 . . ?
C48 C46 C47 111.5(5) . . ?
C48 C46 Si1 114.1(4) . . ?
C47 C46 Si1 113.7(5) . . ?
C48 C46 H46 105.5 . . ?
C47 C46 H46 105.5 . . ?
Si1 C46 H46 105.5 . . ?
C46 C47 H47A 109.5 . . ?
C46 C47 H47B 109.5 . . ?
H47A C47 H47B 109.5 . . ?
C46 C47 H47C 109.5 . . ?
H47A C47 H47C 109.5 . . ?
H47B C47 H47C 109.5 . . ?
C46 C48 H48A 109.5 . . ?
C46 C48 H48B 109.5 . . ?
H48A C48 H48B 109.5 . . ?
C46 C48 H48C 109.5 . . ?
H48A C48 H48C 109.5 . . ?
H48B C48 H48C 109.5 . . ?
C9 C10 C1 126.3(4) . 7 ?
C9 C10 C11 116.4(3) . . ?
C1 C10 C11 117.3(4) 7 . ?
C16 C11 C12 118.7(4) . . ?
C16 C11 C10 121.0(4) . . ?
C12 C11 C10 120.2(4) . . ?
O1 C12 C13 124.3(4) . . ?
O1 C12 C11 115.5(3) . . ?
C13 C12 C11 120.2(4) . . ?
C14 C15 C16 119.2(5) . . ?
C14 C15 H15 120.4 . . ?
C16 C15 H15 120.4 . . ?
O2 C16 C11 115.3(3) . . ?
O2 C16 C15 123.9(4) . . ?
C11 C16 C15 120.8(4) . . ?
C20 C19 C18 113.1(4) . . ?
C20 C19 H19A 109.0 . . ?
C18 C19 H19A 109.0 . . ?
C20 C19 H19B 109.0 . . ?
C18 C19 H19B 109.0 . . ?
H19A C19 H19B 107.8 . . ?
C22 C21 C20 114.8(5) . . ?
C22 C21 H21A 108.6 . . ?
C20 C21 H21A 108.6 . . ?
C22 C21 H21B 108.6 . . ?
C20 C21 H21B 108.6 . . ?
H21A C21 H21B 107.5 . . ?
C24 C23 C22 113.9(5) . . ?
C24 C23 H23A 108.8 . . ?
C22 C23 H23A 108.8 . . ?
C24 C23 H23B 108.8 . . ?
C22 C23 H23B 108.8 . . ?
H23A C23 H23B 107.7 . . ?
C25 C26 C27 113.3(6) . . ?
C25 C26 H26A 108.9 . . ?
C27 C26 H26A 108.9 . . ?
C25 C26 H26B 108.9 . . ?
C27 C26 H26B 108.9 . . ?
H26A C26 H26B 107.7 . . ?
C26 C27 C28 112.6(7) . . ?
C26 C27 H27A 109.1 . . ?
C28 C27 H27A 109.1 . . ?
C26 C27 H27B 109.1 . . ?
C28 C27 H27B 109.1 . . ?
H27A C27 H27B 107.8 . . ?
C32 C31 C30 115.0(7) . . ?
C32 C31 H31A 108.5 . . ?
C30 C31 H31A 108.5 . . ?
C32 C31 H31B 108.5 . . ?
C30 C31 H31B 108.5 . . ?
H31A C31 H31B 107.5 . . ?
C38 C37 C36 120.1(18) . . ?
C38 C37 H37A 107.3 . . ?
C36 C37 H37A 107.3 . . ?
C38 C37 H37B 107.3 . . ?
C36 C37 H37B 107.3 . . ?
H37A C37 H37B 106.9 . . ?
C37 C38 C39 131(2) . . ?
C37 C38 H38A 104.4 . . ?
C39 C38 H38A 104.4 . . ?
C37 C38 H38B 104.4 . . ?
C39 C38 H38B 104.4 . . ?
H38A C38 H38B 105.6 . . ?
O3 C52 C53 107.9(4) . . ?
O3 C52 H52A 110.1 . . ?
C53 C52 H52A 110.1 . . ?
O3 C52 H52B 110.1 . . ?
C53 C52 H52B 110.1 . . ?
H52A C52 H52B 108.4 . . ?
C52 C53 C54 105.4(4) . . ?
C52 C53 H53A 110.7 . . ?
C54 C53 H53A 110.7 . . ?
C52 C53 H53B 110.7 . . ?
C54 C53 H53B 110.7 . . ?
H53A C53 H53B 108.8 . . ?
C55 C54 C53 105.9(5) . . ?
C55 C54 H54A 110.5 . . ?
C53 C54 H54A 110.5 . . ?
C55 C54 H54B 110.5 . . ?
C53 C54 H54B 110.5 . . ?
H54A C54 H54B 108.7 . . ?
O3 C55 C54 108.4(4) . . ?
O3 C55 H55A 110.0 . . ?
C54 C55 H55A 110.0 . . ?
O3 C55 H55B 110.0 . . ?
C54 C55 H55B 110.0 . . ?
H55A C55 H55B 108.4 . . ?
C40 C39 C38 117.5(18) . . ?
C40 C39 H39A 107.9 . . ?
C38 C39 H39A 107.9 . . ?
C40 C39 H39B 107.9 . . ?
C38 C39 H39B 107.9 . . ?
H39A C39 H39B 107.2 . . ?
C39 C40 H40A 109.5 . . ?
C39 C40 H40B 109.5 . . ?
H40A C40 H40B 109.5 . . ?
C39 C40 H40C 109.5 . . ?
H40A C40 H40C 109.5 . . ?
H40B C40 H40C 109.5 . . ?
loop_
_geom_bond_atom_site_label_1
_geom_bond_atom_site_label_2
_geom_bond_distance
_geom_bond_site_symmetry_2
_geom_bond_publ_flag
Zn1 N2 2.051(3) . ?
Zn1 N2 2.051(3) 7 ?
Zn1 N1 2.056(3) . ?
Zn1 N1 2.056(3) 7 ?
Zn1 O3 2.319(3) . ?
Zn1 O3 2.319(3) 7 ?
Si1 C42 1.835(5) . ?
Si1 C43 1.877(5) . ?
Si1 C49 1.880(5) . ?
Si1 C46 1.882(5) . ?
O1 C12 1.366(5) . ?
O1 C17 1.423(5) . ?
O2 C16 1.370(5) . ?
O2 C29 1.424(6) . ?
O3 C52 1.382(5) . ?
O3 C55 1.386(6) . ?
N2 C9 1.367(5) . ?
N2 C6 1.368(5) . ?
N1 C4 1.353(5) . ?
N1 C1 1.380(5) . ?
C5 C6 1.405(6) . ?
C5 C4 1.418(5) . ?
C5 C41 1.434(6) . ?
C6 C7 1.437(5) . ?
C7 C8 1.344(6) . ?
C7 H7 0.9300 . ?
C8 C9 1.434(5) . ?
C8 H8 0.9300 . ?
C9 C10 1.400(6) . ?
C41 C42 1.208(6) . ?
C44 C43 1.535(7) . ?
C44 H44A 0.9600 . ?
C44 H44B 0.9600 . ?
C44 H44C 0.9600 . ?
C50 C49 1.541(7) . ?
C50 H50A 0.9600 . ?
C50 H50B 0.9600 . ?
C50 H50C 0.9600 . ?
C51 C49 1.529(7) . ?
C51 H51A 0.9600 . ?
C51 H51B 0.9600 . ?
C51 H51C 0.9600 . ?
C13 C14 1.366(7) . ?
C13 C12 1.395(6) . ?
C13 H13 0.9300 . ?
C14 C15 1.379(6) . ?
C14 H14 0.9300 . ?
C17 C18 1.511(7) . ?
C17 H17A 0.9700 . ?
C17 H17B 0.9700 . ?
C18 C19 1.524(7) . ?
C18 H18A 0.9700 . ?
C18 H18B 0.9700 . ?
C20 C19 1.516(7) . ?
C20 C21 1.529(8) . ?
C20 H20A 0.9700 . ?
C20 H20B 0.9700 . ?
C22 C23 1.521(7) . ?
C22 C21 1.521(8) . ?
C22 H22A 0.9700 . ?
C22 H22B 0.9700 . ?
C24 C23 1.512(8) . ?
C24 C25 1.529(7) . ?
C24 H24A 0.9700 . ?
C24 H24B 0.9700 . ?
C25 C26 1.506(9) . ?
C25 H25A 0.9700 . ?
C25 H25B 0.9700 . ?
C28 C27 1.527(11) . ?
C28 H28A 0.9600 . ?
C28 H28B 0.9600 . ?
C28 H28C 0.9600 . ?
C29 C30 1.509(6) . ?
C29 H29A 0.9700 . ?
C29 H29B 0.9700 . ?
C30 C31 1.513(8) . ?
C30 H30A 0.9700 . ?
C30 H30B 0.9700 . ?
C32 C33 1.156(10) . ?
C32 C31 1.511(9) . ?
C32 H32A 0.9700 . ?
C32 H32B 0.9700 . ?
C33 C34 1.887(14) . ?
C33 H33A 0.9700 . ?
C33 H33B 0.9700 . ?
C34 C35 1.20(2) . ?
C34 H34A 0.9700 . ?
C34 H34B 0.9700 . ?
C35 C36 1.79(3) . ?
C35 H35A 0.9700 . ?
C35 H35B 0.9700 . ?
C36 C37 1.55(3) . ?
C36 H36A 0.9700 . ?
C36 H36B 0.9700 . ?
C1 C10 1.402(5) 7 ?
C1 C2 1.428(6) . ?
C2 C3 1.351(5) . ?
C2 H2 0.9300 . ?
C3 C4 1.437(6) . ?
C3 H3 0.9300 . ?
C43 C45 1.532(7) . ?
C43 H43 0.9800 . ?
C45 H45A 0.9600 . ?
C45 H45B 0.9600 . ?
C45 H45C 0.9600 . ?
C49 H49 0.9800 . ?
C46 C48 1.509(8) . ?
C46 C47 1.521(8) . ?
C46 H46 0.9800 . ?
C47 H47A 0.9600 . ?
C47 H47B 0.9600 . ?
C47 H47C 0.9600 . ?
C48 H48A 0.9600 . ?
C48 H48B 0.9600 . ?
C48 H48C 0.9600 . ?
C10 C11 1.499(5) . ?
C11 C16 1.388(6) . ?
C11 C12 1.399(6) . ?
C15 C16 1.395(6) . ?
C15 H15 0.9300 . ?
C19 H19A 0.9700 . ?
C19 H19B 0.9700 . ?
C21 H21A 0.9700 . ?
C21 H21B 0.9700 . ?
C23 H23A 0.9700 . ?
C23 H23B 0.9700 . ?
C26 C27 1.520(9) . ?
C26 H26A 0.9700 . ?
C26 H26B 0.9700 . ?
C27 H27A 0.9700 . ?
C27 H27B 0.9700 . ?
C31 H31A 0.9700 . ?
C31 H31B 0.9700 . ?
C37 C38 1.31(2) . ?
C37 H37A 0.9700 . ?
C37 H37B 0.9700 . ?
C38 C39 1.641(18) . ?
C38 H38A 0.9700 . ?
C38 H38B 0.9700 . ?
C52 C53 1.484(7) . ?
C52 H52A 0.9700 . ?
C52 H52B 0.9700 . ?
C53 C54 1.496(7) . ?
C53 H53A 0.9700 . ?
C53 H53B 0.9700 . ?
C54 C55 1.466(8) . ?
C54 H54A 0.9700 . ?
C54 H54B 0.9700 . ?
C55 H55A 0.9700 . ?
C55 H55B 0.9700 . ?
C39 C40 1.30(2) . ?
C39 H39A 0.9700 . ?
C39 H39B 0.9700 . ?
C40 H40A 0.9600 . ?
C40 H40B 0.9600 . ?
C40 H40C 0.9600 . ?
loop_
_geom_torsion_atom_site_label_1
_geom_torsion_atom_site_label_2
_geom_torsion_atom_site_label_3
_geom_torsion_atom_site_label_4
_geom_torsion
_geom_torsion_site_symmetry_1
_geom_torsion_site_symmetry_2
_geom_torsion_site_symmetry_3
_geom_torsion_site_symmetry_4
_geom_torsion_publ_flag
C9 N2 C6 C5 -179.8(4) . . . . ?
Zn1 N2 C6 C5 -1.1(6) . . . . ?
C9 N2 C6 C7 0.5(5) . . . . ?
Zn1 N2 C6 C7 179.2(3) . . . . ?
C4 C5 C6 N2 3.0(7) . . . . ?
C41 C5 C6 N2 -176.0(4) . . . . ?
C4 C5 C6 C7 -177.3(4) . . . . ?
C41 C5 C6 C7 3.7(7) . . . . ?
N2 C6 C7 C8 -1.5(5) . . . . ?
C5 C6 C7 C8 178.8(4) . . . . ?
C6 C7 C8 C9 1.8(5) . . . . ?
C6 N2 C9 C10 -179.5(4) . . . . ?
Zn1 N2 C9 C10 1.8(6) . . . . ?
C6 N2 C9 C8 0.6(5) . . . . ?
Zn1 N2 C9 C8 -178.1(3) . . . . ?
C7 C8 C9 N2 -1.6(5) . . . . ?
C7 C8 C9 C10 178.5(4) . . . . ?
C12 C13 C14 C15 0.7(7) . . . . ?
C12 O1 C17 C18 178.7(4) . . . . ?
O1 C17 C18 C19 -179.8(5) . . . . ?
C23 C24 C25 C26 -179.1(6) . . . . ?
C16 O2 C29 C30 -163.2(4) . . . . ?
O2 C29 C30 C31 70.9(6) . . . . ?
C31 C32 C33 C34 -173.6(12) . . . . ?
C32 C33 C34 C35 -125.7(16) . . . . ?
C33 C34 C35 C36 -175.5(9) . . . . ?
C34 C35 C36 C37 -171.2(13) . . . . ?
C4 N1 C1 C10 178.4(4) . . . 7 ?
Zn1 N1 C1 C10 -4.1(6) . . . 7 ?
C4 N1 C1 C2 0.3(5) . . . . ?
Zn1 N1 C1 C2 177.8(3) . . . . ?
N1 C1 C2 C3 -0.3(5) . . . . ?
C10 C1 C2 C3 -178.3(4) 7 . . . ?
C1 C2 C3 C4 0.1(5) . . . . ?
C1 N1 C4 C5 -179.0(4) . . . . ?
Zn1 N1 C4 C5 3.5(6) . . . . ?
C1 N1 C4 C3 -0.3(5) . . . . ?
Zn1 N1 C4 C3 -177.8(3) . . . . ?
C6 C5 C4 N1 -4.3(7) . . . . ?
C41 C5 C4 N1 174.6(4) . . . . ?
C6 C5 C4 C3 177.1(4) . . . . ?
C41 C5 C4 C3 -3.9(6) . . . . ?
C2 C3 C4 N1 0.1(5) . . . . ?
C2 C3 C4 C5 178.8(4) . . . . ?
C42 Si1 C43 C45 -64.4(4) . . . . ?
C49 Si1 C43 C45 -179.1(4) . . . . ?
C46 Si1 C43 C45 55.1(5) . . . . ?
C42 Si1 C43 C44 166.8(4) . . . . ?
C49 Si1 C43 C44 52.1(5) . . . . ?
C46 Si1 C43 C44 -73.7(5) . . . . ?
C42 Si1 C49 C51 -66.1(4) . . . . ?
C43 Si1 C49 C51 49.8(4) . . . . ?
C46 Si1 C49 C51 178.3(3) . . . . ?
C42 Si1 C49 C50 57.5(4) . . . . ?
C43 Si1 C49 C50 173.4(3) . . . . ?
C46 Si1 C49 C50 -58.1(4) . . . . ?
C42 Si1 C46 C48 46.3(5) . . . . ?
C43 Si1 C46 C48 -73.5(5) . . . . ?
C49 Si1 C46 C48 161.2(5) . . . . ?
C42 Si1 C46 C47 175.8(5) . . . . ?
C43 Si1 C46 C47 56.0(5) . . . . ?
C49 Si1 C46 C47 -69.4(5) . . . . ?
N2 C9 C10 C1 0.7(7) . . . 7 ?
C8 C9 C10 C1 -179.4(4) . . . 7 ?
N2 C9 C10 C11 180.0(4) . . . . ?
C8 C9 C10 C11 -0.1(7) . . . . ?
C9 C10 C11 C16 -90.6(5) . . . . ?
C1 C10 C11 C16 88.8(5) 7 . . . ?
C9 C10 C11 C12 87.3(5) . . . . ?
C1 C10 C11 C12 -93.4(5) 7 . . . ?
C17 O1 C12 C13 3.8(7) . . . . ?
C17 O1 C12 C11 -175.9(4) . . . . ?
C14 C13 C12 O1 -180.0(4) . . . . ?
C14 C13 C12 C11 -0.3(7) . . . . ?
C16 C11 C12 O1 178.8(4) . . . . ?
C10 C11 C12 O1 1.0(6) . . . . ?
C16 C11 C12 C13 -0.9(6) . . . . ?
C10 C11 C12 C13 -178.8(4) . . . . ?
C13 C14 C15 C16 0.0(7) . . . . ?
C29 O2 C16 C11 170.4(4) . . . . ?
C29 O2 C16 C15 -9.0(7) . . . . ?
C12 C11 C16 O2 -177.8(4) . . . . ?
C10 C11 C16 O2 0.0(6) . . . . ?
C12 C11 C16 C15 1.6(6) . . . . ?
C10 C11 C16 C15 179.5(4) . . . . ?
C14 C15 C16 O2 178.2(4) . . . . ?
C14 C15 C16 C11 -1.2(7) . . . . ?
C21 C20 C19 C18 -172.8(6) . . . . ?
C17 C18 C19 C20 -174.5(5) . . . . ?
C23 C22 C21 C20 177.9(5) . . . . ?
C19 C20 C21 C22 -63.4(8) . . . . ?
C25 C24 C23 C22 172.6(5) . . . . ?
C21 C22 C23 C24 -178.5(5) . . . . ?
C24 C25 C26 C27 172.8(6) . . . . ?
C25 C26 C27 C28 -177.7(7) . . . . ?
C33 C32 C31 C30 101.4(17) . . . . ?
C29 C30 C31 C32 69.4(7) . . . . ?
C35 C36 C37 C38 -170.2(13) . . . . ?
C36 C37 C38 C39 172.3(13) . . . . ?
C55 O3 C52 C53 8.0(7) . . . . ?
Zn1 O3 C52 C53 -174.8(4) . . . . ?
O3 C52 C53 C54 -5.0(7) . . . . ?
C52 C53 C54 C55 0.5(8) . . . . ?
C52 O3 C55 C54 -7.8(8) . . . . ?
Zn1 O3 C55 C54 175.1(4) . . . . ?
C53 C54 C55 O3 4.2(8) . . . . ?
C37 C38 C39 C40 161(2) . . . . ?
