#------------------------------------------------------------------------------
#$Date: 2021-10-03 23:33:13 +0300 (Sun, 03 Oct 2021) $
#$Revision: 269496 $
#$URL: file:///home/coder/svn-repositories/cod/cif/4/51/90/4519074.cif $
#------------------------------------------------------------------------------
#
# This file is available in the Crystallography Open Database (COD),
# http://www.crystallography.net/
#
# All data on this site have been placed in the public domain by the
# contributors.
#
data_4519074
loop_
_publ_author_name
'Khade, Rahul L.'
'Abucayon, Erwin G.'
'Powell, Douglas R.'
'Richter-Addo, George B.'
'Zhang, Yong'
_publ_section_title
;
 Insights into the Observed trans-Bond Length Variations upon NO Binding
 to Ferric and Ferrous Porphyrins with Neutral Axial Ligands
;
_journal_issue                   38
_journal_name_full               'ACS Omega'
_journal_page_first              24777
_journal_page_last               24787
_journal_paper_doi               10.1021/acsomega.1c03610
_journal_volume                  6
_journal_year                    2021
_chemical_formula_moiety         'C44 H56 Fe N8, F6 Sb'
_chemical_formula_sum            'C44 H56 F6 Fe N8 Sb'
_chemical_formula_weight         988.56
_space_group_crystal_system      triclinic
_space_group_IT_number           2
_space_group_name_Hall           '-P 1'
_space_group_name_H-M_alt        'P -1'
_atom_sites_solution_hydrogens   mixed
_atom_sites_solution_primary     dual
_atom_sites_solution_secondary   difmap
_audit_creation_method           SHELXL-2018/3
_cell_angle_alpha                75.3690(18)
_cell_angle_beta                 88.5740(19)
_cell_angle_gamma                66.4191(18)
_cell_formula_units_Z            1
_cell_length_a                   9.9783(12)
_cell_length_b                   10.9280(13)
_cell_length_c                   11.3674(14)
_cell_measurement_reflns_used    9325
_cell_measurement_temperature    100(2)
_cell_measurement_theta_max      30.89
_cell_measurement_theta_min      2.41
_cell_volume                     1095.1(2)
_computing_cell_refinement       'SAINT (Bruker, 2007)'
_computing_data_collection       'APEX2 (Bruker, 2007)'
_computing_data_reduction        'SAINT (Bruker, 2007)'
_computing_molecular_graphics    'XP (Bruker, 2002)'
_computing_publication_material  'SHELXL-2014/7 (Sheldrick, 2015b)'
_computing_structure_refinement  'SHELXL-2014/7 (Sheldrick, 2015b)'
_computing_structure_solution    'SHELXT (Sheldrick, 2015a)'
_diffrn_ambient_temperature      100(2)
_diffrn_measured_fraction_theta_full 1.000
_diffrn_measured_fraction_theta_max 0.928
_diffrn_measurement_device_type  'Bruker APEX II ccd'
_diffrn_measurement_method       '\w and \f scans'
_diffrn_radiation_type           MoK\a
_diffrn_radiation_wavelength     0.71073
_diffrn_reflns_av_R_equivalents  0.0232
_diffrn_reflns_av_unetI/netI     0.0179
_diffrn_reflns_Laue_measured_fraction_full 1.000
_diffrn_reflns_Laue_measured_fraction_max 0.928
_diffrn_reflns_limit_h_max       14
_diffrn_reflns_limit_h_min       -14
_diffrn_reflns_limit_k_max       15
_diffrn_reflns_limit_k_min       -15
_diffrn_reflns_limit_l_max       16
_diffrn_reflns_limit_l_min       -15
_diffrn_reflns_number            27350
_diffrn_reflns_point_group_measured_fraction_full 1.000
_diffrn_reflns_point_group_measured_fraction_max 0.928
_diffrn_reflns_theta_full        25.242
_diffrn_reflns_theta_max         31.043
_diffrn_reflns_theta_min         1.858
_diffrn_source                   'fine-focus sealed tube'
_exptl_absorpt_coefficient_mu    1.015
_exptl_absorpt_correction_T_max  0.7462
_exptl_absorpt_correction_T_min  0.6376
_exptl_absorpt_correction_type   multi-scan
_exptl_absorpt_process_details
; 
SADABS 2014/4 
;
_exptl_crystal_colour            black
_exptl_crystal_density_diffrn    1.499
_exptl_crystal_description       block
_exptl_crystal_F_000             507
_exptl_crystal_size_max          0.560
_exptl_crystal_size_mid          0.300
_exptl_crystal_size_min          0.160
_refine_diff_density_max         0.860
_refine_diff_density_min         -0.903
_refine_diff_density_rms         0.071
_refine_ls_extinction_method     none
_refine_ls_goodness_of_fit_ref   1.012
_refine_ls_hydrogen_treatment    mixed
_refine_ls_matrix_type           full
_refine_ls_number_parameters     316
_refine_ls_number_reflns         6507
_refine_ls_number_restraints     60
_refine_ls_restrained_S_all      1.043
_refine_ls_R_factor_all          0.0294
_refine_ls_R_factor_gt           0.0257
_refine_ls_shift/su_max          0.000
_refine_ls_shift/su_mean         0.000
_refine_ls_structure_factor_coef Fsqd
_refine_ls_weighting_details
'w=1/[\s^2^(Fo^2^)+(0.0420P)^2^+0.6400P] where P=(Fo^2^+2Fc^2^)/3'
_refine_ls_weighting_scheme      calc
_refine_ls_wR_factor_gt          0.0673
_refine_ls_wR_factor_ref         0.0713
_reflns_Friedel_coverage         0.000
_reflns_number_gt                5940
_reflns_number_total             6507
_reflns_threshold_expression     'I > 2\s(I)'
_cod_data_source_file            ao1c03610_si_004.cif
_cod_data_source_block           15069a
_cod_database_code               4519074
_shelx_space_group_comment
; 
The symmetry employed for this shelxl refinement is uniquely defined 
by the following loop, which should always be used as a source of 
symmetry information in preference to the above space-group names. 
They are only intended as comments. 
;
_shelx_estimated_absorpt_t_min   0.600
_shelx_estimated_absorpt_t_max   0.854
_shelx_res_file
; 
  
TITL 15069 in P-1 
    15069.res 
    created by SHELXL-2018/3 at 10:45:58 on 15-Apr-2021 
CELL 0.71073   9.9783  10.9280  11.3674  75.3690  88.5740  66.4191 
ZERR    1.00   0.0012   0.0013   0.0014   0.0018   0.0019   0.0018 
LATT  1 
SFAC C  H  N F FE SB 
UNIT 44 56 8 6 1  1 
TEMP -173.140 
SIZE 0.16 0.30 0.56 
acta 
conf 
wpdb -2 
EQIV $1 -x+1, -y, -z+1 
EQIV $2 x+1, y, z+1 
HTAB N4 F1_$2 
HTAB C19 F2_$1 
htab 
  
sadi 0.004 c2 c11 c2 c11' c8 c17 c8 c17' 
sadi 0.004 c11 c12 c11' c12' c17 c18 c17' c18' 
sadi 0.007 c2 c12 c2 c12' c8 c18 c8 c18' 
rigu 0.004 c2 c11 c12 c11' c12' 
rigu 0.004 c8 c17 c18 c17' c18' 
isor 0.004 c17' 
  
L.S. 10 
BOND $h 
FMAP 2 
PLAN 20 
  
WGHT    0.042000    0.640000 
FVAR       0.43369   0.70816   0.81805 
FE1   5    0.500000    0.500000    0.500000    10.50000    0.02001    0.00827 = 
         0.01085   -0.00105   -0.00069   -0.00268 
N1    3    0.419013    0.459650    0.660531    11.00000    0.02307    0.01079 = 
         0.01293   -0.00199    0.00057   -0.00387 
N2    3    0.576755    0.298718    0.504377    11.00000    0.02535    0.00948 = 
         0.01416   -0.00195    0.00067   -0.00370 
N3    3    0.684266    0.468168    0.586601    11.00000    0.02397    0.01296 = 
         0.01496   -0.00197   -0.00177   -0.00413 
N4    3    0.880670    0.370789    0.715128    11.00000    0.03011    0.02374 = 
         0.02426    0.00014   -0.01013   -0.00453 
H4    2    0.941547    0.313919    0.772006    11.00000    0.04844 
C1    1    0.346432    0.552638    0.727019    11.00000    0.02893    0.01628 = 
         0.01473   -0.00450    0.00446   -0.00827 
C2    1    0.308884    0.483357    0.840893    11.00000    0.03590    0.02008 = 
         0.01785   -0.00591    0.00740   -0.01377 
C3    1    0.359797    0.346552    0.843049    11.00000    0.02600    0.01758 = 
         0.01596   -0.00250    0.00214   -0.00984 
C4    1    0.428506    0.333038    0.730946    11.00000    0.02065    0.01441 = 
         0.01456   -0.00061   -0.00038   -0.00557 
C5    1    0.496688    0.208471    0.699743    11.00000    0.02529    0.01137 = 
         0.01698    0.00054   -0.00037   -0.00591 
AFIX  43 
H5    2    0.495208    0.127843    0.755113    11.00000   -1.20000 
AFIX   0 
C6    1    0.566466    0.192569    0.594576    11.00000    0.02531    0.01019 = 
         0.01778   -0.00166   -0.00115   -0.00424 
C7    1    0.636767    0.061671    0.563651    11.00000    0.03280    0.01067 = 
         0.02242   -0.00320    0.00290   -0.00556 
C8    1    0.687335    0.090665    0.451834    11.00000    0.04004    0.01183 = 
         0.02703   -0.00598    0.00832   -0.00676 
C9    1    0.650514    0.238334    0.416582    11.00000    0.03435    0.01142 = 
         0.01911   -0.00427    0.00378   -0.00539 
C10   1    0.686024    0.306995    0.308821    11.00000    0.03966    0.01477 = 
         0.02031   -0.00756    0.00866   -0.00824 
AFIX  43 
H10   2    0.736862    0.253388    0.255009    11.00000   -1.20000 
AFIX   0 
PART   1 
C11   1    0.216307    0.557605    0.930598    21.00000    0.02766    0.02391 = 
         0.02056   -0.00716    0.00650   -0.01090 
AFIX  23 
H11A  2    0.164067    0.502895    0.976556    21.00000   -1.20000 
H11B  2    0.142128    0.649238    0.885477    21.00000   -1.20000 
AFIX   0 
C12   1    0.314864    0.576187    1.019340    21.00000    0.04523    0.04619 = 
         0.02786   -0.02066    0.00418   -0.01538 
AFIX   3 
H12A  2    0.381051    0.485262    1.070063    21.00000   -1.50000 
H12B  2    0.253909    0.631774    1.071591    21.00000   -1.50000 
H12C  2    0.372728    0.623410    0.973311    21.00000   -1.50000 
AFIX   0 
PART   2 
C11'  1    0.266385    0.535920    0.953981   -21.00000    0.02498    0.01446 = 
         0.01099   -0.00065    0.00101   -0.00640 
AFIX  23 
H11C  2    0.291565    0.615691    0.950062   -21.00000   -1.20000 
H11D  2    0.317763    0.461922    1.028628   -21.00000   -1.20000 
AFIX   0 
C12'  1    0.099989    0.579586    0.953815   -21.00000    0.01543    0.03232 = 
         0.03242   -0.01728    0.00313   -0.00604 
AFIX   3 
H12D  2    0.050454    0.660940    0.885196   -21.00000   -1.50000 
H12E  2    0.067320    0.602463    1.030547   -21.00000   -1.50000 
H12F  2    0.075802    0.503442    0.945600   -21.00000   -1.50000 
AFIX   0 
PART   0 
C13   1    0.352273    0.229901    0.942328    11.00000    0.03727    0.02048 = 
         0.02142   -0.00267    0.00795   -0.01540 
AFIX  23 
H13A  2    0.342125    0.160884    0.905284    11.00000   -1.20000 
H13B  2    0.264067    0.266256    0.986232    11.00000   -1.20000 
AFIX   0 
C14   1    0.488012    0.158786    1.033379    11.00000    0.05120    0.02712 = 
         0.02194    0.00491   -0.00034   -0.01815 
AFIX   3 
H14A  2    0.575831    0.123742    0.990208    11.00000   -1.50000 
H14B  2    0.479848    0.081512    1.094694    11.00000   -1.50000 
H14C  2    0.495482    0.225474    1.073683    11.00000   -1.50000 
AFIX   0 
C15   1    0.653130   -0.076851    0.643447    11.00000    0.04097    0.01046 = 
         0.02798   -0.00366    0.00816   -0.00771 
AFIX  23 
H15A  2    0.669801   -0.141692    0.592109    11.00000   -1.20000 
H15B  2    0.560688   -0.066753    0.682212    11.00000   -1.20000 
AFIX   0 
C16   1    0.780181   -0.138419    0.743155    11.00000    0.03490    0.01917 = 
         0.03977    0.00639    0.00356   -0.00443 
AFIX   3 
H16A  2    0.871788   -0.147053    0.705417    11.00000   -1.50000 
H16B  2    0.788729   -0.230048    0.790364    11.00000   -1.50000 
H16C  2    0.761285   -0.077523    0.797436    11.00000   -1.50000 
AFIX   0 
PART   1 
C17   1    0.760925   -0.007615    0.374012    31.00000    0.02893    0.01712 = 
         0.02930   -0.01237    0.00277   -0.00816 
AFIX  23 
H17A  2    0.730231    0.041460    0.286761    31.00000   -1.20000 
H17B  2    0.730224   -0.085632    0.394554    31.00000   -1.20000 
AFIX   0 
C18   1    0.928191   -0.063396    0.396001    31.00000    0.02756    0.03497 = 
         0.04982   -0.01880    0.00725   -0.00098 
AFIX   3 
H18A  2    0.957770    0.014303    0.379275    31.00000   -1.50000 
H18B  2    0.974861   -0.122536    0.341790    31.00000   -1.50000 
H18C  2    0.958862   -0.117518    0.481115    31.00000   -1.50000 
AFIX   0 
PART   2 
C17'  1    0.817945   -0.013725    0.405193   -31.00000    0.03419    0.01255 = 
         0.01603   -0.00434    0.00427   -0.01105 
AFIX  23 
H17C  2    0.880166    0.031195    0.361296   -31.00000   -1.20000 
H17D  2    0.878825   -0.092157    0.473718   -31.00000   -1.20000 
AFIX   0 
C18'  1    0.748282   -0.063464    0.318624   -31.00000    0.02409    0.03469 = 
         0.02962   -0.01201    0.00263   -0.01190 
AFIX   3 
H18D  2    0.676432   -0.095327    0.360446   -31.00000   -1.50000 
H18E  2    0.825109   -0.140006    0.293986   -31.00000   -1.50000 
H18F  2    0.699167    0.012862    0.246157   -31.00000   -1.50000 
AFIX   0 
PART   0 
C19   1    0.761259    0.358510    0.676378    11.00000    0.02953    0.01948 = 
         0.02049    0.00186   -0.00477   -0.00533 
AFIX  43 
H19   2    0.735992    0.282231    0.708783    11.00000   -1.20000 
AFIX   0 
C20   1    0.759091    0.553246    0.568193    11.00000    0.03270    0.01688 = 
         0.03061    0.00037   -0.01137   -0.00950 
AFIX  43 
H20   2    0.729319    0.640048    0.509033    11.00000   -1.20000 
AFIX   0 
C21   1    0.881785    0.494089    0.647478    11.00000    0.03381    0.02122 = 
         0.03308   -0.00385   -0.01148   -0.00764 
C22   1    1.000574    0.538487    0.666202    11.00000    0.04383    0.03605 = 
         0.06669   -0.00488   -0.02693   -0.01651 
AFIX   3 
H22A  2    0.985778    0.624167    0.603832    11.00000   -1.50000 
H22B  2    1.095811    0.465896    0.659770    11.00000   -1.50000 
H22C  2    0.998438    0.554661    0.747324    11.00000   -1.50000 
AFIX   0 
SB1   6    0.000000    0.000000    0.000000    10.50000    0.02247    0.01317 = 
         0.01609   -0.00071   -0.00218   -0.00219 
F1    4    0.056849    0.144134   -0.077941    11.00000    0.03286    0.02266 = 
         0.03181    0.00478   -0.00592   -0.01153 
F2    4    0.169957   -0.084995    0.107874    11.00000    0.03331    0.03088 = 
         0.03465    0.00858   -0.01626   -0.01135 
F3    4   -0.099168    0.101087    0.108416    11.00000    0.05066    0.04020 = 
         0.04286   -0.02500    0.01788   -0.01609 
  
HKLF 4 
  
  
  
  
REM  15069 in P-1 
REM wR2 = 0.0713, GooF = S = 1.012, Restrained GooF = 1.043 for all data 
REM R1 = 0.0257 for 5940 Fo > 4sig(Fo) and 0.0294 for all 6507 data 
REM 316 parameters refined using 60 restraints 
  
END 
  
WGHT      0.0347      0.6479 
  
REM Instructions for potential hydrogen bonds 
HTAB N4 F1_$2 
HTAB C19 F2_$1 
  
REM Highest difference peak  0.860,  deepest hole -0.903,  1-sigma level  0.071 
Q1    1   0.7564  0.0809  0.4776  11.00000  0.05    0.86 
Q2    1  -0.0015  0.0047  0.0682  11.00000  0.05    0.70 
Q3    1  -0.0568 -0.0305  0.0074  11.00000  0.05    0.66 
Q4    1   0.6506  0.0721  0.4963  11.00000  0.05    0.56 
Q5    1   0.5585  0.5378  0.4912  11.00000  0.05    0.55 
Q6    1   0.3858  0.3380  0.7839  11.00000  0.05    0.50 
Q7    1   0.3158  0.5234  0.7876  11.00000  0.05    0.47 
Q8    1   0.7010  0.0603  0.5780  11.00000  0.05    0.45 
Q9    1   0.5033  0.4872  0.4368  11.00000  0.05    0.45 
Q10   1   0.5241  0.2098  0.6406  11.00000  0.05    0.43 
Q11   1   0.6026  0.1228  0.5809  11.00000  0.05    0.42 
Q12   1   0.6605  0.2817  0.3577  11.00000  0.05    0.42 
Q13   1   0.6569  0.3751  0.2958  11.00000  0.05    0.42 
Q14   1   0.7336  0.5018  0.5674  11.00000  0.05    0.42 
Q15   1   0.3159  0.4139  0.8408  11.00000  0.05    0.41 
Q16   1   0.7408 -0.0366  0.3341  11.00000  0.05    0.39 
Q17   1   0.7167  0.2245  0.4361  11.00000  0.05    0.39 
Q18   1   0.6635  0.1729  0.4258  11.00000  0.05    0.38 
Q19   1   0.7128 -0.0887  0.6676  11.00000  0.05    0.36 
Q20   1   0.8023  0.3764  0.7161  11.00000  0.05    0.36 
;
_shelx_res_checksum              71942
_shelx_hkl_file
; 
  -1   0   0 66.9563 1.84902   6 
  -1   0   0 64.1889 1.85750   5 
  -1   0   0 68.2873 1.84212   1 
   1   0   0 71.4794 1.85804   6 
   1   0   0 73.8704 1.94259   4 
  -2   0   0 331.463 7.99719   1 
  -2   0   0 294.391 8.00823   5 
  -2   0   0 306.328 7.99653   6 
   2   0   0 305.260 8.00391   6 
   2   0   0 318.864 8.16384   4 
   2   0   0 310.984 8.04790   3 
  -3   0   0 605.394 15.2134   1 
  -3   0   0 580.673 15.2705   5 
   3   0   0 572.558 15.2441   6 
   3   0   0 595.866 15.3100   3 
   3   0   0 632.744 15.5102   4 
  -4   0   0 265.061 6.96765   1 
  -4   0   0 269.619 7.00631   6 
  -4   0   0 261.065 7.05978   5 
   4   0   0 259.158 7.08874   3 
   4   0   0 262.107 7.03430   6 
   4   0   0 261.514 7.31172   4 
  -5   0   0 0.21859 0.23318   6 
  -5   0   0 0.13187 0.31675   5 
  -5   0   0 0.05507 0.26217   1 
   5   0   0 0.49072 0.32067   6 
   5   0   0 0.17497 0.36061   3 
   5   0   0 0.70750 0.48415   4 
  -6   0   0 317.214 9.09186   5 
  -6   0   0 329.693 8.96471   1 
   6   0   0 338.797 9.53288   4 
   6   0   0 333.133 9.08995   6 
   6   0   0 355.399 9.21349   3 
  -7   0   0 0.92033 0.68629   5 
  -7   0   0 0.80807 0.41312   1 
   7   0   0 1.36219 0.57768   3 
   7   0   0 1.15563 0.71885   4 
   7   0   0 1.23038 0.50151   6 
  -8   0   0 130.273 4.36443   5 
  -8   0   0 134.020 4.21421   1 
   8   0   0 133.257 4.33968   6 
   8   0   0 136.247 4.87300   4 
   8   0   0 138.657 4.48691   3 
  -9   0   0 100.162 3.70391   5 
  -9   0   0 101.955 3.52219   1 
   9   0   0 99.0502 3.73952   3 
   9   0   0 100.521 3.67280   6 
   9   0   0 106.076 4.25019   4 
 -10   0   0 60.8225 2.73760   5 
 -10   0   0 55.9407 2.49958   1 
  10   0   0 56.6306 2.76669   3 
  10   0   0 54.7588 3.14411   4 
  10   0   0 58.8996 2.63999   6 
 -11   0   0 -0.8747 0.65702   5 
 -11   0   0 -0.2730 0.69831   1 
  11   0   0 -1.7931 0.67148   6 
  11   0   0 -1.3889 0.77720   3 
  11   0   0 -2.1037 0.88347   4 
 -12   0   0 98.5771 3.90282   1 
 -12   0   0 101.322 4.13727   5 
  12   0   0 96.9717 3.99588   6 
  12   0   0 98.6777 4.76596   4 
  13   0   0 0.58848 0.77917   6 
  12  -1   0 3.91454 1.02200   6 
  12  -1   0 1.17710 1.18976   4 
 -12   1   0 3.78444 1.00936   5 
  11  -1   0 79.1723 4.14641   4 
  11  -1   0 85.4578 3.67072   3 
  11  -1   0 80.4865 3.41470   6 
 -11   1   0 86.3322 3.38637   1 
 -11   1   0 82.2964 3.61428   5 
  10  -1   0 3.61366 1.20982   4 
  10  -1   0 0.65240 0.81961   3 
  10  -1   0 -0.4756 0.64187   6 
 -10   1   0 1.81634 0.89454   5 
 -10   1   0 1.30388 0.70403   1 
   9  -1   0 46.9878 2.24908   6 
   9  -1   0 51.4433 2.87348   4 
   9  -1   0 50.3281 2.47621   3 
  -9   1   0 51.7108 2.21111   1 
  -9   1   0 48.6650 2.38866   5 
   8  -1   0 7.10669 0.88961   6 
   8  -1   0 7.34401 1.19786   4 
   8  -1   0 8.31795 0.99236   3 
  -8   1   0 7.67752 0.94002   5 
  -8   1   0 7.92306 0.83415   1 
   7  -1   0 69.4363 2.67597   3 
   7  -1   0 64.8342 2.48230   6 
   7  -1   0 68.9071 3.04968   4 
  -7   1   0 68.1961 2.41743   1 
  -7   1   0 63.8037 2.58885   5 
   6  -1   0 207.381 5.93148   6 
   6  -1   0 200.408 6.39398   4 
   6  -1   0 209.459 6.04750   3 
  -6   1   0 207.065 6.04582   5 
  -6   1   0 214.708 5.85069   1 
   5  -1   0 610.384 16.0267   4 
   5  -1   0 595.941 15.6418   3 
   5  -1   0 591.936 15.5386   6 
   5  -1   0 595.759 15.5040   6 
  -5   1   0 600.031 15.4693   1 
  -5   1   0 599.024 15.6608   5 
   4  -1   0 79.8335 2.48474   6 
   4  -1   0 82.8801 2.88537   4 
   4  -1   0 83.1545 2.52242   6 
   4  -1   0 82.8887 2.62369   3 
  -4   1   0 80.1182 2.60924   5 
  -4   1   0 84.2929 2.48284   1 
   3  -1   0 195.665 5.57520   4 
   3  -1   0 202.570 5.36265   3 
   3  -1   0 190.145 5.24632   6 
   3  -1   0 200.931 5.25161   6 
  -3   1   0 200.717 5.25240   1 
  -3   1   0 189.846 5.34174   5 
   2  -1   0 288.959 7.36646   6 
   2  -1   0 284.266 7.61012   4 
   2  -1   0 288.419 7.45484   5 
   2  -1   0 280.160 7.44545   3 
   2  -1   0 279.781 7.34633   6 
   2  -1   0 282.823 7.42723   2 
  -2   1   0 295.820 7.38682   1 
  -2   1   0 282.314 7.44391   5 
   1  -1   0 735.523 18.9180   2 
   1  -1   0 731.537 18.7550   3 
   1  -1   0 735.713 18.7079   5 
   1  -1   0 735.320 18.8420   4 
   1  -1   0 737.892 18.7701   6 
   1  -1   0 759.682 18.8285   6 
  -1   1   0 742.759 18.7122   1 
   0  -1   0 6.36714 0.30783   3 
   0  -1   0 5.61379 0.25618   1 
   0  -1   0 7.66829 0.34605   4 
   0  -1   0 5.69440 0.29627   2 
  -1  -1   0 2617.49 64.2484   1 
  -1  -1   0 2531.29 65.9917   5 
  -1  -1   0 2362.08 63.9515   6 
   1   1   0 2660.17 65.5932   4 
   1   1   0 2498.59 64.2833   3 
   1   1   0 2513.96 64.0323   6 
  -2  -1   0 315.039 8.42649   2 
  -2  -1   0 332.172 8.42929   5 
  -2  -1   0 328.131 8.44411   1 
  -2  -1   0 318.379 8.44495   6 
   2   1   0 328.083 8.51281   3 
   2   1   0 346.205 8.55213   4 
   2   1   0 335.877 8.46616   6 
  -3  -1   0 170.726 4.51362   2 
  -3  -1   0 173.295 4.61244   5 
  -3  -1   0 167.675 4.63887   6 
   3   1   0 177.811 4.72445   3 
   3   1   0 170.034 4.75982   4 
   3   1   0 176.687 4.66857   6 
  -4  -1   0 43.5316 1.29284   2 
  -4  -1   0 42.8105 1.50908   5 
  -4  -1   0 45.1544 1.53955   6 
  -4  -1   0 42.1423 1.50443   1 
   4   1   0 44.5508 1.61077   3 
   4   1   0 45.4694 1.56707   6 
   4   1   0 43.8736 1.74166   4 
  -5  -1   0 199.871 5.70860   6 
  -5  -1   0 196.953 5.69489   5 
  -5  -1   0 214.201 5.69643   1 
   5   1   0 214.326 6.01632   4 
   5   1   0 208.782 5.77004   6 
   5   1   0 210.365 5.83423   3 
  -6  -1   0 1.87557 0.40718   1 
  -6  -1   0 0.94444 0.41018   5 
  -6  -1   0 2.25789 0.40533   6 
   6   1   0 0.71394 0.50921   4 
   6   1   0 1.00750 0.39200   6 
   6   1   0 1.11466 0.45886   3 
  -7  -1   0 36.4925 1.58391   1 
  -7  -1   0 33.9112 1.62318   5 
   7   1   0 36.3632 1.78681   3 
   7   1   0 35.3876 1.66296   6 
   7   1   0 34.4646 1.94633   4 
  -8  -1   0 14.3896 1.13726   1 
  -8  -1   0 14.6253 1.21960   5 
   8   1   0 17.9650 1.58869   4 
   8   1   0 14.6834 1.22257   6 
   8   1   0 17.6556 1.41742   3 
  -9  -1   0 7.07559 0.85928   1 
  -9  -1   0 7.34648 0.90793   5 
   9   1   0 9.42721 1.00079   6 
   9   1   0 7.15454 1.02235   3 
   9   1   0 6.69885 1.17325   4 
 -10  -1   0 10.4795 1.09813   1 
 -10  -1   0 9.30498 1.08218   5 
  10   1   0 9.97592 1.21106   6 
  10   1   0 10.5278 1.44594   4 
  10   1   0 10.2604 1.26696   3 
 -11  -1   0 107.477 4.11459   5 
 -11  -1   0 111.062 4.02347   1 
  11   1   0 109.164 4.28248   3 
  11   1   0 110.178 4.12369   6 
  11   1   0 105.597 4.70008   4 
 -12  -1   0 14.0927 1.42639   1 
 -12  -1   0 11.0072 1.37729   5 
  12   1   0 12.0380 1.42384   6 
  12   1   0 14.6893 1.91120   4 
  12   1   0 13.5068 1.58214   3 
 -13  -1   0 65.1342 3.06199   1 
 -13  -1   0 59.7879 3.07503   5 
  13   1   0 55.8411 3.57831   4 
  13   1   0 49.2612 2.86650   6 
  11  -2   0 10.5322 1.74201   4 
  11  -2   0 10.1988 1.23932   6 
 -11   2   0 12.3031 1.42465   5 
  10  -2   0 109.518 4.11118   6 
  10  -2   0 111.990 4.37480   3 
  10  -2   0 116.249 5.02355   4 
 -10   2   0 114.924 4.43082   5 
 -10   2   0 123.388 4.11577   1 
   9  -2   0 37.4683 2.21494   3 
   9  -2   0 36.9960 2.60837   4 
   9  -2   0 40.5532 2.03285   6 
  -9   2   0 39.7329 1.95582   1 
  -9   2   0 41.5873 2.26323   5 
   8  -2   0 77.7399 2.94041   6 
   8  -2   0 80.9541 3.16918   3 
   8  -2   0 79.3300 3.62932   4 
  -8   2   0 82.1819 2.88910   1 
  -8   2   0 76.0776 3.13344   5 
   7  -2   0 50.1393 2.08546   6 
   7  -2   0 47.4835 2.22757   3 
   7  -2   0 50.5020 2.62941   4 
  -7   2   0 51.7062 2.02201   1 
  -7   2   0 50.5895 2.26746   5 
   6  -2   0 366.633 10.2913   4 
   6  -2   0 349.981 9.56456   6 
   6  -2   0 356.734 9.77167   3 
  -6   2   0 345.305 9.77219   5 
  -6   2   0 350.528 9.49622   1 
   5  -2   0 100.039 3.67641   4 
   5  -2   0 99.3780 3.12748   6 
   5  -2   0 104.784 3.11464   6 
   5  -2   0 102.037 3.31499   3 
  -5   2   0 103.550 3.11476   1 
  -5   2   0 99.1183 3.31091   5 
   4  -2   0 860.830 22.8017   3 
   4  -2   0 901.497 23.1968   4 
   4  -2   0 894.114 22.6614   6 
   4  -2   0 873.069 22.6004   6 
  -4   2   0 905.853 22.6630   1 
  -4   2   0 897.255 22.8458   5 
   3  -2   0 99.5951 3.28337   4 
   3  -2   0 102.206 3.04450   5 
   3  -2   0 99.5510 2.69668   2 
   3  -2   0 100.376 2.85007   6 
   3  -2   0 101.288 3.05085   3 
   3  -2   0 99.4952 2.86198   6 
  -3   2   0 100.934 3.04015   5 
  -3   2   0 102.715 2.91277   1 
   2  -2   0 318.299 8.09426   6 
   2  -2   0 307.497 8.44878   4 
   2  -2   0 313.309 8.25283   5 
   2  -2   0 316.200 8.26792   3 
   2  -2   0 312.342 8.08879   2 
   2  -2   0 309.505 8.06955   6 
  -2   2   0 319.042 8.25729   5 
  -2   2   0 318.415 8.15547   1 
   1  -2   0 1495.58 37.8901   3 
   1  -2   0 1481.72 38.0043   4 
   1  -2   0 1507.42 38.3610   2 
   1  -2   0 1498.43 37.8632   1 
   1  -2   0 1477.07 37.8213   5 
   1  -2   0 1530.26 38.3194   6 
  -1   2   0 1534.24 37.9124   1 
   0  -2   0 3080.21 79.1958   4 
   0  -2   0 3087.99 78.6896   2 
   0  -2   0 3173.42 79.0296   3 
   0  -2   0 3088.26 78.5636   1 
  -1  -2   0 330.192 9.06191   2 
  -1  -2   0 348.716 8.98821   6 
  -1  -2   0 349.072 9.02800   1 
  -1  -2   0 366.676 9.06923   5 
  -1  -2   0 335.906 8.97048   6 
   1   2   0 364.039 9.11125   3 
   1   2   0 374.750 9.10791   4 
  -2  -2   0 10.6885 0.62713   1 
  -2  -2   0 13.9442 0.65608   2 
  -2  -2   0 11.8367 0.57629   6 
  -2  -2   0 13.2823 0.49928   5 
   2   2   0 12.1729 0.70779   3 
   2   2   0 15.4551 0.63275   6 
   2   2   0 13.0732 0.65952   4 
  -3  -2   0 451.074 11.4598   5 
  -3  -2   0 448.355 11.5398   6 
  -3  -2   0 428.125 11.4930   2 
  -3  -2   0 434.758 11.5525   1 
   3   2   0 442.829 11.6421   3 
   3   2   0 460.783 11.5606   6 
   3   2   0 474.413 11.6382   4 
  -4  -2   0 89.5738 2.61109   5 
  -4  -2   0 84.8234 2.56375   2 
  -4  -2   0 92.3505 2.70439   1 
  -4  -2   0 89.7245 2.69885   6 
   4   2   0 92.0727 2.81068   4 
   4   2   0 92.3510 2.72747   6 
   4   2   0 91.8008 2.81256   3 
  -5  -2   0 3.39556 0.44704   1 
  -5  -2   0 3.44447 0.44460   6 
  -5  -2   0 3.97307 0.46090   5 
  -5  -2   0 2.73243 0.33075   2 
   5   2   0 4.26259 0.49435   6 
   5   2   0 4.30350 0.57334   4 
   5   2   0 4.74722 0.59020   3 
  -6  -2   0 248.128 6.61601   2 
  -6  -2   0 243.656 6.89768   5 
  -6  -2   0 252.071 6.94380   1 
  -6  -2   0 255.865 6.99131   6 
   6   2   0 250.823 7.23164   4 
   6   2   0 260.515 7.13123   3 
   6   2   0 256.391 7.03389   6 
  -7  -2   0 40.8792 1.73808   5 
  -7  -2   0 37.6662 1.68845   6 
  -7  -2   0 41.6114 1.74127   1 
   7   2   0 40.3300 1.80317   6 
   7   2   0 40.4473 1.32957   2 
   7   2   0 42.1086 2.05364   4 
   7   2   0 41.9303 1.94605   3 
  -8  -2   0 319.468 8.89247   5 
  -8  -2   0 316.639 8.88010   1 
   8   2   0 322.187 9.36490   4 
   8   2   0 318.127 9.10324   3 
   8   2   0 324.653 9.03325   6 
  -9  -2   0 18.5643 1.37882   5 
  -9  -2   0 20.1073 1.36338   1 
   9   2   0 17.1032 1.55132   3 
   9   2   0 18.0497 1.40568   6 
   9   2   0 17.8011 1.72346   4 
 -10  -2   0 89.1479 3.38457   5 
 -10  -2   0 90.0996 3.36665   1 
  10   2   0 85.4749 3.84719   4 
  10   2   0 90.9933 3.50054   6 
  10   2   0 91.4725 3.65162   3 
 -11  -2   0 2.54388 0.83974   1 
 -11  -2   0 1.32962 0.79255   5 
  11   2   0 2.80597 0.96382   6 
  11   2   0 3.37441 1.18049   4 
  11   2   0 3.69656 1.11794   3 
 -12  -2   0 99.5985 4.01459   5 
 -12  -2   0 103.542 4.02631   1 
  12   2   0 108.042 4.34050   3 
  12   2   0 96.8469 4.59492   4 
  12   2   0 103.236 4.10904   6 
 -13  -2   0 22.9301 1.93925   5 
 -13  -2   0 21.3876 1.84519   1 
  13   2   0 26.8290 2.50421   4 
  13   2   0 24.2093 2.15038   3 
  11  -3   0 34.1838 2.82016   4 
  11  -3   0 32.2746 1.97380   6 
 -11   3   0 31.5896 2.29521   5 
  10  -3   0 2.14203 1.14952   4 
  10  -3   0 2.43770 0.79611   6 
 -10   3   0 1.58830 0.89018   5 
   9  -3   0 82.6131 3.45699   3 
   9  -3   0 81.4382 3.97445   4 
   9  -3   0 76.8583 3.07090   6 
  -9   3   0 80.6339 3.44289   5 
   8  -3   0 49.2269 2.87750   4 
   8  -3   0 45.3795 2.10724   6 
   8  -3   0 53.2062 2.52096   3 
  -8   3   0 48.1611 2.40811   5 
  -8   3   0 49.7914 2.12701   1 
   7  -3   0 188.062 6.43782   4 
   7  -3   0 186.953 5.58664   6 
   7  -3   0 195.960 5.94611   3 
  -7   3   0 184.380 5.89706   5 
  -7   3   0 189.689 5.55960   1 
   6  -3   0 21.2340 1.20048   6 
   6  -3   0 20.9761 1.47294   3 
   6  -3   0 21.0127 1.76247   4 
  -6   3   0 23.5833 1.22900   1 
  -6   3   0 20.1462 1.39319   5 
   5  -3   0 1020.26 26.9248   4 
   5  -3   0 1016.21 26.1060   6 
   5  -3   0 1048.86 26.4678   3 
   5  -3   0 1025.51 26.1684   6 
  -5   3   0 1014.20 26.4623   5 
  -5   3   0 1019.78 26.1753   1 
   4  -3   0 0.89947 0.47726   3 
   4  -3   0 0.65459 0.28466   6 
   4  -3   0 1.25034 0.57660   4 
  -4   3   0 1.23783 0.35044   1 
  -4   3   0 0.94034 0.42026   5 
   3  -3   0 580.567 15.6030   4 
   3  -3   0 590.645 15.3257   3 
   3  -3   0 585.495 15.0108   6 
   3  -3   0 595.471 15.0423   6 
   3  -3   0 597.517 15.3173   5 
   3  -3   0 571.648 14.9876   2 
  -3   3   0 596.864 15.3122   5 
  -3   3   0 587.898 15.1320   1 
   2  -3   0 80.3834 2.72942   4 
   2  -3   0 81.4313 2.24806   6 
   2  -3   0 80.9179 2.23352   6 
   2  -3   0 81.7748 2.50042   5 
   2  -3   0 78.8420 2.34924   2 
   2  -3   0 79.9977 2.54496   3 
  -2   3   0 78.8667 2.49332   5 
  -2   3   0 81.5787 2.38426   1 
   1  -3   0 250.021 6.64044   1 
   1  -3   0 258.932 6.56264   6 
   1  -3   0 250.327 6.72042   5 
   1  -3   0 247.722 6.92524   4 
   1  -3   0 254.462 6.71721   2 
   1  -3   0 258.584 6.81375   3 
   1  -3   0 261.824 6.54475   6 
   0  -3   0 144.391 4.00764   3 
   0  -3   0 145.541 3.99078   2 
   0  -3   0 145.946 3.87799   5 
   0  -3   0 143.715 4.05211   4 
   0  -3   0 142.958 3.86406   1 
  -1  -3   0 1336.56 34.4147   1 
  -1  -3   0 1359.51 34.5411   3 
  -1  -3   0 1417.02 34.5024   6 
  -1  -3   0 1351.89 34.4344   5 
  -1  -3   0 1327.58 34.5121   2 
  -1  -3   0 1368.55 34.4290   6 
   1   3   0 1364.50 34.5421   3 
   1   3   0 1414.33 34.5880   4 
  -2  -3   0 90.5482 2.50312   6 
  -2  -3   0 87.6157 2.60204   1 
  -2  -3   0 95.3348 2.40646   5 
  -2  -3   0 86.4206 2.49287   6 
  -2  -3   0 86.1591 2.64274   2 
   2   3   0 93.6892 2.58363   4 
   2   3   0 91.4211 2.70064   3 
  -3  -3   0 455.755 12.3549   2 
  -3  -3   0 487.746 12.1837   5 
  -3  -3   0 465.335 12.2866   6 
   3   3   0 485.254 12.4835   3 
   3   3   0 503.387 12.3916   4 
   3   3   0 475.392 12.3128   6 
  -4  -3   0 36.4368 1.38894   6 
  -4  -3   0 36.7924 1.38011   2 
  -4  -3   0 41.1946 1.47844   1 
  -4  -3   0 40.8573 1.29306   5 
   4   3   0 38.6372 1.57737   3 
   4   3   0 39.9571 1.44106   6 
   4   3   0 38.6934 1.47527   4 
  -5  -3   0 172.769 4.82060   2 
  -5  -3   0 174.754 4.94089   6 
  -5  -3   0 171.858 4.78659   5 
  -5  -3   0 171.626 4.94683   1 
   5   3   0 176.564 5.04863   4 
   5   3   0 176.032 4.96716   6 
   5   3   0 181.702 5.12921   3 
  -6  -3   0 14.5460 1.00026   1 
  -6  -3   0 14.4234 0.85413   2 
  -6  -3   0 15.0199 0.92479   5 
  -6  -3   0 17.3067 1.02886   6 
   6   3   0 16.1113 1.14482   4 
   6   3   0 18.4310 1.24570   3 
   6   3   0 13.7955 0.96231   6 
  -7  -3   0 394.262 10.2191   2 
  -7  -3   0 377.473 10.4104   5 
  -7  -3   0 369.305 10.5219   1 
  -7  -3   0 405.047 10.5983   6 
   7   3   0 386.906 10.7407   3 
   7   3   0 389.548 10.8089   4 
   7   3   0 414.189 10.6762   6 
  -8  -3   0 18.2441 1.24513   5 
  -8  -3   0 19.9972 1.30520   1 
   8   3   0 19.3291 1.55021   4 
   8   3   0 19.8777 1.35485   6 
   8   3   0 18.8385 1.48174   3 
  -9  -3   0 157.489 5.01552   1 
  -9  -3   0 161.049 4.94082   5 
   9   3   0 167.608 5.15718   6 
   9   3   0 154.732 5.20566   3 
   9   3   0 152.620 5.36084   4 
 -10  -3   0 -0.0283 0.62552   1 
 -10  -3   0 -0.9602 0.57039   5 
  10   3   0 0.24188 0.76754   3 
  10   3   0 -1.6866 0.64340   6 
  10   3   0 0.20244 0.88574   4 
 -11  -3   0 174.147 5.62428   5 
 -11  -3   0 171.447 5.65761   1 
  11   3   0 177.277 6.23979   4 
  11   3   0 168.278 5.89646   3 
 -12  -3   0 9.13117 1.30064   1 
 -12  -3   0 7.36751 1.18250   5 
  12   3   0 8.65362 1.51616   4 
  12   3   0 9.57706 1.42502   3 
 -13  -3   0 55.8068 2.91683   1 
 -13  -3   0 55.9166 2.79899   5 
  13   3   0 50.4648 3.03527   3 
  13   3   0 50.4451 3.35149   4 
  10  -4   0 59.5220 3.64278   4 
  10  -4   0 60.9955 2.69232   6 
 -10   4   0 63.8720 3.18436   5 
   9  -4   0 11.8676 1.69652   4 
   9  -4   0 11.2814 1.12528   6 
   9  -4   0 14.8456 1.50186   3 
  -9   4   0 15.5302 1.50485   5 
   8  -4   0 73.2150 3.11146   3 
   8  -4   0 67.2603 2.65166   6 
   8  -4   0 67.9281 3.55678   4 
  -8   4   0 68.3347 3.04973   5 
   7  -4   0 52.7011 2.49175   3 
   7  -4   0 51.9505 2.90246   4 
   7  -4   0 53.8373 2.12536   6 
  -7   4   0 54.4917 2.18963   1 
  -7   4   0 49.5515 2.44254   5 
   6  -4   0 273.918 8.55024   4 
   6  -4   0 276.504 8.01339   3 
   6  -4   0 271.143 7.58731   6 
  -6   4   0 278.397 7.66458   1 
  -6   4   0 274.026 8.04280   5 
   5  -4   0 24.7365 1.20058   6 
   5  -4   0 24.4684 1.79951   4 
   5  -4   0 24.5731 1.55303   3 
  -5   4   0 23.8580 1.48716   5 
  -5   4   0 25.1148 1.27166   1 
   4  -4   0 498.564 12.7170   6 
   4  -4   0 480.250 13.5052   4 
   4  -4   0 494.982 13.1213   3 
   4  -4   0 484.264 12.6693   6 
   4  -4   0 487.826 12.6041   2 
  -4   4   0 488.170 13.1099   5 
  -4   4   0 499.001 12.8635   1 
   3  -4   0 162.070 4.35841   6 
   3  -4   0 159.707 4.45331   2 
   3  -4   0 161.483 4.78571   3 
   3  -4   0 166.040 4.38129   6 
   3  -4   0 155.956 4.72499   5 
   3  -4   0 161.729 5.08337   4 
  -3   4   0 160.561 4.55247   1 
  -3   4   0 163.179 4.75641   5 
   2  -4   0 176.999 4.71624   6 
   2  -4   0 183.498 5.16213   3 
   2  -4   0 177.275 5.35365   4 
   2  -4   0 181.408 5.09068   5 
   2  -4   0 184.565 4.72936   6 
   2  -4   0 174.332 4.94815   2 
  -2   4   0 182.988 4.95884   1 
   1  -4   0 107.721 2.77344   6 
   1  -4   0 104.620 3.11563   2 
   1  -4   0 103.713 3.09586   5 
   1  -4   0 102.336 3.32298   4 
   1  -4   0 104.116 2.99527   1 
   1  -4   0 108.864 3.22809   3 
   1  -4   0 106.827 2.77703   6 
   0  -4   0 395.832 10.2775   5 
   0  -4   0 395.003 10.4182   2 
   0  -4   0 403.151 10.2699   1 
   0  -4   0 398.396 10.4577   3 
   0  -4   0 395.524 10.5075   4 
  -1  -4   0 2.74097 0.26754   5 
  -1  -4   0 3.24375 0.42506   2 
  -1  -4   0 4.11201 0.27984   6 
  -1  -4   0 2.90704 0.39709   3 
  -1  -4   0 3.82287 0.29869   6 
  -1  -4   0 2.75409 0.33741   1 
   1   4   0 2.77314 0.38127   4 
  -2  -4   0 724.785 18.7718   6 
  -2  -4   0 770.526 18.7697   5 
  -2  -4   0 724.770 18.7584   6 
  -2  -4   0 705.160 19.0067   2 
  -2  -4   0 737.886 18.9017   1 
   2   4   0 746.759 19.0548   3 
   2   4   0 781.080 18.9645   4 
  -3  -4   0 331.654 9.00158   6 
  -3  -4   0 330.509 9.18002   2 
  -3  -4   0 363.470 8.88093   5 
  -3  -4   0 335.081 9.01104   6 
  -3  -4   0 344.131 9.14963   1 
   3   4   0 345.866 9.04138   6 
   3   4   0 369.383 9.13544   4 
   3   4   0 356.816 9.29129   3 
  -4  -4   0 430.193 10.8453   5 
  -4  -4   0 407.230 11.0444   6 
  -4  -4   0 426.180 11.1718   1 
  -4  -4   0 409.717 11.1359   2 
   4   4   0 427.436 11.0888   6 
   4   4   0 437.697 11.1519   4 
   4   4   0 433.326 11.3056   3 
  -5  -4   0 105.165 3.24197   2 
  -5  -4   0 102.842 3.29774   1 
  -5  -4   0 107.605 3.24954   6 
  -5  -4   0 108.011 3.02756   5 
   5   4   0 109.702 3.27495   6 
   5   4   0 105.390 3.43633   3 
   5   4   0 107.779 3.31033   4 
  -6  -4   0 474.973 12.3619   5 
  -6  -4   0 471.270 12.4685   2 
  -6  -4   0 481.659 12.5924   6 
  -6  -4   0 454.958 12.6084   1 
   6   4   0 482.119 12.7048   4 
   6   4   0 479.990 12.8156   3 
   6   4   0 488.680 12.6376   6 
  -7  -4   0 68.4745 2.31644   5 
  -7  -4   0 67.1913 2.47029   6 
  -7  -4   0 65.5738 2.49244   1 
  -7  -4   0 65.7351 2.29444   2 
   7   4   0 66.9022 2.60521   4 
   7   4   0 66.1532 2.50410   6 
   7   4   0 67.6343 2.66773   3 
  -8  -4   0 325.580 9.10088   1 
  -8  -4   0 317.723 9.05235   6 
  -8  -4   0 330.354 8.72516   2 
  -8  -4   0 323.855 8.86658   5 
   8   4   0 327.705 9.30105   4 
   8   4   0 333.277 9.17856   6 
   8   4   0 316.588 9.28279   3 
  -9  -4   0 26.0075 1.57644   1 
  -9  -4   0 23.0631 1.44894   5 
   9   4   0 26.8880 1.62350   6 
   9   4   0 23.7317 1.84490   4 
   9   4   0 22.8841 1.77618   3 
 -10  -4   0 95.1050 3.60068   1 
 -10  -4   0 95.9133 3.42283   5 
  10   4   0 95.7027 3.80763   3 
  10   4   0 97.9765 3.93065   4 
 -11  -4   0 10.7155 1.15528   5 
 -11  -4   0 10.8679 1.26354   1 
  11   4   0 9.22951 1.35371   3 
  11   4   0 11.6496 1.51500   4 
 -12  -4   0 38.8382 2.26033   1 
  12   4   0 35.2885 2.45988   3 
  12   4   0 34.8669 2.61815   4 
 -13  -4   0 11.2043 1.46519   1 
  13   4   0 11.7147 1.65154   3 
  14   4   0 27.1056 2.41217   3 
   9  -5   0 51.1780 2.29755   6 
   9  -5   0 53.9935 3.37804   4 
  -9   5   0 56.0429 2.90534   5 
   8  -5   0 73.1704 2.84786   6 
   8  -5   0 77.5145 3.94599   4 
   8  -5   0 85.4483 3.51202   3 
  -8   5   0 83.0829 3.50079   5 
   7  -5   0 16.5144 1.08910   6 
   7  -5   0 16.7953 1.60330   3 
   7  -5   0 14.2920 1.69066   4 
  -7   5   0 17.9608 1.54022   5 
   6  -5   0 2.27274 0.75448   3 
   6  -5   0 2.24220 0.50658   6 
   6  -5   0 1.61254 0.85634   4 
  -6   5   0 2.07031 0.72957   5 
  -6   5   0 2.00886 0.58201   1 
   5  -5   0 390.738 10.7669   3 
   5  -5   0 381.839 10.1724   6 
   5  -5   0 375.514 11.2191   4 
  -5   5   0 398.285 10.4149   1 
  -5   5   0 377.148 10.7302   5 
   4  -5   0 60.1870 2.80496   4 
   4  -5   0 63.0510 2.02757   6 
   4  -5   0 64.7706 2.03451   6 
   4  -5   0 66.7685 2.59039   3 
  -4   5   0 64.8746 2.27807   1 
  -4   5   0 62.1395 2.49379   5 
   3  -5   0 146.829 3.97154   6 
   3  -5   0 148.584 4.86045   4 
   3  -5   0 149.121 4.48521   5 
   3  -5   0 144.890 3.97483   6 
   3  -5   0 142.226 4.19436   2 
   3  -5   0 143.178 4.53413   3 
  -3   5   0 151.758 4.50201   5 
  -3   5   0 146.800 4.26263   1 
   2  -5   0 188.483 4.87814   6 
   2  -5   0 190.081 5.35935   5 
   2  -5   0 189.578 5.46535   3 
   2  -5   0 180.745 5.22819   2 
   2  -5   0 182.401 5.65341   4 
   2  -5   0 189.197 4.86951   6 
  -2   5   0 183.997 5.19442   1 
  -2   5   0 187.914 5.35144   5 
   1  -5   0 150.666 4.32546   2 
   1  -5   0 143.878 4.39093   3 
   1  -5   0 149.666 4.15388   1 
   1  -5   0 149.133 4.56168   4 
   1  -5   0 148.004 4.26236   5 
   0  -5   0 115.395 3.60415   4 
   0  -5   0 115.804 3.51364   2 
   0  -5   0 116.818 3.34309   5 
   0  -5   0 117.458 3.55291   3 
   0  -5   0 113.567 3.31226   1 
  -1  -5   0 723.635 18.7318   2 
  -1  -5   0 732.676 18.4520   5 
  -1  -5   0 749.691 18.3595   6 
  -1  -5   0 710.890 18.5233   1 
  -1  -5   0 716.151 18.7342   3 
  -1  -5   0 722.790 18.3129   6 
   1   5   0 721.708 18.7269   4 
  -2  -5   0 38.9090 1.26535   6 
  -2  -5   0 40.8763 1.29427   6 
  -2  -5   0 41.2035 1.48649   1 
  -2  -5   0 40.9276 1.27229   5 
  -2  -5   0 37.7608 1.62176   2 
   2   5   0 41.9844 1.53066   4 
   2   5   0 41.0239 1.65136   3 
  -3  -5   0 343.795 8.75753   6 
  -3  -5   0 328.961 9.02249   2 
  -3  -5   0 320.635 8.72161   6 
  -3  -5   0 347.275 8.59732   5 
  -3  -5   0 331.583 8.91598   1 
   3   5   0 335.809 9.08614   3 
   3   5   0 339.767 8.88180   4 
  -4  -5   0 522.677 14.2691   1 
  -4  -5   0 527.774 14.1256   6 
  -4  -5   0 569.413 13.9253   5 
  -4  -5   0 544.197 14.3543   2 
  -4  -5   0 534.203 14.1398   6 
   4   5   0 557.717 14.1772   6 
   4   5   0 564.655 14.4866   3 
   4   5   0 561.437 14.2474   4 
  -5  -5   0 282.927 7.32726   5 
  -5  -5   0 284.375 7.76228   2 
  -5  -5   0 266.418 7.61573   6 
  -5  -5   0 288.128 7.77401   1 
   5   5   0 285.585 7.71542   4 
   5   5   0 285.069 7.66781   6 
   5   5   0 283.791 7.92837   3 
  -6  -5   0 108.841 3.54329   2 
  -6  -5   0 110.258 3.61190   1 
  -6  -5   0 114.398 3.24452   5 
  -6  -5   0 111.983 3.54077   6 
   6   5   0 114.022 3.81702   3 
   6   5   0 121.301 3.60860   6 
   6   5   0 114.452 3.59835   4 
  -7  -5   0 315.827 8.56800   2 
  -7  -5   0 309.593 8.73387   1 
  -7  -5   0 305.168 8.64254   6 
  -7  -5   0 323.717 8.35639   5 
   7   5   0 308.811 8.74617   4 
   7   5   0 307.609 8.92105   3 
   7   5   0 321.044 8.72922   6 
  -8  -5   0 85.8204 3.03433   6 
  -8  -5   0 83.1660 2.73686   5 
  -8  -5   0 81.0759 3.05117   1 
  -8  -5   0 84.4169 2.82717   2 
   8   5   0 85.0476 3.16110   4 
   8   5   0 77.4706 3.21129   3 
  -9  -5   0 123.606 4.21016   1 
  -9  -5   0 125.060 3.88935   5 
   9   5   0 125.250 4.35680   4 
   9   5   0 117.289 4.36061   3 
 -10  -5   0 -0.8101 0.50750   5 
 -10  -5   0 -1.0267 0.59300   1 
  10   5   0 -0.4295 0.76892   4 
  10   5   0 -0.8861 0.78185   3 
 -11  -5   0 73.1333 3.22746   1 
  11   5   0 74.8531 3.45571   3 
  11   5   0 84.6430 3.60692   4 
 -12  -5   0 5.51329 1.11885   1 
  12   5   0 5.92188 1.28178   3 
 -13  -5   0 11.4124 1.47381   1 
  13   5   0 6.57395 1.47224   3 
 -14  -5   0 3.62107 1.13877   1 
  14   5   0 4.49500 1.36148   3 
   9  -6   0 3.50761 1.27467   4 
   9  -6   0 3.34250 0.75189   6 
  -9   6   0 4.73435 1.13152   5 
   8  -6   0 57.8475 3.44451   4 
   8  -6   0 53.2628 2.24013   6 
  -8   6   0 62.0909 3.01070   5 
   7  -6   0 87.3812 3.56413   3 
   7  -6   0 83.2680 2.85018   6 
   7  -6   0 81.4369 3.98951   4 
  -7   6   0 81.6638 3.50129   5 
   6  -6   0 38.3659 2.55288   4 
   6  -6   0 36.8023 2.22742   3 
   6  -6   0 40.4936 1.62256   6 
  -6   6   0 41.0098 2.19300   5 
   5  -6   0 1.74401 0.71751   3 
   5  -6   0 1.36853 0.85005   4 
   5  -6   0 1.57078 0.41469   6 
  -5   6   0 2.52483 0.57349   1 
  -5   6   0 1.28370 0.67486   5 
   4  -6   0 555.349 14.2815   6 
   4  -6   0 537.354 15.4387   4 
   4  -6   0 553.940 14.2659   6 
   4  -6   0 566.257 15.0667   3 
  -4   6   0 558.528 14.9919   5 
  -4   6   0 563.938 14.6657   1 
   3  -6   0 5.23472 0.41077   6 
   3  -6   0 6.76007 0.86386   3 
   3  -6   0 5.99170 0.94769   4 
  -3   6   0 5.36704 0.77787   5 
  -3   6   0 5.40031 0.61848   1 
   2  -6   0 383.237 9.51097   6 
   2  -6   0 359.174 9.99140   2 
   2  -6   0 379.226 9.50707   6 
   2  -6   0 375.429 10.1079   5 
   2  -6   0 365.325 10.2009   3 
   2  -6   0 364.833 10.4551   4 
  -2   6   0 378.321 9.93752   1 
  -2   6   0 369.510 10.0873   5 
   1  -6   0 32.0846 1.40350   5 
   1  -6   0 30.7555 1.51407   3 
   1  -6   0 32.4765 1.30330   1 
   1  -6   0 31.3135 1.68671   4 
   1  -6   0 30.8079 1.46225   2 
  -1   6   0 30.1788 1.38408   5 
   0  -6   0 420.299 11.4443   3 
   0  -6   0 427.662 11.1854   5 
   0  -6   0 425.904 11.1650   1 
   0  -6   0 430.956 11.5465   4 
   0  -6   0 428.347 11.4246   2 
  -1  -6   0 16.3503 1.08527   2 
  -1  -6   0 15.8332 0.57452   6 
  -1  -6   0 16.9205 0.61550   6 
  -1  -6   0 15.6361 0.81873   5 
  -1  -6   0 14.1824 0.87324   1 
  -1  -6   0 16.4251 1.08616   3 
   1   6   0 16.4800 1.05710   4 
  -2  -6   0 1181.37 30.1755   3 
  -2  -6   0 1179.60 29.7224   5 
  -2  -6   0 1165.06 30.1450   2 
  -2  -6   0 1153.79 29.6437   6 
  -2  -6   0 1190.68 29.9202   1 
  -2  -6   0 1210.35 29.7004   6 
   2   6   0 1154.75 30.0241   4 
   2   6   0 1183.09 30.1763   3 
  -3  -6   0 23.0917 0.97976   6 
  -3  -6   0 20.7431 1.25149   2 
  -3  -6   0 24.7495 0.85109   5 
  -3  -6   0 21.5703 0.93152   6 
  -3  -6   0 23.0027 1.15013   1 
   3   6   0 22.6891 1.31954   3 
   3   6   0 22.3900 1.13959   4 
  -4  -6   0 409.312 11.0110   6 
  -4  -6   0 422.198 11.3391   2 
  -4  -6   0 409.104 10.9883   6 
  -4  -6   0 420.898 11.2222   1 
  -4  -6   0 436.148 10.7725   5 
   4   6   0 428.139 11.1520   4 
   4   6   0 426.223 11.4292   3 
  -5  -6   0 203.315 5.15613   5 
  -5  -6   0 189.380 5.70701   2 
  -5  -6   0 191.376 5.50555   6 
  -5  -6   0 187.812 5.64560   1 
   5   6   0 200.610 5.60164   4 
   5   6   0 203.746 5.90308   3 
  -6  -6   0 152.644 4.51540   6 
  -6  -6   0 145.666 4.60285   2 
  -6  -6   0 154.300 4.66458   1 
  -6  -6   0 153.199 4.11055   5 
   6   6   0 150.269 4.83239   3 
   6   6   0 153.985 4.57837   4 
  -7  -6   0 30.0158 1.60439   2 
  -7  -6   0 32.1206 1.24229   5 
  -7  -6   0 31.0582 1.66212   1 
  -7  -6   0 31.4385 1.58332   6 
   7   6   0 30.9872 1.85683   3 
   7   6   0 33.8283 1.68975   4 
  -8  -6   0 198.294 6.00818   1 
  -8  -6   0 199.360 5.49101   5 
  -8  -6   0 202.243 5.85829   2 
  -8  -6   0 199.749 5.92467   6 
   8   6   0 189.121 6.18912   3 
   8   6   0 196.518 5.97362   4 
  -9  -6   0 33.0848 1.77603   6 
  -9  -6   0 28.4023 1.74661   1 
  -9  -6   0 33.1656 1.60895   2 
   9   6   0 29.0248 1.95441   3 
   9   6   0 32.5736 1.88547   4 
 -10  -6   0 122.858 4.32721   1 
  10   6   0 115.123 4.50782   3 
  10   6   0 127.521 4.51492   4 
 -11  -6   0 -0.1693 0.77289   1 
  11   6   0 1.30726 0.97929   3 
 -12  -6   0 26.7994 1.95678   1 
  12   6   0 26.1703 2.15591   3 
 -13  -6   0 0.93123 0.88244   1 
  13   6   0 -0.0948 1.00942   3 
  14   6   0 30.5334 2.55332   3 
   8  -7   0 1.95633 1.15060   4 
   8  -7   0 2.49626 0.60673   6 
  -8   7   0 2.48897 0.97089   5 
   7  -7   0 68.8447 2.38996   6 
   7  -7   0 65.3876 3.66219   4 
  -7   7   0 68.2889 3.20596   5 
   6  -7   0 -0.8222 0.67517   3 
   6  -7   0 -0.4333 0.33227   6 
   6  -7   0 -0.9894 0.74476   4 
  -6   7   0 -0.2361 0.60199   5 
   5  -7   0 247.704 8.24649   4 
   5  -7   0 255.012 6.84510   6 
   5  -7   0 261.668 7.83714   3 
  -5   7   0 255.622 7.75118   5 
   4  -7   0 86.1045 3.35431   3 
   4  -7   0 82.3025 3.68065   4 
   4  -7   0 86.9812 2.50369   6 
  -4   7   0 84.0325 2.96182   1 
  -4   7   0 87.7177 3.30930   5 
   3  -7   0 279.264 8.63004   4 
   3  -7   0 277.243 7.91811   2 
   3  -7   0 290.374 7.37514   6 
   3  -7   0 290.204 7.37764   6 
   3  -7   0 281.183 8.27961   3 
  -3   7   0 283.854 8.18172   5 
  -3   7   0 291.893 7.94568   1 
   2  -7   0 110.583 3.63657   5 
   2  -7   0 107.088 4.01016   4 
   2  -7   0 105.029 3.55894   2 
   2  -7   0 111.480 3.79560   3 
  -2   7   0 111.335 3.49152   1 
  -2   7   0 113.769 3.68137   5 
   1  -7   0 522.911 14.0838   2 
   1  -7   0 526.826 13.8446   1 
   1  -7   0 524.302 13.9868   5 
   1  -7   0 531.476 14.3982   4 
   1  -7   0 532.250 14.2326   3 
  -1   7   0 537.274 14.0026   5 
   0  -7   0 0.82574 0.52841   4 
   0  -7   0 0.76510 0.44041   3 
   0  -7   0 1.75674 0.41093   5 
   0  -7   0 0.91533 0.45391   2 
   0  -7   0 0.95439 0.38431   1 
   0   7   0 0.63908 0.55593   4 
  -1  -7   0 368.182 10.2885   3 
  -1  -7   0 372.724 9.90481   5 
  -1  -7   0 382.743 10.3157   2 
  -1  -7   0 375.233 9.98505   1 
  -1  -7   0 385.051 9.61753   6 
  -1  -7   0 367.465 9.57359   6 
   1   7   0 380.058 10.3161   4 
  -2  -7   0 5.65998 0.40828   6 
  -2  -7   0 5.50792 0.45436   5 
  -2  -7   0 5.17129 0.70750   2 
  -2  -7   0 6.33550 0.60195   1 
  -2  -7   0 5.83148 0.71485   3 
  -2  -7   0 5.39731 0.40783   6 
   2   7   0 4.14405 0.67676   3 
   2   7   0 5.28811 0.64889   4 
  -3  -7   0 194.159 5.28222   6 
  -3  -7   0 193.676 5.21732   5 
  -3  -7   0 199.886 5.83842   2 
  -3  -7   0 194.599 5.30888   6 
  -3  -7   0 198.811 5.59334   1 
   3   7   0 196.621 5.86580   3 
   3   7   0 197.692 5.62012   4 
  -4  -7   0 354.271 9.48208   6 
  -4  -7   0 364.284 9.25683   5 
  -4  -7   0 360.426 9.52062   6 
  -4  -7   0 375.818 9.98707   2 
  -4  -7   0 362.443 9.76379   1 
   4   7   0 359.690 9.70375   4 
   4   7   0 347.323 9.98376   3 
  -5  -7   0 385.148 10.4274   1 
  -5  -7   0 384.736 10.5522   2 
  -5  -7   0 388.326 9.82117   5 
  -5  -7   0 379.793 10.2125   6 
   5   7   0 387.640 10.6762   3 
   5   7   0 377.011 10.3046   4 
  -6  -7   0 0.00757 0.44106   1 
  -6  -7   0 -0.4199 0.53075   2 
  -6  -7   0 0.68227 0.43376   6 
   6   7   0 -0.8629 0.45566   4 
   6   7   0 -0.2875 0.48541   3 
  -7  -7   0 265.096 7.57634   1 
  -7  -7   0 256.738 7.41008   6 
  -7  -7   0 262.910 7.54116   2 
   7   7   0 269.731 7.49019   4 
   7   7   0 256.223 7.79291   3 
  -8  -7   0 -0.0801 0.53560   2 
  -8  -7   0 0.58480 0.53434   6 
  -8  -7   0 -1.0011 0.50526   1 
   8   7   0 -0.1365 0.70717   3 
   8   7   0 0.04852 0.59939   4 
  -9  -7   0 115.909 4.15080   1 
  -9  -7   0 125.138 4.07743   2 
  -9  -7   0 127.098 4.17452   6 
   9   7   0 115.856 4.42743   3 
 -10  -7   0 21.3253 1.55309   6 
 -10  -7   0 16.9313 1.42866   1 
  10   7   0 18.5012 1.69974   3 
 -11  -7   0 23.7925 1.76030   1 
  11   7   0 20.4136 1.95897   3 
 -12  -7   0 6.57057 1.14762   1 
  12   7   0 4.27060 1.21032   3 
 -13  -7   0 35.3976 2.33460   1 
  13   7   0 33.5841 2.59690   3 
  14   7   0 -0.5182 1.12725   3 
   7  -8   0 9.92870 0.76728   6 
   7  -8   0 12.6122 1.77978   4 
  -7   8   0 10.5893 1.38416   5 
   6  -8   0 84.6644 2.62174   6 
   6  -8   0 87.2907 4.16325   4 
  -6   8   0 81.4356 3.59255   5 
   5  -8   0 2.59422 0.40938   6 
   5  -8   0 2.77937 0.83818   3 
   5  -8   0 2.96714 1.09047   4 
  -5   8   0 2.50256 0.88547   5 
   4  -8   0 203.121 7.03256   4 
   4  -8   0 211.014 6.67363   3 
   4  -8   0 211.223 5.52396   6 
  -4   8   0 211.386 6.57163   5 
   3  -8   0 -0.9626 0.66489   4 
   3  -8   0 0.01474 0.58163   3 
  -3   8   0 -1.7951 0.51727   5 
   2  -8   0 380.623 10.9192   3 
   2  -8   0 381.050 10.6750   2 
   2  -8   0 384.678 11.1907   4 
  -2   8   0 389.406 10.7405   5 
  -2   8   0 403.638 10.5708   1 
   1  -8   0 265.179 7.81597   3 
   1  -8   0 266.342 7.69209   2 
   1  -8   0 262.598 7.38420   1 
   1  -8   0 264.378 7.55230   5 
   1  -8   0 273.678 8.03952   4 
  -1   8   0 270.175 7.57194   5 
   0  -8   0 151.743 4.84133   2 
   0  -8   0 152.631 4.91666   3 
   0  -8   0 150.605 4.57362   5 
   0  -8   0 154.234 4.54470   1 
   0  -8   0 155.781 5.02117   4 
   0   8   0 156.781 5.03114   4 
   0   8   0 155.127 4.59501   5 
  -1  -8   0 110.410 3.83267   3 
  -1  -8   0 108.943 3.01000   6 
  -1  -8   0 115.330 3.84954   2 
  -1  -8   0 118.147 3.05993   6 
  -1  -8   0 113.318 3.53068   1 
  -1  -8   0 116.277 3.46724   5 
   1   8   0 111.311 3.84147   4 
  -2  -8   0 22.6596 0.90100   6 
  -2  -8   0 20.6963 1.20644   1 
  -2  -8   0 22.7976 1.05302   5 
  -2  -8   0 20.2755 1.45123   3 
  -2  -8   0 23.1023 0.83482   6 
  -2  -8   0 20.5880 1.40772   2 
   2   8   0 24.3116 1.39197   4 
   2   8   0 21.5142 1.52004   3 
  -3  -8   0 36.3607 1.88222   2 
  -3  -8   0 37.1908 1.31278   6 
  -3  -8   0 36.9625 1.64643   1 
  -3  -8   0 36.1739 1.36748   6 
  -3  -8   0 37.7228 1.34136   5 
   3   8   0 40.1352 1.74390   4 
   3   8   0 37.7035 1.91961   3 
  -4  -8   0 141.146 4.11595   6 
  -4  -8   0 141.807 4.61639   2 
  -4  -8   0 149.561 4.42670   1 
   4   8   0 141.058 4.67820   3 
   4   8   0 142.716 4.37227   4 
  -5  -8   0 1.86934 0.55337   1 
  -5  -8   0 0.45857 0.48844   2 
  -5  -8   0 1.51774 0.41221   6 
   5   8   0 0.46442 0.63481   3 
   5   8   0 0.93241 0.52487   4 
  -6  -8   0 173.258 5.12454   6 
  -6  -8   0 169.992 5.42080   2 
  -6  -8   0 176.977 5.35639   1 
   6   8   0 173.510 5.61763   3 
   6   8   0 179.298 5.24075   4 
  -7  -8   0 -0.5281 0.50297   1 
  -7  -8   0 0.31845 0.45562   6 
  -7  -8   0 0.52282 0.58039   2 
   7   8   0 -0.6599 0.46223   4 
   7   8   0 0.11141 0.64557   3 
  -8  -8   0 284.299 8.21945   2 
  -8  -8   0 288.162 8.09203   6 
  -8  -8   0 288.321 8.24617   1 
   8   8   0 266.931 8.45123   3 
  -9  -8   0 5.15428 0.95957   1 
  -9  -8   0 4.64783 0.88662   2 
  -9  -8   0 6.63599 0.91697   6 
   9   8   0 6.67992 1.15498   3 
 -10  -8   0 106.416 3.83801   6 
 -10  -8   0 107.010 3.78245   2 
 -10  -8   0 98.1052 3.83944   1 
  10   8   0 99.3725 4.15655   3 
 -11  -8   0 1.32811 0.82625   1 
  11   8   0 0.27514 1.01501   3 
 -12  -8   0 37.5084 2.30654   1 
  12   8   0 36.6879 2.52570   3 
 -13  -8   0 1.58739 0.93938   1 
  13   8   0 -1.0854 1.03520   3 
   6  -9   0 9.53238 1.62153   4 
  -6   9   0 11.4580 1.40928   5 
   5  -9   0 187.929 6.92454   4 
  -5   9   0 192.579 6.39728   5 
   4  -9   0 6.78874 1.05058   3 
   4  -9   0 5.98128 1.30432   4 
  -4   9   0 6.24121 1.06092   5 
   3  -9   0 244.520 7.50920   3 
   3  -9   0 237.624 7.82324   4 
  -3   9   0 239.076 7.31368   5 
   2  -9   0 0.90736 0.54715   2 
   2  -9   0 0.37747 0.72272   4 
   2  -9   0 0.30102 0.59482   3 
  -2   9   0 -0.1113 0.56365   5 
   1  -9   0 238.408 6.81387   1 
   1  -9   0 238.195 7.14964   2 
   1  -9   0 240.167 7.48731   4 
   1  -9   0 237.540 7.28627   3 
  -1   9   0 252.600 6.95023   1 
  -1   9   0 239.990 7.01083   5 
  -1   9   0 231.547 7.46063   4 
   0  -9   0 114.860 4.00236   2 
   0  -9   0 107.465 3.97921   3 
   0  -9   0 118.993 3.72245   5 
   0   9   0 108.908 4.12468   4 
   0   9   0 119.858 3.74034   5 
  -1  -9   0 43.4079 2.12260   2 
  -1  -9   0 42.3128 2.12205   3 
  -1  -9   0 45.3226 1.85609   1 
  -1  -9   0 42.7910 1.75390   5 
   1   9   0 43.5360 2.16213   4 
   1   9   0 41.7595 1.75572   5 
   1   9   0 39.7424 2.11369   3 
  -2  -9   0 11.2333 0.57044   6 
  -2  -9   0 12.9702 0.85393   5 
  -2  -9   0 10.4940 1.04106   2 
  -2  -9   0 11.0276 0.89815   1 
  -2  -9   0 12.1941 0.64048   6 
   2   9   0 10.7590 1.10311   3 
   2   9   0 12.0282 1.13246   4 
  -3  -9   0 154.390 4.19148   6 
  -3  -9   0 140.043 4.81819   2 
  -3  -9   0 153.132 4.12800   6 
  -3  -9   0 150.395 4.57523   1 
   3   9   0 145.499 4.91263   3 
   3   9   0 149.216 4.69106   4 
  -4  -9   0 70.5928 2.63692   1 
  -4  -9   0 71.2353 2.33572   6 
  -4  -9   0 69.8532 2.87172   2 
   4   9   0 71.9042 2.97789   3 
   4   9   0 72.2063 2.69586   4 
  -5  -9   0 192.187 5.95082   2 
  -5  -9   0 187.399 5.39935   6 
  -5  -9   0 194.841 5.73637   1 
   5   9   0 185.779 6.00888   3 
   5   9   0 187.516 5.63168   4 
  -6  -9   0 11.4272 1.03994   1 
  -6  -9   0 9.50929 0.80195   6 
  -6  -9   0 7.39690 0.96268   2 
   6   9   0 10.1994 1.18281   3 
  -7  -9   0 37.5059 1.75626   6 
  -7  -9   0 37.5551 1.94653   1 
  -7  -9   0 36.2448 1.98718   2 
   7   9   0 34.9701 2.14946   3 
  -8  -9   0 3.49221 0.85072   1 
  -8  -9   0 2.15043 0.65857   6 
  -8  -9   0 1.28822 0.77336   2 
   8   9   0 2.66741 0.94185   3 
  -9  -9   0 311.095 8.95757   6 
  -9  -9   0 308.712 9.08881   1 
  -9  -9   0 322.473 9.15045   2 
   9   9   0 301.336 9.41758   3 
 -10  -9   0 -0.1177 0.78464   1 
 -10  -9   0 -0.7369 0.67260   2 
 -10  -9   0 0.08779 0.63491   6 
  10   9   0 1.51927 1.05110   3 
 -11  -9   0 79.6741 3.39667   1 
  11   9   0 77.5183 3.69927   3 
 -12  -9   0 30.0901 2.08151   1 
  12   9   0 23.5057 2.23893   3 
 -13  -9   0 22.3404 1.94867   1 
  13   9   0 25.4316 2.27021   3 
   5 -10   0 -0.4471 0.82434   4 
  -5  10   0 0.15441 0.73974   5 
   4 -10   0 56.8670 3.26580   4 
  -4  10   0 60.4757 2.90227   5 
   3 -10   0 -0.2922 0.73212   4 
  -3  10   0 -0.7850 0.65144   5 
  -3  10   0 -0.6005 0.80525   4 
   2 -10   0 189.757 6.20446   3 
   2 -10   0 183.307 6.44091   4 
  -2  10   0 190.799 6.52749   4 
  -2  10   0 185.380 5.94108   5 
   1 -10   0 58.2049 2.84845   4 
   1 -10   0 51.1295 2.57660   3 
   1 -10   0 49.6549 2.46878   2 
  -1  10   0 54.8001 2.39859   5 
  -1  10   0 54.7930 2.80594   4 
   0 -10   0 86.8706 3.38367   2 
   0 -10   0 84.7063 2.99342   1 
   0 -10   0 83.8241 3.40043   3 
   0  10   0 83.8358 3.51339   4 
  -1 -10   0 -0.5278 0.57927   2 
  -1 -10   0 0.12771 0.49980   3 
  -1 -10   0 0.06580 0.42522   1 
   1  10   0 0.02670 0.64039   3 
   1  10   0 0.67700 0.71467   4 
  -2 -10   0 172.276 5.48586   2 
  -2 -10   0 171.578 5.08454   1 
  -2 -10   0 167.701 4.47027   6 
  -2 -10   0 163.599 4.41062   6 
   2  10   0 158.647 5.46551   3 
   2  10   0 162.171 5.35009   4 
  -3 -10   0 0.54626 0.45601   1 
  -3 -10   0 0.73286 0.34093   6 
  -3 -10   0 0.03107 0.61158   2 
   3  10   0 0.64577 0.69387   3 
   3  10   0 0.45427 0.61113   4 
  -4 -10   0 206.788 6.16834   1 
  -4 -10   0 204.528 6.47234   2 
  -4 -10   0 211.007 5.75760   6 
   4  10   0 204.007 6.56551   3 
  -5 -10   0 0.51434 0.65634   2 
  -5 -10   0 1.61584 0.62338   1 
  -5 -10   0 0.67839 0.39755   6 
   5  10   0 0.13777 0.69338   3 
  -6 -10   0 128.419 4.04687   6 
  -6 -10   0 131.752 4.37331   1 
  -6 -10   0 132.993 4.58578   2 
   6  10   0 126.382 4.68708   3 
  -7 -10   0 107.182 3.64200   6 
  -7 -10   0 110.125 4.08628   2 
  -7 -10   0 111.205 3.91021   1 
   7  10   0 110.319 4.27246   3 
  -8 -10   0 39.2646 2.21189   2 
  -8 -10   0 39.2661 2.05648   1 
  -8 -10   0 34.7328 1.83308   6 
   8  10   0 32.5737 2.26561   3 
  -9 -10   0 1.00650 0.82824   2 
  -9 -10   0 1.32403 0.71843   6 
  -9 -10   0 1.05776 0.78029   1 
   9  10   0 -0.5218 0.92540   3 
 -10 -10   0 138.913 4.74964   6 
 -10 -10   0 144.977 4.95598   2 
 -10 -10   0 135.803 4.86858   1 
  10  10   0 131.207 5.20734   3 
 -11 -10   0 5.15180 1.09776   1 
 -11 -10   0 4.37394 1.02946   6 
  11  10   0 7.39262 1.47777   3 
 -12 -10   0 33.5328 2.25384   1 
  12  10   0 32.6865 2.51191   3 
  13  10   0 3.68383 1.42155   3 
   4 -11   0 11.7855 1.66389   4 
  -4  11   0 12.2607 1.40799   5 
  -4  11   0 13.5622 1.79272   4 
   3 -11   0 33.3341 2.45900   4 
  -3  11   0 28.3137 2.44121   4 
   2 -11   0 4.30218 1.05416   4 
   2 -11   0 3.08669 0.88047   3 
  -2  11   0 4.07132 1.11567   4 
   1 -11   0 66.4131 3.10734   3 
  -1  11   0 70.3259 3.37528   4 
   0 -11   0 56.1767 2.75084   3 
   0 -11   0 57.9126 2.70987   2 
   0  11   0 53.8373 2.80691   3 
   0  11   0 55.1104 2.87838   4 
  -1 -11   0 165.539 5.74575   3 
  -1 -11   0 171.425 5.27585   1 
  -1 -11   0 177.045 5.75392   2 
   1  11   0 173.786 5.82417   3 
   1  11   0 165.988 5.74141   4 
  -2 -11   0 0.35256 0.50298   1 
  -2 -11   0 0.25551 0.67433   2 
   2  11   0 0.12112 0.68332   3 
  -3 -11   0 236.425 6.41148   6 
  -3 -11   0 243.248 7.03851   1 
  -3 -11   0 243.988 7.47720   2 
   3  11   0 232.666 7.51316   3 
  -4 -11   0 29.2858 1.30112   6 
  -4 -11   0 29.6718 1.69232   1 
  -4 -11   0 30.5316 1.99353   2 
   4  11   0 24.5084 1.93052   3 
  -5 -11   0 261.348 7.66826   1 
  -5 -11   0 268.602 7.23073   6 
  -5 -11   0 250.283 7.96184   2 
   5  11   0 257.721 8.10884   3 
  -6 -11   0 -1.0645 0.67869   2 
  -6 -11   0 0.13554 0.47788   6 
  -6 -11   0 0.93834 0.63787   1 
   6  11   0 -0.5192 0.80866   3 
  -7 -11   0 146.592 4.57797   6 
  -7 -11   0 147.217 5.12672   2 
  -7 -11   0 148.583 4.91261   1 
   7  11   0 136.297 5.22625   3 
  -8 -11   0 15.4942 1.26075   6 
  -8 -11   0 16.4099 1.50809   2 
  -8 -11   0 16.7088 1.47074   1 
   8  11   0 14.6164 1.62453   3 
  -9 -11   0 89.3862 3.34505   6 
  -9 -11   0 92.2936 3.74809   2 
  -9 -11   0 86.1189 3.49829   1 
   9  11   0 80.7342 3.83200   3 
 -10 -11   0 11.9683 1.40628   2 
 -10 -11   0 12.8805 1.40540   1 
 -10 -11   0 11.3341 1.22212   6 
  10  11   0 11.5713 1.63367   3 
 -11 -11   0 23.9181 1.97431   2 
 -11 -11   0 25.3649 1.99886   1 
 -11 -11   0 25.6954 1.83517   6 
  11  11   0 22.6853 2.18936   3 
 -12 -11   0 22.4875 1.95871   1 
  12  11   0 27.4603 2.35909   3 
  -3  12   0 8.38773 1.51932   4 
  -2  12   0 27.0276 2.32920   4 
   1 -12   0 8.80725 1.20079   3 
  -1  12   0 9.62312 1.43872   4 
  -1  12   0 8.33150 1.39980   3 
   0 -12   0 76.8597 3.46295   3 
   0 -12   0 82.3056 3.47817   2 
   0  12   0 72.3483 3.47685   3 
  -1 -12   0 28.9206 2.06356   2 
   1  12   0 30.0366 2.16052   3 
  -2 -12   0 123.569 4.54178   2 
   2  12   0 109.846 4.50440   3 
  -3 -12   0 32.4348 1.20419   6 
  -3 -12   0 33.4982 2.14063   2 
  -3 -12   0 28.2618 1.72743   1 
   3  12   0 30.1553 2.15405   3 
  -4 -12   0 64.7538 2.73899   1 
  -4 -12   0 61.7088 3.02110   2 
  -4 -12   0 67.9803 2.21595   6 
   4  12   0 63.4034 3.12949   3 
  -5 -12   0 21.1969 1.55066   1 
  -5 -12   0 17.7436 1.62379   2 
  -5 -12   0 20.7315 1.17322   6 
   5  12   0 19.7926 1.86754   3 
  -6 -12   0 143.411 4.92095   1 
  -6 -12   0 147.757 4.50073   6 
  -6 -12   0 151.532 5.29325   2 
   6  12   0 141.011 5.38975   3 
  -7 -12   0 3.70763 1.03936   2 
  -7 -12   0 5.35499 0.77575   6 
  -7 -12   0 4.66274 0.98195   1 
   7  12   0 3.90909 1.18234   3 
  -8 -12   0 36.1458 2.13216   1 
  -8 -12   0 37.3148 2.32214   2 
  -8 -12   0 36.7985 1.87613   6 
   8  12   0 36.5422 2.52381   3 
  -9 -12   0 -0.9092 0.65197   1 
  -9 -12   0 -0.1647 0.57489   6 
  -9 -12   0 -0.5970 0.74731   2 
   9  12   0 -0.8151 0.86749   3 
 -10 -12   0 36.0427 2.34536   2 
 -10 -12   0 36.0545 2.03869   6 
 -10 -12   0 35.4843 2.19236   1 
  10  12   0 32.6567 2.51755   3 
 -11 -12   0 10.0696 1.42250   2 
 -11 -12   0 9.19529 1.32679   1 
 -11 -12   0 10.3918 1.28612   6 
  11  12   0 7.44963 1.44827   3 
 -12 -12   0 15.9975 1.54860   6 
   0  13   0 79.6504 3.77867   3 
  -1 -13   0 54.1090 2.83461   2 
   1  13   0 46.8151 2.87278   3 
  -2 -13   0 11.9762 1.43626   2 
   2  13   0 12.4399 1.56242   3 
  -3 -13   0 151.669 5.52991   2 
   3  13   0 154.900 5.71436   3 
  -4 -13   0 25.7414 1.13859   6 
  -4 -13   0 21.6311 1.89244   2 
  -4 -13   0 23.1394 1.64952   1 
   4  13   0 24.8272 2.06582   3 
  -5 -13   0 94.6853 3.65706   1 
  -5 -13   0 98.2583 3.09019   6 
  -5 -13   0 94.7865 4.02356   2 
   5  13   0 89.7132 4.08462   3 
  -6 -13   0 34.0442 1.60878   6 
  -6 -13   0 31.3238 2.23014   2 
  -6 -13   0 32.0046 1.96885   1 
   6  13   0 31.3321 2.43742   3 
  -7 -13   0 44.6595 2.45264   1 
  -7 -13   0 50.8715 2.14282   6 
  -7 -13   0 55.2735 2.85894   2 
   7  13   0 47.5309 2.93698   3 
  -8 -13   0 -0.6401 0.74706   2 
  -8 -13   0 0.39116 0.61781   6 
  -8 -13   0 0.66789 0.73393   1 
   8  13   0 -0.8778 0.91530   3 
  -9 -13   0 45.8110 2.51495   1 
  -9 -13   0 45.6481 2.66847   2 
  -9 -13   0 44.4230 2.18159   6 
   9  13   0 46.3175 2.90276   3 
 -10 -13   0 0.65081 0.79099   1 
 -10 -13   0 0.54884 0.60875   6 
 -10 -13   0 0.71798 0.84636   2 
  10  13   0 0.01065 1.03127   3 
 -11 -13   0 21.8995 1.67165   6 
 -11 -13   0 16.4014 1.68947   2 
  -1 -14   0 29.5615 2.18561   2 
   1  14   0 33.7701 2.45664   3 
  -2 -14   0 40.0136 2.55854   2 
   2  14   0 40.4468 2.74568   3 
  -3 -14   0 1.23367 0.81873   2 
   3  14   0 1.52375 1.13223   3 
  -4 -14   0 99.9086 2.95549   6 
  -4 -14   0 107.979 4.37900   2 
   4  14   0 99.6099 4.45448   3 
  -5 -14   0 -0.2532 0.37028   6 
  -5 -14   0 0.02128 0.75610   2 
   5  14   0 0.06135 0.91373   3 
  -6 -14   0 43.0629 2.64844   2 
  -6 -14   0 48.5687 2.46023   1 
  -6 -14   0 44.8531 1.88202   6 
   6  14   0 44.8496 2.92446   3 
  -7 -14   0 0.35032 0.80738   2 
  -7 -14   0 0.29859 0.51346   6 
  -7 -14   0 0.61386 0.71607   1 
   7  14   0 1.08458 1.08509   3 
  -8 -14   0 95.1223 3.93833   1 
  -8 -14   0 98.4026 3.51049   6 
   8  14   0 100.165 4.54483   3 
  -9 -14   0 3.70173 0.94058   1 
  -9 -14   0 3.01443 1.08760   2 
   9  14   0 3.77738 1.30825   3 
  -8 -15   0 10.6964 1.33577   1 
  -9 -14   1 53.8854 2.87242   1 
   8  14  -1 2.74599 1.23175   3 
  -8 -14   1 2.51751 0.88486   1 
  -8 -14   1 4.92941 1.21689   2 
   7  14  -1 17.9535 1.95058   3 
  -7 -14   1 18.1691 1.25834   6 
  -7 -14   1 20.5011 1.71858   1 
  -7 -14   1 19.2180 1.80758   2 
   6  14  -1 33.5447 2.54380   3 
  -6 -14   1 35.9058 2.46297   2 
  -6 -14   1 36.2057 2.18073   1 
  -6 -14   1 33.4349 1.56769   6 
   5  14  -1 37.7259 2.67738   3 
  -5 -14   1 37.9676 1.50700   6 
  -5 -14   1 39.7854 2.57325   2 
  -5 -14   1 37.1409 2.19713   1 
   4  14  -1 1.34241 1.07820   3 
  -4 -14   1 0.27807 0.81448   2 
   3  14  -1 143.857 5.72932   3 
  -3 -14   1 157.383 5.75393   2 
   2  14  -1 10.9904 1.53939   2 
   2  14  -1 11.7806 1.65941   3 
  -2 -14   1 11.3698 1.47354   2 
  11  13  -1 4.90590 1.22387   2 
 -11 -13   1 2.86392 1.08224   2 
  10  13  -1 8.71774 1.62214   3 
 -10 -13   1 8.72411 1.26971   1 
 -10 -13   1 7.74325 1.05890   6 
 -10 -13   1 9.08294 1.35942   2 
   9  13  -1 -0.3878 0.99738   3 
  -9 -13   1 0.46971 0.78441   2 
  -9 -13   1 0.34359 0.57916   6 
  -9 -13   1 0.85561 0.75895   1 
   8  13  -1 108.121 4.68029   3 
  -8 -13   1 108.951 4.45528   2 
  -8 -13   1 104.055 3.70775   6 
  -8 -13   1 108.234 4.21003   1 
   7  13  -1 -0.3640 1.02705   3 
  -7 -13   1 -0.2816 0.51117   6 
  -7 -13   1 -0.3815 0.59914   1 
  -7 -13   1 -1.2738 0.69902   2 
   6  13  -1 92.9058 4.20742   3 
  -6 -13   1 93.4966 3.75078   1 
  -6 -13   1 99.5201 3.24070   6 
  -6 -13   1 96.6789 4.09047   2 
   5  13  -1 0.05944 0.96218   3 
  -5 -13   1 0.54757 0.40398   6 
  -5 -13   1 0.25882 0.67723   1 
  -5 -13   1 -0.3147 0.77787   2 
   4  13  -1 79.4202 3.70192   3 
  -4 -13   1 81.4042 3.63352   2 
  -4 -13   1 74.8615 2.40057   6 
  -4 -13   1 80.7054 3.27108   1 
   3  13  -1 -0.3241 0.86094   3 
  -3 -13   1 -0.5827 0.68141   2 
   2  13  -1 207.759 7.26783   3 
  -2 -13   1 223.820 7.28578   2 
   1  13  -1 13.4498 1.59679   2 
   1  13  -1 12.3590 1.59924   3 
  -1 -13   1 13.8052 1.50570   2 
 -12 -12   1 4.71447 1.00839   6 
  11  12  -1 24.8464 2.25911   3 
  11  12  -1 27.4182 2.07735   2 
 -11 -12   1 25.2976 2.04932   2 
 -11 -12   1 23.0900 1.92781   1 
 -11 -12   1 26.2788 1.79395   6 
  10  12  -1 6.51060 1.40222   3 
 -10 -12   1 7.63159 1.06456   6 
 -10 -12   1 7.49712 1.25430   2 
 -10 -12   1 6.27766 1.15569   1 
   9  12  -1 38.6095 2.66078   3 
  -9 -12   1 39.1426 2.31548   1 
  -9 -12   1 44.2967 2.13733   6 
   8  12  -1 -1.1776 0.80982   3 
  -8 -12   1 0.12281 0.51015   6 
  -8 -12   1 -0.1880 0.66511   1 
  -8 -12   1 -1.3452 0.62404   2 
   7  12  -1 138.353 5.25835   3 
  -7 -12   1 137.033 4.35940   6 
  -7 -12   1 133.464 4.77765   1 
   6  12  -1 22.4828 2.01839   3 
  -6 -12   1 20.5243 1.24921   6 
  -6 -12   1 21.6930 1.84066   2 
  -6 -12   1 20.1419 1.61886   1 
   5  12  -1 33.5183 2.32029   3 
  -5 -12   1 33.0500 2.16561   2 
  -5 -12   1 34.4017 1.98109   1 
  -5 -12   1 33.5271 1.49399   6 
   4  12  -1 27.4832 2.11523   3 
  -4 -12   1 26.2745 1.16689   6 
  -4 -12   1 25.7029 1.94074   2 
  -4 -12   1 23.8159 1.67955   1 
   3  12  -1 116.724 4.67739   3 
  -3 -12   1 127.956 4.70101   2 
   2  12  -1 29.5784 2.15797   3 
  -2 -12   1 30.5541 2.11188   2 
  -2 -12   1 31.7873 1.82380   1 
   1  12  -1 138.938 5.19285   3 
  -1 -12   1 141.355 5.12624   2 
   0  12  -1 26.8981 2.09317   3 
   0  12  -1 27.6614 2.02062   2 
   0 -12   1 29.2761 2.03609   2 
  12  11  -1 22.9880 2.20251   3 
 -12 -11   1 22.6960 1.78851   6 
 -12 -11   1 21.2627 1.88677   1 
  11  11  -1 23.6235 2.24037   3 
 -11 -11   1 28.3543 2.01939   1 
 -11 -11   1 26.9690 1.90801   6 
  10  11  -1 12.8846 1.65752   3 
 -10 -11   1 11.9951 1.38782   2 
 -10 -11   1 13.0996 1.42154   1 
 -10 -11   1 13.4888 1.30700   6 
   9  11  -1 13.4447 1.63363   3 
  -9 -11   1 12.4218 1.33980   1 
  -9 -11   1 12.3679 1.40541   2 
  -9 -11   1 13.1688 1.22797   6 
   8  11  -1 80.3226 3.68196   3 
  -8 -11   1 83.5804 3.53321   2 
  -8 -11   1 80.0025 3.04322   6 
  -8 -11   1 79.2702 3.32877   1 
   7  11  -1 20.1452 1.90503   3 
  -7 -11   1 21.7608 1.64420   1 
  -7 -11   1 23.5290 1.41588   6 
  -7 -11   1 18.9899 1.75545   2 
   6  11  -1 111.681 4.45957   3 
  -6 -11   1 115.266 4.09084   1 
  -6 -11   1 121.353 4.39855   2 
  -6 -11   1 108.961 3.63645   6 
   5  11  -1 24.6578 1.93949   3 
  -5 -11   1 25.1164 1.91258   2 
  -5 -11   1 25.4114 1.65096   1 
  -5 -11   1 24.0170 1.28261   6 
   4  11  -1 109.227 4.30192   3 
  -4 -11   1 114.169 3.38945   6 
  -4 -11   1 114.960 3.98242   1 
  -4 -11   1 111.660 4.25273   2 
   3  11  -1 4.29609 1.02161   3 
  -3 -11   1 5.93978 0.87470   1 
  -3 -11   1 4.96941 0.44549   6 
  -3 -11   1 3.64578 0.93554   2 
   2  11  -1 162.774 5.71325   3 
  -2 -11   1 169.691 5.34006   1 
  -2 -11   1 174.316 5.74658   2 
   1  11  -1 41.9374 2.41252   3 
  -1 -11   1 44.7328 2.12360   1 
  -1 -11   1 42.8175 2.37255   2 
   0  11  -1 35.9544 2.21776   3 
  -1  11  -1 38.0329 2.44785   4 
  -1  11  -1 33.3686 2.22281   3 
   1 -11   1 42.7193 2.31946   3 
  -2  11  -1 105.235 4.50850   4 
   2 -11   1 106.717 4.47912   4 
  -3  11  -1 4.44616 1.21518   4 
   3 -11   1 4.39414 1.13664   4 
  -4  11  -1 25.2751 2.00546   5 
  -4  11  -1 28.0176 2.41553   4 
   4 -11   1 24.5120 2.24444   4 
  12  10  -1 6.24987 1.44048   3 
 -12 -10   1 7.56887 1.25555   1 
  11  10  -1 53.4405 2.72650   2 
  11  10  -1 51.4870 3.07501   3 
 -11 -10   1 48.8471 2.68816   1 
 -11 -10   1 53.5347 2.64333   6 
 -11 -10   1 54.9656 2.72204   2 
  10  10  -1 25.0930 2.12158   3 
 -10 -10   1 24.6263 1.81610   6 
 -10 -10   1 24.1067 1.90845   2 
 -10 -10   1 21.0521 1.80077   1 
   9  10  -1 78.5607 3.73392   3 
  -9 -10   1 87.3178 3.27666   6 
  -9 -10   1 85.5018 3.44261   1 
  -9 -10   1 83.8494 3.49717   2 
   8  10  -1 16.7838 1.68187   3 
  -8 -10   1 20.2926 1.67522   2 
  -8 -10   1 22.2878 1.64034   1 
  -8 -10   1 20.1691 1.37332   6 
   7  10  -1 140.644 5.19313   3 
  -7 -10   1 149.096 4.60117   6 
  -7 -10   1 146.566 5.05290   2 
  -7 -10   1 147.571 4.90215   1 
   6  10  -1 3.90550 1.00599   3 
  -6 -10   1 3.09731 0.63187   6 
  -6 -10   1 3.39498 0.90029   2 
  -6 -10   1 4.29471 0.85335   1 
   5  10  -1 130.187 4.72673   3 
  -5 -10   1 126.277 3.92526   6 
  -5 -10   1 135.161 4.63849   2 
  -5 -10   1 129.734 4.35572   1 
   4  10  -1 0.63004 0.71660   3 
  -4 -10   1 0.06596 0.63966   2 
  -4 -10   1 0.24280 0.35889   6 
  -4 -10   1 -0.5422 0.47901   1 
   3  10  -1 280.419 8.55888   3 
  -3 -10   1 287.799 8.20683   1 
  -3 -10   1 291.693 8.57041   2 
  -3 -10   1 286.627 7.59429   6 
   2  10  -1 19.7782 1.66701   3 
  -2 -10   1 23.8581 0.82101   6 
  -2 -10   1 25.3625 1.74433   2 
  -2 -10   1 24.3199 1.46236   1 
  -2 -10   1 22.1830 0.83400   6 
   1  10  -1 291.636 8.65960   4 
   1  10  -1 288.259 8.69332   3 
  -1 -10   1 293.780 8.66962   2 
  -1 -10   1 294.283 8.30488   1 
   0  10  -1 24.5529 1.82046   4 
   0  10  -1 24.3692 1.75563   3 
   0 -10   1 21.9332 1.63531   3 
   0 -10   1 22.3561 1.67744   2 
   0 -10   1 24.2325 1.45270   5 
   0 -10   1 22.0503 1.41447   1 
  -1  10  -1 204.201 6.70512   4 
  -1  10  -1 197.398 6.16446   5 
   1 -10   1 209.912 6.70710   4 
   1 -10   1 197.684 6.41680   3 
   1 -10   1 198.079 6.03165   1 
   1 -10   1 197.813 6.32922   2 
   1 -10   1 197.206 6.15752   5 
  -2  10  -1 1.16661 0.89739   4 
  -2  10  -1 1.46934 0.70556   5 
   2 -10   1 1.80969 0.68454   3 
   2 -10   1 0.90067 0.77168   4 
  -3  10  -1 52.5912 2.59890   5 
   3 -10   1 53.4604 2.99359   4 
  -4  10  -1 5.48200 1.03909   5 
   4 -10   1 3.46050 1.16766   4 
  -5  10  -1 78.3326 3.54469   5 
   5 -10   1 75.2790 3.94117   4 
  13   9  -1 1.84224 1.20146   3 
 -13  -9   1 2.02254 0.96461   1 
  12   9  -1 8.77327 1.58281   3 
 -12  -9   1 12.4884 1.43615   1 
  11   9  -1 53.9094 3.03436   3 
 -11  -9   1 54.4405 2.67673   6 
 -11  -9   1 50.7608 2.64134   1 
  10   9  -1 67.4237 3.40471   3 
 -10  -9   1 75.4061 3.11992   2 
 -10  -9   1 70.2400 2.98999   6 
 -10  -9   1 67.2771 3.03791   1 
   9   9  -1 1.73692 0.95044   3 
  -9  -9   1 -0.5775 0.72967   2 
  -9  -9   1 0.84219 0.79212   1 
  -9  -9   1 -0.2470 0.60481   6 
   8   9  -1 289.643 9.25404   3 
  -8  -9   1 319.895 9.11303   2 
  -8  -9   1 317.196 9.03700   1 
  -8  -9   1 311.827 8.80732   6 
   7   9  -1 0.41618 0.82708   3 
  -7  -9   1 -0.1107 0.62893   2 
  -7  -9   1 1.21220 0.56191   6 
  -7  -9   1 1.03274 0.65480   1 
   6   9  -1 115.150 4.28838   3 
  -6  -9   1 118.413 4.00682   1 
  -6  -9   1 115.741 3.71182   6 
  -6  -9   1 119.040 4.17172   2 
   5   9  -1 233.337 7.16006   3 
  -5  -9   1 237.310 6.49959   6 
  -5  -9   1 230.284 7.05062   2 
  -5  -9   1 226.895 6.80494   1 
   4   9  -1 42.7748 2.21726   3 
  -4  -9   1 42.5502 1.62985   6 
  -4  -9   1 42.4405 1.97508   1 
  -4  -9   1 43.9145 2.18913   2 
   3   9  -1 17.5201 1.43966   3 
   3   9  -1 18.1041 1.25156   4 
  -3  -9   1 19.5345 1.46961   2 
  -3  -9   1 20.3245 0.85829   6 
  -3  -9   1 19.6655 1.28054   1 
  -3  -9   1 20.6855 0.94185   6 
   2   9  -1 261.110 7.62706   4 
   2   9  -1 263.934 7.82297   3 
  -2  -9   1 258.596 6.83604   6 
  -2  -9   1 270.010 7.52728   1 
  -2  -9   1 256.142 6.88605   6 
  -2  -9   1 271.395 7.84704   2 
  -2  -9   1 267.807 7.28236   5 
   1   9  -1 1.63239 0.68379   3 
   1   9  -1 1.32070 0.63748   4 
  -1  -9   1 0.51203 0.54262   3 
  -1  -9   1 0.89599 0.57904   2 
  -1  -9   1 2.04861 0.48629   5 
   0   9  -1 121.104 4.32094   4 
   0   9  -1 121.879 4.26969   3 
   0  -9   1 125.979 4.35849   4 
   0  -9   1 124.626 3.95356   5 
   0  -9   1 124.731 4.23259   2 
   0  -9   1 116.739 3.90120   1 
   0  -9   1 116.076 4.19975   3 
  -1   9  -1 147.307 4.72057   5 
  -1   9  -1 157.234 4.75446   1 
   1  -9   1 145.460 4.59807   1 
   1  -9   1 142.749 4.88296   3 
   1  -9   1 145.912 4.84961   2 
   1  -9   1 147.696 5.12109   4 
   1  -9   1 144.278 4.69370   5 
  -2   9  -1 231.749 6.65287   1 
  -2   9  -1 220.335 6.73119   5 
   2  -9   1 212.917 6.83936   3 
   2  -9   1 222.163 6.73439   5 
   2  -9   1 220.840 7.18700   4 
  -3   9  -1 19.7092 1.57440   5 
   3  -9   1 21.3207 1.62812   3 
   3  -9   1 17.0436 1.71930   4 
  -4   9  -1 142.987 5.03938   5 
   4  -9   1 144.621 5.54338   4 
  -5   9  -1 2.37539 0.92268   5 
   5  -9   1 3.34108 1.17519   4 
  -6   9  -1 102.771 4.24226   5 
   6  -9   1 100.791 4.75821   4 
  13   8  -1 13.6403 1.75676   3 
 -13  -8   1 16.4513 1.64139   1 
  12   8  -1 9.24066 1.58991   3 
 -12  -8   1 10.2693 1.37725   1 
  11   8  -1 54.7363 3.04642   3 
 -11  -8   1 58.8019 2.80630   1 
  10   8  -1 43.2835 2.66040   3 
 -10  -8   1 48.0082 2.39244   1 
 -10  -8   1 45.4334 2.27624   6 
 -10  -8   1 44.5928 2.27215   2 
   9   8  -1 74.6063 3.41655   3 
  -9  -8   1 80.3993 3.19155   1 
  -9  -8   1 83.4591 3.11998   6 
  -9  -8   1 81.0659 3.17056   2 
   8   8  -1 9.29494 1.21848   3 
  -8  -8   1 10.3488 1.08721   2 
  -8  -8   1 9.26836 1.08214   1 
  -8  -8   1 8.57703 0.95555   6 
   7   8  -1 189.742 6.01423   3 
  -7  -8   1 185.357 5.76490   2 
  -7  -8   1 183.808 5.72310   1 
  -7  -8   1 179.577 5.49033   6 
   6   8  -1 0.37531 0.66097   3 
  -6  -8   1 0.53048 0.45222   6 
  -6  -8   1 -0.7143 0.53682   2 
  -6  -8   1 1.82768 0.65253   1 
   5   8  -1 100.580 3.65740   3 
  -5  -8   1 96.4181 3.53223   2 
  -5  -8   1 99.6753 3.15251   6 
  -5  -8   1 101.100 3.43042   1 
   4   8  -1 43.9819 1.79006   4 
   4   8  -1 43.6362 2.16668   3 
  -4  -8   1 42.1013 2.07522   2 
  -4  -8   1 45.1542 1.54033   5 
  -4  -8   1 47.1710 1.96656   1 
  -4  -8   1 45.1052 1.66387   6 
   3   8  -1 154.562 4.71553   4 
   3   8  -1 157.912 5.07560   3 
  -3  -8   1 163.125 4.82581   1 
  -3  -8   1 159.873 4.42823   6 
  -3  -8   1 162.642 4.38609   6 
  -3  -8   1 154.171 5.02932   2 
  -3  -8   1 164.430 4.49915   5 
   2   8  -1 16.7153 1.33119   3 
   2   8  -1 18.9432 1.22095   4 
  -2  -8   1 18.3488 0.79703   6 
  -2  -8   1 19.9442 1.39188   2 
  -2  -8   1 19.3311 0.74072   6 
  -2  -8   1 19.3023 1.18011   1 
   1   8  -1 88.9172 3.23769   3 
   1   8  -1 90.4091 3.21326   4 
  -1  -8   1 90.7350 3.26380   3 
  -1  -8   1 87.5998 3.00121   1 
  -1  -8   1 87.3110 3.24150   2 
  -1  -8   1 92.6534 2.93744   5 
   0   8  -1 240.139 7.13130   4 
   0  -8   1 237.374 7.01169   2 
   0  -8   1 240.499 7.11466   4 
   0  -8   1 234.831 6.74181   1 
   0  -8   1 241.208 6.75870   5 
   0  -8   1 234.043 7.00441   3 
   1  -8   1 24.1415 1.31517   1 
   1  -8   1 18.2990 1.39147   2 
   1  -8   1 22.4628 1.35830   5 
   1  -8   1 22.4881 1.63125   4 
   1  -8   1 20.9787 1.49124   3 
  -2   8  -1 89.9074 3.10851   1 
  -2   8  -1 85.1197 3.19022   5 
   2  -8   1 86.0480 3.53318   4 
   2  -8   1 88.4906 3.29560   3 
   2  -8   1 82.1664 3.09879   2 
   2  -8   1 86.2965 3.18018   5 
  -3   8  -1 253.831 7.28056   1 
  -3   8  -1 246.364 7.44770   5 
   3  -8   1 252.788 7.53232   3 
   3  -8   1 245.071 7.89186   4 
  -4   8  -1 -0.4300 0.56529   5 
   4  -8   1 -0.2821 0.81404   4 
   4  -8   1 -0.3509 0.55247   3 
  -5   8  -1 187.203 6.31037   5 
   5  -8   1 198.734 5.17690   6 
   5  -8   1 193.653 6.90749   4 
  -6   8  -1 12.4192 1.42033   5 
   6  -8   1 11.7564 1.68972   4 
   6  -8   1 11.8168 0.76097   6 
  -7   8  -1 91.1001 3.95778   5 
   7  -8   1 90.8927 4.48866   4 
   7  -8   1 87.1072 2.76616   6 
  13   7  -1 1.82210 1.21962   3 
 -13  -7   1 3.92709 1.07727   1 
  12   7  -1 16.0586 1.78505   3 
 -12  -7   1 18.4091 1.64902   1 
  11   7  -1 3.39849 1.16610   3 
 -11  -7   1 4.79435 1.01924   1 
  10   7  -1 60.1222 2.52270   2 
  10   7  -1 57.0005 2.97079   3 
 -10  -7   1 62.8012 2.71685   6 
 -10  -7   1 62.0399 2.75316   1 
   9   7  -1 8.81467 1.26041   3 
  -9  -7   1 8.07104 0.98546   2 
  -9  -7   1 10.7781 1.13159   1 
  -9  -7   1 10.6063 1.06310   6 
   8   7  -1 178.638 6.01770   3 
  -8  -7   1 198.130 5.78826   2 
  -8  -7   1 180.188 5.76930   1 
  -8  -7   1 193.435 5.72293   6 
   7   7  -1 6.22626 0.98203   3 
  -7  -7   1 6.20950 0.76277   6 
  -7  -7   1 6.32112 0.85686   1 
  -7  -7   1 4.54750 0.77351   2 
   6   7  -1 543.329 14.1139   4 
   6   7  -1 545.879 14.6549   3 
  -6  -7   1 521.981 14.1763   6 
  -6  -7   1 520.252 14.4241   2 
  -6  -7   1 540.847 14.4052   1 
  -6  -7   1 553.172 13.8226   5 
   5   7  -1 7.55275 0.93280   3 
   5   7  -1 7.55578 0.69618   4 
  -5  -7   1 7.46872 0.68779   6 
  -5  -7   1 7.85131 0.81355   1 
  -5  -7   1 8.02648 0.61455   5 
  -5  -7   1 8.46939 0.87630   2 
   4   7  -1 420.805 11.5048   3 
   4   7  -1 418.843 11.0687   4 
  -4  -7   1 409.436 11.4320   2 
  -4  -7   1 432.778 10.8493   5 
  -4  -7   1 412.359 10.9647   6 
  -4  -7   1 417.004 11.0104   6 
  -4  -7   1 422.324 11.2831   1 
   3   7  -1 4.80243 0.74552   3 
   3   7  -1 5.47685 0.59578   4 
  -3  -7   1 4.50588 0.42790   5 
  -3  -7   1 4.12198 0.40876   6 
  -3  -7   1 3.65191 0.66299   2 
  -3  -7   1 5.57729 0.47429   6 
  -3  -7   1 4.83221 0.59943   1 
   2   7  -1 271.015 7.68252   3 
   2   7  -1 272.707 7.49816   4 
  -2  -7   1 271.620 7.45897   1 
  -2  -7   1 268.468 7.02006   6 
  -2  -7   1 269.926 7.24620   5 
  -2  -7   1 267.757 7.06331   6 
  -2  -7   1 270.265 7.70768   2 
   1   7  -1 44.8004 1.94367   4 
   1   7  -1 45.3421 1.99233   3 
  -1  -7   1 49.1306 1.36014   6 
  -1  -7   1 47.6733 2.02413   3 
  -1  -7   1 48.5133 1.77223   5 
  -1  -7   1 46.3109 1.38295   6 
  -1  -7   1 51.0913 2.05169   4 
  -1  -7   1 48.7512 2.07985   2 
  -1  -7   1 49.0798 1.86388   1 
   0  -7   1 331.325 9.20357   4 
   0  -7   1 324.418 9.10204   2 
   0  -7   1 332.872 8.88380   1 
   0  -7   1 327.489 8.88284   5 
   0  -7   1 320.585 9.08799   3 
   1  -7   1 248.356 6.97219   5 
   1  -7   1 246.577 7.31944   4 
   1  -7   1 249.747 7.13109   3 
   1  -7   1 237.451 7.03004   2 
   1  -7   1 249.195 6.90107   1 
  -2   7  -1 384.483 10.4843   5 
  -2   7  -1 396.540 10.4087   1 
   2  -7   1 366.590 10.8318   4 
   2  -7   1 382.439 10.4781   5 
   2  -7   1 368.130 10.3876   2 
   2  -7   1 388.443 10.5881   3 
  -3   7  -1 124.366 3.94475   1 
  -3   7  -1 119.461 4.08327   5 
   3  -7   1 123.476 3.85860   2 
   3  -7   1 115.201 4.05892   5 
   3  -7   1 127.523 4.16935   3 
   3  -7   1 119.148 4.48745   4 
  -4   7  -1 237.480 7.10924   5 
  -4   7  -1 234.442 6.82739   1 
   4  -7   1 233.992 7.06976   3 
   4  -7   1 221.858 7.49146   4 
   4  -7   1 239.141 6.15528   6 
  -5   7  -1 -0.0171 0.63738   5 
   5  -7   1 0.60671 0.68482   3 
   5  -7   1 1.46125 0.94746   4 
   5  -7   1 1.27886 0.35019   6 
  -6   7  -1 115.887 4.36985   5 
   6  -7   1 113.178 3.42602   6 
   6  -7   1 117.628 4.88270   4 
  -7   7  -1 0.92019 0.81876   5 
   7  -7   1 0.13687 0.42861   6 
   7  -7   1 1.36164 1.02356   4 
  -8   7  -1 91.4996 4.01424   5 
   8  -7   1 87.4894 3.03320   6 
   8  -7   1 96.7195 4.69498   4 
  13   6  -1 37.1180 2.74552   3 
 -13  -6   1 46.3038 2.60145   1 
  12   6  -1 1.43852 1.05510   3 
 -12  -6   1 1.70144 0.90383   1 
  11   6  -1 83.6172 3.76719   3 
 -11  -6   1 86.8386 3.48819   1 
  10   6  -1 4.56247 1.13978   3 
 -10  -6   1 6.50617 1.00693   1 
   9   6  -1 5.62119 1.05657   3 
  -9  -6   1 7.29672 0.90633   6 
  -9  -6   1 6.63484 0.95536   1 
  -9  -6   1 6.62137 0.79014   2 
   8   6  -1 0.43083 0.56529   4 
   8   6  -1 0.82641 0.74815   3 
  -8  -6   1 1.18338 0.60014   1 
  -8  -6   1 0.70113 0.40924   5 
  -8  -6   1 1.07083 0.54136   6 
  -8  -6   1 0.18418 0.50989   2 
   7   6  -1 204.078 6.38138   3 
  -7  -6   1 203.578 6.05598   6 
  -7  -6   1 211.809 5.69198   5 
  -7  -6   1 210.450 6.18558   1 
  -7  -6   1 210.493 6.10813   2 
   6   6  -1 5.71834 0.84053   3 
   6   6  -1 4.06754 0.60207   4 
  -6  -6   1 5.07951 0.68684   2 
  -6  -6   1 5.49247 0.63425   6 
  -6  -6   1 5.25817 0.45134   5 
  -6  -6   1 4.60608 0.68892   1 
   5   6  -1 333.727 8.82318   4 
   5   6  -1 329.524 9.25562   3 
  -5  -6   1 321.685 8.85177   6 
  -5  -6   1 340.103 8.61327   5 
  -5  -6   1 334.573 9.07586   1 
  -5  -6   1 329.628 9.11770   2 
  -5  -6   1 322.637 8.87871   6 
   4   6  -1 176.790 5.16958   3 
   4   6  -1 163.979 4.71723   4 
  -4  -6   1 162.102 5.02644   2 
  -4  -6   1 171.121 4.75558   6 
  -4  -6   1 180.046 4.58183   5 
  -4  -6   1 163.251 4.92088   1 
  -4  -6   1 163.681 4.71426   6 
   3   6  -1 1053.93 26.6413   4 
   3   6  -1 1064.27 26.9789   3 
  -3  -6   1 1024.38 26.4875   6 
  -3  -6   1 1014.42 26.9162   2 
  -3  -6   1 1037.87 26.5243   6 
  -3  -6   1 1095.68 26.4920   5 
  -3  -6   1 1033.31 26.7541   1 
   2   6  -1 350.510 9.01969   4 
   2   6  -1 330.295 9.17452   3 
  -2  -6   1 337.215 9.00827   1 
  -2  -6   1 320.089 8.66210   6 
  -2  -6   1 341.287 8.70896   6 
  -2  -6   1 335.051 9.21781   2 
  -2  -6   1 338.239 8.80632   5 
   1   6  -1 105.132 3.45579   3 
   1   6  -1 112.187 3.45109   4 
  -1  -6   1 105.597 3.29532   1 
  -1  -6   1 108.766 2.89489   6 
  -1  -6   1 109.896 3.22920   5 
  -1  -6   1 107.402 3.46844   3 
  -1  -6   1 106.366 2.91760   6 
  -1  -6   1 114.180 3.54979   2 
  -1  -6   1 113.547 3.46281   4 
   0  -6   1 14.5382 1.10556   4 
   0  -6   1 17.4801 0.96668   5 
   0  -6   1 17.3775 0.96998   1 
   0  -6   1 17.2584 1.09888   3 
   0  -6   1 14.7258 1.08781   2 
   1  -6   1 350.228 9.64613   4 
   1  -6   1 342.949 9.44952   3 
   1  -6   1 346.363 9.25082   1 
   1  -6   1 335.799 9.37495   2 
   1  -6   1 349.884 9.34849   5 
  -2   6  -1 38.5480 1.68870   1 
   2  -6   1 39.3094 1.68833   2 
   2  -6   1 42.4213 1.84873   3 
   2  -6   1 43.0603 1.81290   5 
   2  -6   1 38.1976 1.64805   1 
   2  -6   1 39.4703 2.03980   4 
  -3   6  -1 510.159 13.7981   5 
  -3   6  -1 520.221 13.5204   2 
  -3   6  -1 513.964 13.6437   1 
   3  -6   1 519.248 14.2567   4 
   3  -6   1 498.105 13.0599   6 
   3  -6   1 505.624 13.5074   2 
   3  -6   1 525.277 13.1094   6 
   3  -6   1 511.493 13.8137   5 
   3  -6   1 520.548 13.8303   3 
  -4   6  -1 -0.7500 0.50863   5 
  -4   6  -1 -0.3671 0.41205   1 
   4  -6   1 -0.0816 0.65571   4 
   4  -6   1 0.43563 0.49780   5 
   4  -6   1 -0.1028 0.25674   6 
   4  -6   1 0.38633 0.21965   6 
   4  -6   1 0.09620 0.51318   3 
  -5   6  -1 121.285 4.26414   5 
  -5   6  -1 123.385 4.02024   1 
   5  -6   1 124.792 4.26902   3 
   5  -6   1 122.856 3.57139   6 
   5  -6   1 120.198 4.71613   4 
  -6   6  -1 50.0063 2.46710   5 
  -6   6  -1 48.1165 2.17263   1 
   6  -6   1 50.1650 2.92117   4 
   6  -6   1 51.0773 2.46827   3 
   6  -6   1 48.9575 1.83716   6 
  -7   6  -1 75.3730 3.27691   5 
   7  -6   1 70.1217 2.51368   6 
   7  -6   1 71.4321 3.71606   4 
  -8   6  -1 0.95308 0.86760   5 
   8  -6   1 0.08789 1.05551   4 
   8  -6   1 0.14658 0.47844   6 
  14   5  -1 32.5219 2.64605   3 
  13   5  -1 0.53234 1.07803   3 
 -13  -5   1 -0.2835 0.79518   1 
  12   5  -1 22.4594 2.05479   3 
 -12  -5   1 26.2825 1.89388   1 
  11   5  -1 2.14336 1.02972   3 
 -11  -5   1 2.57554 0.90317   1 
  10   5  -1 74.7845 3.19933   4 
  10   5  -1 72.8484 3.28706   3 
 -10  -5   1 71.6087 2.76351   5 
 -10  -5   1 77.1203 3.07719   1 
   9   5  -1 23.5506 1.77413   3 
   9   5  -1 20.4891 1.27924   2 
   9   5  -1 22.4976 1.56922   4 
  -9  -5   1 25.1426 1.62085   1 
  -9  -5   1 22.6741 1.51204   6 
  -9  -5   1 21.4703 1.32763   5 
   8   5  -1 270.300 7.70547   4 
   8   5  -1 251.423 7.87851   3 
  -8  -5   1 271.378 7.47860   2 
  -8  -5   1 270.672 7.37011   5 
  -8  -5   1 272.762 7.68822   6 
  -8  -5   1 268.257 7.73296   1 
   7   5  -1 2.93148 0.74886   3 
   7   5  -1 2.04426 0.59358   4 
  -7  -5   1 1.90848 0.46012   5 
  -7  -5   1 2.55648 0.57151   6 
  -7  -5   1 2.58967 0.62033   1 
  -7  -5   1 1.52557 0.51833   2 
   6   5  -1 252.804 7.35413   3 
   6   5  -1 262.276 7.15200   6 
  -6  -5   1 260.394 6.80535   5 
  -6  -5   1 245.545 7.08644   2 
  -6  -5   1 255.193 7.09613   6 
  -6  -5   1 250.612 7.17433   1 
   5   5  -1 459.738 12.0224   6 
   5   5  -1 453.467 12.2775   3 
   5   5  -1 465.910 11.9240   4 
  -5  -5   1 449.271 12.1009   2 
  -5  -5   1 464.219 11.7388   5 
  -5  -5   1 452.553 12.1120   1 
  -5  -5   1 440.669 11.9733   6 
   4   5  -1 295.418 8.12998   3 
   4   5  -1 298.444 7.76364   4 
  -4  -5   1 295.530 8.04022   2 
  -4  -5   1 283.976 7.78887   6 
  -4  -5   1 291.960 7.61914   5 
  -4  -5   1 298.497 7.82734   6 
  -4  -5   1 283.324 7.94718   1 
   3   5  -1 876.818 22.5280   4 
   3   5  -1 895.385 22.8456   3 
  -3  -5   1 856.831 22.4892   6 
  -3  -5   1 883.244 22.6735   1 
  -3  -5   1 914.182 22.8304   2 
  -3  -5   1 843.819 22.4622   6 
  -3  -5   1 929.198 22.4459   5 
   2   5  -1 1074.48 27.5105   3 
   2   5  -1 1091.83 27.3257   4 
  -2  -5   1 1086.52 27.3533   1 
  -2  -5   1 1064.42 27.1450   6 
  -2  -5   1 1090.39 27.1825   5 
  -2  -5   1 1025.53 27.1041   6 
  -2  -5   1 1093.19 27.5322   2 
   1   5  -1 32.5694 1.44265   3 
   1   5  -1 35.4147 1.42442   4 
  -1  -5   1 35.0155 1.43113   4 
  -1  -5   1 35.3297 1.05054   6 
  -1  -5   1 32.9710 1.44280   3 
  -1  -5   1 32.3070 1.34320   1 
  -1  -5   1 36.8289 1.54141   2 
  -1  -5   1 35.1825 1.28404   5 
  -1  -5   1 34.2845 1.05863   6 
   0  -5   1 978.105 24.8812   5 
   0  -5   1 953.646 25.0347   2 
   0  -5   1 971.523 25.0972   4 
   0  -5   1 994.034 25.0465   3 
   0  -5   1 987.568 24.8954   1 
   1  -5   1 1.00309 0.36407   3 
   1  -5   1 0.92440 0.35512   5 
   1  -5   1 0.93168 0.32785   1 
   1  -5   1 0.73519 0.42730   4 
   1  -5   1 0.67217 0.31509   2 
  -2   5  -1 232.448 6.41892   1 
   2  -5   1 230.029 6.37047   1 
   2  -5   1 236.296 5.98245   6 
   2  -5   1 229.027 6.48767   5 
   2  -5   1 231.610 5.94491   6 
   2  -5   1 229.562 6.79349   4 
   2  -5   1 225.290 6.37208   2 
   2  -5   1 233.181 6.52305   3 
  -3   5  -1 160.205 4.65193   1 
  -3   5  -1 158.432 4.78318   5 
  -3   5  -1 155.226 4.48013   2 
   3  -5   1 155.929 4.24061   6 
   3  -5   1 154.318 4.18899   6 
   3  -5   1 154.526 5.11426   4 
   3  -5   1 162.293 4.79944   3 
   3  -5   1 159.385 4.79292   5 
   3  -5   1 156.413 4.48918   2 
  -4   5  -1 215.979 6.12005   1 
  -4   5  -1 209.421 6.30160   5 
   4  -5   1 214.504 5.70062   6 
   4  -5   1 211.594 5.75287   6 
   4  -5   1 216.155 6.29136   3 
   4  -5   1 210.125 6.31537   5 
   4  -5   1 213.163 6.74119   4 
  -5   5  -1 12.9600 1.07920   1 
  -5   5  -1 11.2753 1.10508   5 
   5  -5   1 14.7087 0.88797   6 
   5  -5   1 15.1478 1.55234   4 
  -6   5  -1 207.601 6.20528   1 
  -6   5  -1 210.924 6.55044   5 
   6  -5   1 201.554 7.03476   4 
   6  -5   1 216.927 6.49106   3 
   6  -5   1 213.642 5.95249   6 
  -7   5  -1 23.1415 1.70144   5 
  -7   5  -1 26.9774 1.56327   1 
   7  -5   1 21.8562 2.08883   4 
   7  -5   1 20.9361 1.29383   6 
  -8   5  -1 88.5074 3.60739   5 
   8  -5   1 79.7158 4.03124   4 
   8  -5   1 77.5736 2.92207   6 
  -9   5  -1 69.6175 3.28291   5 
   9  -5   1 62.5806 3.69773   4 
   9  -5   1 63.4459 2.61131   6 
  14   4  -1 -0.0872 1.08437   3 
 -14  -4   1 0.04869 0.87682   1 
  13   4  -1 21.0014 2.05007   3 
 -13  -4   1 23.2670 1.98867   1 
  12   4  -1 5.94215 1.28272   3 
 -12  -4   1 4.04454 1.07327   1 
 -12  -4   1 4.95886 1.00532   5 
  11   4  -1 29.0051 2.18191   4 
  11   4  -1 24.5075 2.09973   3 
 -11  -4   1 29.3813 1.96545   1 
 -11  -4   1 25.3689 1.72728   5 
  10   4  -1 5.86390 1.12700   3 
  10   4  -1 6.07770 1.16001   4 
 -10  -4   1 5.72319 0.88003   5 
 -10  -4   1 7.19054 1.03714   1 
   9   4  -1 103.667 3.82210   4 
   9   4  -1 93.6327 3.80770   3 
  -9  -4   1 104.040 3.49052   5 
  -9  -4   1 109.553 3.72317   1 
   8   4  -1 7.77859 0.96336   4 
   8   4  -1 6.08818 0.86675   6 
   8   4  -1 4.78671 0.91909   3 
  -8  -4   1 6.46774 0.86938   1 
  -8  -4   1 5.73646 0.74196   5 
  -8  -4   1 5.50870 0.65549   2 
  -8  -4   1 4.63301 0.72780   6 
   7   4  -1 617.683 15.9996   6 
   7   4  -1 588.701 16.1274   3 
   7   4  -1 592.174 15.9534   4 
  -7  -4   1 598.003 15.7112   2 
  -7  -4   1 590.419 15.9047   6 
  -7  -4   1 626.612 15.7380   5 
  -7  -4   1 614.531 15.9850   1 
   6   4  -1 34.6914 1.50224   4 
   6   4  -1 32.6403 1.70654   3 
   6   4  -1 36.5889 1.55384   6 
  -6  -4   1 32.4781 1.44111   2 
  -6  -4   1 29.8769 1.49826   1 
  -6  -4   1 35.2268 1.37989   5 
  -6  -4   1 32.1351 1.48525   6 
   5   4  -1 89.9191 2.74531   4 
   5   4  -1 89.7190 3.02652   3 
   5   4  -1 88.3586 2.82410   6 
  -5  -4   1 92.0266 2.62175   5 
  -5  -4   1 87.7714 2.86703   1 
  -5  -4   1 85.9993 2.80214   2 
  -5  -4   1 83.8448 2.77396   6 
   4   4  -1 317.709 8.23304   6 
   4   4  -1 313.911 8.43534   3 
   4   4  -1 315.386 8.12208   4 
  -4  -4   1 313.765 8.00588   5 
  -4  -4   1 303.617 8.28681   2 
  -4  -4   1 296.309 8.26385   1 
  -4  -4   1 294.380 8.16980   6 
   3   4  -1 2037.33 51.0251   3 
   3   4  -1 2082.25 50.9213   4 
  -3  -4   1 1983.50 50.7526   6 
  -3  -4   1 2052.06 50.9192   5 
  -3  -4   1 1975.16 50.9518   2 
  -3  -4   1 1958.38 50.8752   1 
  -3  -4   1 2047.53 50.7869   6 
   2   4  -1 249.661 6.32139   4 
   2   4  -1 241.824 6.55021   3 
  -2  -4   1 230.607 6.25765   6 
  -2  -4   1 229.660 6.52084   2 
  -2  -4   1 234.230 6.25644   6 
  -2  -4   1 248.876 6.26985   5 
   1   4  -1 5.15627 0.50398   3 
  -1  -4   1 5.27060 0.34738   6 
  -1  -4   1 5.82956 0.48564   5 
  -1  -4   1 6.32217 0.53258   3 
  -1  -4   1 5.45856 0.53161   2 
  -1  -4   1 6.39848 0.56385   4 
  -1  -4   1 6.37927 0.53955   1 
  -1  -4   1 5.34388 0.35473   6 
   0  -4   1 96.0426 2.81114   5 
   0  -4   1 98.1279 2.82836   1 
   0  -4   1 94.6839 2.95068   4 
   0  -4   1 96.0020 2.90395   3 
   0  -4   1 94.7836 2.92886   2 
   1  -4   1 559.208 14.8795   2 
   1  -4   1 589.377 14.9372   3 
   1  -4   1 568.598 15.0903   4 
   1  -4   1 598.184 14.9056   5 
   1  -4   1 563.798 14.8137   1 
  -2   4  -1 8.01044 0.64314   1 
   2  -4   1 8.16456 0.40974   6 
   2  -4   1 8.87909 0.77208   3 
   2  -4   1 8.65848 0.66651   2 
   2  -4   1 8.74625 0.84154   4 
   2  -4   1 9.13125 0.44126   6 
   2  -4   1 9.06261 0.76533   5 
  -3   4  -1 166.718 4.86695   1 
  -3   4  -1 168.697 4.68128   2 
   3  -4   1 169.772 4.99743   5 
   3  -4   1 174.329 4.54242   6 
   3  -4   1 166.287 5.29702   4 
   3  -4   1 173.945 4.97616   3 
   3  -4   1 170.202 4.57669   6 
   3  -4   1 171.387 4.69655   2 
  -4   4  -1 6.30067 0.75322   5 
  -4   4  -1 6.90634 0.53931   2 
  -4   4  -1 6.50326 0.66423   1 
   4  -4   1 5.50140 0.73218   5 
   4  -4   1 6.16879 0.47655   6 
   4  -4   1 6.74425 0.95472   4 
   4  -4   1 5.71834 0.72385   3 
   4  -4   1 6.01561 0.52353   6 
  -5   4  -1 142.546 4.60769   5 
  -5   4  -1 146.886 4.39636   1 
   5  -4   1 149.295 4.58278   3 
   5  -4   1 139.058 4.16094   6 
   5  -4   1 142.089 5.02556   4 
  -6   4  -1 52.7116 2.38914   5 
  -6   4  -1 53.0358 2.16918   1 
   6  -4   1 54.4450 2.03056   6 
   6  -4   1 52.2790 2.80703   4 
  -7   4  -1 106.844 3.94643   5 
  -7   4  -1 106.281 3.61798   1 
   7  -4   1 105.462 4.44427   4 
   7  -4   1 110.886 3.90329   3 
   7  -4   1 105.236 3.48757   6 
  -8   4  -1 0.26884 0.68560   5 
  -8   4  -1 1.34725 0.68780   1 
   8  -4   1 1.15107 0.60601   6 
   8  -4   1 2.88896 1.14176   4 
  -9   4  -1 92.1456 3.83234   5 
   9  -4   1 89.3623 4.36952   4 
   9  -4   1 87.4861 3.29246   6 
 -10   4  -1 43.8510 2.61688   5 
  10  -4   1 46.8005 2.29256   6 
  10  -4   1 49.4548 3.32514   4 
 -14  -3   1 21.0418 1.87488   1 
  13   3  -1 3.91134 1.31380   3 
 -13  -3   1 0.45055 0.85994   5 
 -13  -3   1 2.56287 1.08365   1 
  12   3  -1 71.0369 3.68253   4 
  12   3  -1 75.8466 3.57751   3 
 -12  -3   1 74.8363 3.30704   1 
 -12  -3   1 72.9691 3.20587   5 
  11   3  -1 4.64381 1.21585   4 
  11   3  -1 4.54374 1.13059   3 
 -11  -3   1 3.11330 0.90598   5 
 -11  -3   1 6.84106 1.09886   1 
  10   3  -1 97.6168 4.08869   3 
  10   3  -1 115.784 4.06075   6 
  10   3  -1 110.108 4.28703   4 
 -10  -3   1 110.529 3.90205   1 
 -10  -3   1 109.458 3.84893   5 
   9   3  -1 77.1943 2.99687   6 
   9   3  -1 75.6106 3.25851   4 
   9   3  -1 71.8197 3.10266   3 
  -9  -3   1 71.2148 2.81565   5 
  -9  -3   1 74.3453 2.89299   1 
   8   3  -1 282.042 8.27221   4 
   8   3  -1 303.995 8.20557   6 
   8   3  -1 268.962 8.23649   3 
  -8  -3   1 280.791 8.03976   1 
  -8  -3   1 284.451 7.94861   5 
   7   3  -1 7.31589 0.92401   3 
   7   3  -1 7.65466 0.67397   2 
   7   3  -1 5.77999 0.75874   6 
   7   3  -1 6.37797 0.84589   4 
  -7  -3   1 7.13416 0.60159   2 
  -7  -3   1 7.22150 0.73289   5 
  -7  -3   1 8.72575 0.80108   1 
  -7  -3   1 7.80887 0.77493   6 
   6   3  -1 579.280 14.8241   6 
   6   3  -1 563.612 14.9384   3 
   6   3  -1 561.781 14.8217   4 
  -6  -3   1 577.007 14.6451   5 
  -6  -3   1 554.306 14.7611   1 
  -6  -3   1 557.568 14.5381   2 
  -6  -3   1 544.482 14.7301   6 
   5   3  -1 69.7091 2.47573   3 
   5   3  -1 68.8443 2.32036   6 
   5   3  -1 68.8076 2.28947   4 
  -5  -3   1 73.0600 2.21977   5 
  -5  -3   1 67.5102 2.29202   6 
  -5  -3   1 65.1711 2.18457   2 
  -5  -3   1 69.5390 2.34838   1 
   4   3  -1 550.931 14.1662   3 
   4   3  -1 530.698 14.0061   6 
   4   3  -1 540.850 13.9458   4 
  -4  -3   1 517.404 13.9661   2 
  -4  -3   1 544.097 13.9959   6 
  -4  -3   1 533.969 14.0328   1 
  -4  -3   1 569.834 13.8772   5 
   3   3  -1 453.156 11.6683   3 
   3   3  -1 470.839 11.4677   4 
   3   3  -1 448.668 11.5067   6 
  -3  -3   1 434.242 11.4780   6 
  -3  -3   1 434.702 11.5649   2 
  -3  -3   1 453.130 11.3811   5 
  -3  -3   1 418.837 11.5373   1 
   2   3  -1 1304.50 32.3139   3 
   2   3  -1 1316.31 32.3443   4 
  -2  -3   1 1261.02 32.1962   1 
  -2  -3   1 1271.27 32.2191   5 
  -2  -3   1 1236.20 32.1018   6 
  -2  -3   1 1318.05 32.3008   2 
  -2  -3   1 1220.11 32.1115   6 
   1   3  -1 360.317 9.24251   3 
  -1  -3   1 372.603 9.17829   4 
  -1  -3   1 350.419 9.09184   5 
  -1  -3   1 355.824 9.04152   6 
  -1  -3   1 335.887 9.24853   2 
  -1  -3   1 351.231 9.16384   1 
  -1  -3   1 349.775 9.03148   6 
   0  -3   1 243.435 6.52971   1 
   0  -3   1 247.772 6.63730   4 
   0  -3   1 259.776 6.60720   3 
   0  -3   1 248.430 6.53113   5 
   0  -3   1 242.407 6.61919   2 
   1  -3   1 80.1542 2.59034   4 
   1  -3   1 79.5471 2.38261   1 
   1  -3   1 82.0670 2.14070   6 
   1  -3   1 78.3530 2.40588   2 
   1  -3   1 82.5986 2.44460   3 
   1  -3   1 82.1462 2.44400   5 
  -2   3  -1 409.470 10.7387   1 
   2  -3   1 415.272 10.4824   6 
   2  -3   1 406.825 11.0322   4 
   2  -3   1 409.516 10.6482   2 
   2  -3   1 411.846 10.8084   5 
   2  -3   1 411.676 10.4939   6 
   2  -3   1 416.691 10.7695   3 
  -3   3  -1 18.3724 0.96137   1 
  -3   3  -1 18.0117 0.76189   2 
   3  -3   1 19.0433 0.79665   6 
   3  -3   1 18.4101 1.04835   5 
   3  -3   1 18.1133 0.75854   6 
   3  -3   1 17.7615 1.26022   4 
   3  -3   1 18.3240 1.02679   3 
  -4   3  -1 478.159 12.7102   1 
  -4   3  -1 489.739 12.3700   2 
  -4   3  -1 478.152 12.8611   5 
   4  -3   1 481.790 12.5357   6 
   4  -3   1 481.354 13.2411   4 
   4  -3   1 497.755 12.5006   6 
   4  -3   1 483.630 12.7918   3 
   4  -3   1 481.481 12.8744   5 
  -5   3  -1 40.5160 1.70370   1 
  -5   3  -1 37.5755 1.83267   5 
   5  -3   1 41.0790 2.18856   4 
   5  -3   1 41.6800 1.59069   6 
   5  -3   1 41.4923 1.86323   5 
   5  -3   1 42.6154 1.86431   3 
  -6   3  -1 286.603 7.94216   1 
  -6   3  -1 286.530 8.20593   5 
   6  -3   1 294.103 8.10782   3 
   6  -3   1 276.641 8.65182   4 
   6  -3   1 282.270 7.85102   6 
  -7   3  -1 37.5687 1.76445   1 
  -7   3  -1 37.7501 1.99533   5 
   7  -3   1 38.0257 1.98096   3 
   7  -3   1 35.1053 2.34653   4 
   7  -3   1 34.8278 1.66119   6 
  -8   3  -1 181.113 6.01037   5 
  -8   3  -1 193.717 5.72598   1 
   8  -3   1 179.911 5.65262   6 
   8  -3   1 195.039 5.97340   3 
   8  -3   1 183.802 6.63791   4 
  -9   3  -1 42.3323 2.40583   5 
  -9   3  -1 45.8772 2.16262   1 
   9  -3   1 38.7670 2.05215   6 
   9  -3   1 43.7315 2.93639   4 
 -10   3  -1 93.0918 3.93181   5 
  10  -3   1 88.1852 4.47200   4 
  10  -3   1 93.3035 3.54343   6 
 -11   3  -1 16.8167 1.71943   5 
  11  -3   1 16.1844 1.43889   6 
  11  -3   1 17.2237 2.11436   4 
  13   2  -1 21.1683 2.24897   4 
  13   2  -1 19.9993 1.97886   3 
 -13  -2   1 23.4552 1.93095   5 
 -13  -2   1 22.9207 1.94851   1 
  12   2  -1 8.35841 1.38665   3 
  12   2  -1 8.66867 1.55942   4 
 -12  -2   1 7.94961 1.20985   5 
 -12  -2   1 7.91020 1.20864   1 
  11   2  -1 60.0257 3.09230   3 
  11   2  -1 56.9828 3.22383   4 
  11   2  -1 62.0335 2.90611   6 
 -11  -2   1 68.1007 2.87375   1 
 -11  -2   1 62.1720 2.83756   5 
  10   2  -1 18.7396 1.51542   6 
  10   2  -1 18.8998 1.75638   3 
  10   2  -1 20.6480 1.89583   4 
 -10  -2   1 18.4274 1.47226   1 
 -10  -2   1 18.0435 1.53171   5 
   9   2  -1 296.994 8.87863   4 
   9   2  -1 307.537 8.57841   6 
   9   2  -1 281.250 8.63944   3 
  -9  -2   1 298.680 8.39862   1 
  -9  -2   1 283.818 8.38315   5 
   8   2  -1 8.54771 0.98097   6 
   8   2  -1 9.65398 1.14108   4 
   8   2  -1 7.41409 1.02906   3 
  -8  -2   1 6.88846 0.84667   1 
  -8  -2   1 7.39977 0.86869   5 
   7   2  -1 457.016 12.1581   6 
   7   2  -1 451.867 12.3442   4 
   7   2  -1 446.028 11.6042   2 
  -7  -2   1 451.001 12.0684   6 
  -7  -2   1 449.468 12.0265   5 
  -7  -2   1 448.228 12.0405   1 
   6   2  -1 21.7475 1.39024   3 
   6   2  -1 23.4283 0.95631   2 
   6   2  -1 23.7205 1.26260   6 
   6   2  -1 23.2829 1.34541   4 
  -6  -2   1 22.5992 1.18880   6 
  -6  -2   1 23.6971 1.21264   1 
  -6  -2   1 22.8025 1.19171   5 
   5   2  -1 32.8787 1.50634   3 
   5   2  -1 34.6397 1.46214   4 
   5   2  -1 35.5015 1.42963   6 
   5   2  -1 33.6482 1.19578   2 
  -5  -2   1 32.9051 1.18091   2 
  -5  -2   1 31.5714 1.32094   5 
  -5  -2   1 31.3364 1.33270   6 
  -5  -2   1 33.5982 1.37847   1 
   4   2  -1 2.13578 0.34686   6 
   4   2  -1 1.73960 0.36292   4 
   4   2  -1 2.31482 0.43052   3 
  -4  -2   1 1.93451 0.28644   2 
  -4  -2   1 2.22196 0.33624   6 
  -4  -2   1 1.89568 0.35097   1 
  -4  -2   1 1.74177 0.32164   5 
   3   2  -1 303.626 8.07828   3 
   3   2  -1 307.593 7.93487   4 
   3   2  -1 310.370 8.00298   6 
  -3  -2   1 308.110 7.97321   6 
  -3  -2   1 285.486 7.97835   1 
  -3  -2   1 302.193 7.94350   2 
  -3  -2   1 313.122 7.90883   5 
   2   2  -1 71.9166 2.11657   6 
   2   2  -1 77.7902 2.05053   4 
   2   2  -1 75.3542 2.23975   3 
  -2  -2   1 71.2560 2.15908   1 
  -2  -2   1 72.7902 2.12988   6 
  -2  -2   1 70.7458 2.17562   2 
  -2  -2   1 76.4071 2.06827   5 
   1   2  -1 469.275 12.0975   3 
   1   2  -1 490.447 12.1951   4 
  -1  -2   1 472.372 12.1134   2 
  -1  -2   1 464.370 11.9803   6 
  -1  -2   1 476.821 12.0119   5 
  -1  -2   1 462.335 11.9927   6 
  -1  -2   1 468.487 12.0404   1 
   0  -2   1 121.653 3.14232   6 
   0  -2   1 120.833 3.29948   2 
   0  -2   1 114.455 3.22333   5 
   0  -2   1 116.521 3.28062   4 
   0  -2   1 121.072 3.25736   3 
   0  -2   1 116.037 3.23292   1 
   0  -2   1 126.010 3.14919   6 
   1  -2   1 379.473 9.70411   2 
   1  -2   1 380.018 9.72125   3 
   1  -2   1 373.130 9.87259   4 
   1  -2   1 383.148 9.63244   6 
   1  -2   1 362.375 9.69309   1 
   1  -2   1 377.784 9.74654   5 
   1  -2   1 382.515 9.61908   6 
  -2   2  -1 0.79165 0.17721   2 
  -2   2  -1 0.44672 0.24556   1 
   2  -2   1 0.33214 0.24290   3 
   2  -2   1 1.30621 0.17979   6 
   2  -2   1 0.46577 0.34449   4 
   2  -2   1 0.30298 0.24910   5 
   2  -2   1 1.36487 0.19431   6 
  -3   2  -1 128.900 3.48761   2 
  -3   2  -1 131.819 3.74822   1 
   3  -2   1 131.424 3.82415   5 
   3  -2   1 132.494 3.58592   6 
   3  -2   1 127.423 4.06834   4 
   3  -2   1 130.408 3.76870   3 
   3  -2   1 135.987 3.59036   6 
  -4   2  -1 6.54329 0.37197   2 
  -4   2  -1 8.21857 0.69739   1 
  -4   2  -1 6.00250 0.63263   5 
   4  -2   1 6.00521 0.63516   5 
   4  -2   1 6.50756 0.48294   6 
   4  -2   1 6.68318 0.64805   3 
   4  -2   1 6.71000 0.83371   4 
   4  -2   1 6.11960 0.51160   6 
  -5   2  -1 905.004 23.3641   1 
  -5   2  -1 908.720 23.5451   5 
   5  -2   1 925.749 23.9784   4 
   5  -2   1 893.283 23.5362   5 
   5  -2   1 915.087 23.2524   6 
   5  -2   1 914.630 23.3022   6 
   5  -2   1 911.016 23.4515   3 
  -6   2  -1 3.11844 0.54670   1 
  -6   2  -1 3.03209 0.64776   5 
   6  -2   1 2.86096 0.65816   3 
   6  -2   1 3.85318 0.85820   4 
   6  -2   1 4.10332 0.56863   6 
  -7   2  -1 277.754 7.71383   1 
  -7   2  -1 260.456 7.93010   5 
   7  -2   1 271.732 7.72484   6 
   7  -2   1 273.331 8.51614   4 
   7  -2   1 288.658 7.92556   3 
  -8   2  -1 18.0969 1.25211   1 
  -8   2  -1 14.2913 1.27516   5 
   8  -2   1 17.9120 1.45155   3 
   8  -2   1 13.8917 1.16663   6 
   8  -2   1 15.2043 1.65217   4 
  -9   2  -1 154.174 4.84741   1 
  -9   2  -1 144.214 5.11222   5 
   9  -2   1 143.716 4.85709   6 
   9  -2   1 147.875 5.73363   4 
   9  -2   1 154.909 5.10399   3 
 -10   2  -1 37.5116 1.99263   1 
 -10   2  -1 29.4387 2.07789   5 
  10  -2   1 26.9165 1.81836   6 
  10  -2   1 28.8456 2.52219   4 
 -11   2  -1 36.4299 2.35352   5 
  11  -2   1 36.2861 2.12173   6 
  11  -2   1 37.7306 2.94320   4 
  13   1  -1 7.82231 1.41601   3 
  13   1  -1 9.34074 1.72078   4 
 -13  -1   1 7.92191 1.31608   5 
  12   1  -1 62.3014 2.99234   6 
  12   1  -1 58.5166 3.50281   4 
  12   1  -1 60.6460 3.20873   3 
 -12  -1   1 62.4888 3.06926   5 
 -12  -1   1 65.2121 2.98784   1 
  11   1  -1 5.53903 1.12914   6 
  11   1  -1 7.57727 1.27001   3 
  11   1  -1 8.23721 1.47849   4 
 -11  -1   1 5.94378 1.10278   5 
 -11  -1   1 6.91596 1.06316   1 
  10   1  -1 105.431 4.31516   4 
  10   1  -1 100.823 3.97805   3 
  10   1  -1 101.523 3.81277   6 
 -10  -1   1 99.6202 3.66757   1 
 -10  -1   1 104.255 3.83851   5 
   9   1  -1 10.1657 1.08174   6 
   9   1  -1 9.81772 1.29481   4 
   9   1  -1 9.78999 1.19357   3 
  -9  -1   1 10.0255 1.03499   5 
  -9  -1   1 9.94993 0.98336   1 
   8   1  -1 209.538 6.67968   4 
   8   1  -1 216.360 6.37053   6 
   8   1  -1 211.994 6.46892   3 
  -8  -1   1 214.002 6.18432   1 
  -8  -1   1 210.878 6.29995   5 
   7   1  -1 101.774 3.55077   3 
   7   1  -1 104.228 3.44976   6 
   7   1  -1 99.6495 3.66896   4 
  -7  -1   1 105.415 3.41246   5 
  -7  -1   1 101.968 3.27811   1 
   6   1  -1 434.674 11.5105   4 
   6   1  -1 413.883 11.2280   6 
   6   1  -1 416.497 10.7239   2 
   6   1  -1 423.406 11.3468   3 
  -6  -1   1 418.361 11.1894   5 
  -6  -1   1 412.670 11.0905   1 
  -6  -1   1 419.857 11.1614   6 
   5   1  -1 2.17410 0.43566   6 
   5   1  -1 2.07905 0.48564   3 
   5   1  -1 1.99592 0.24318   2 
   5   1  -1 1.78860 0.48351   4 
  -5  -1   1 1.15776 0.33552   1 
  -5  -1   1 1.41655 0.38164   5 
  -5  -1   1 2.12399 0.38461   6 
   4   1  -1 162.307 4.59848   3 
   4   1  -1 164.018 4.62063   4 
   4   1  -1 162.667 4.27195   2 
   4   1  -1 159.296 4.52088   6 
  -4  -1   1 160.916 4.44136   1 
  -4  -1   1 159.923 4.48366   6 
  -4  -1   1 158.874 4.47592   5 
   3   1  -1 11.3659 0.66785   6 
   3   1  -1 12.0903 0.69247   4 
   3   1  -1 13.2105 0.56331   2 
   3   1  -1 12.4607 0.76808   3 
  -3  -1   1 13.2116 0.66439   1 
  -3  -1   1 11.7167 0.64129   6 
  -3  -1   1 13.1481 0.68644   5 
   2   1  -1 671.042 16.8591   4 
   2   1  -1 656.215 16.7376   2 
   2   1  -1 652.378 16.7557   6 
   2   1  -1 660.004 16.8167   3 
  -2  -1   1 648.213 16.7535   1 
  -2  -1   1 666.320 16.7435   2 
  -2  -1   1 660.847 16.7429   6 
  -2  -1   1 665.206 16.7497   5 
   1   1  -1 388.616 10.1955   2 
   1   1  -1 399.663 10.1635   6 
   1   1  -1 404.966 10.2361   3 
  -1  -1   1 427.861 10.1985   5 
  -1  -1   1 397.150 10.1551   6 
  -1  -1   1 378.058 10.1639   1 
   0   1  -1 653.716 16.5279   3 
   0   1  -1 666.383 16.4033   2 
   0  -1   1 628.288 16.3618   5 
   0  -1   1 656.280 16.6309   3 
   0  -1   1 620.036 16.5138   6 
   0  -1   1 663.189 16.4020   2 
   0  -1   1 618.058 16.3420   1 
   0  -1   1 666.475 16.5425   6 
  -1   1  -1 917.549 23.2389   1 
  -1   1  -1 953.706 23.4138   2 
   1  -1   1 919.561 23.2847   6 
   1  -1   1 917.186 23.3745   4 
   1  -1   1 928.980 23.2610   6 
   1  -1   1 893.574 23.3115   3 
   1  -1   1 910.245 23.2388   5 
   1  -1   1 921.337 23.2274   1 
  -2   1  -1 987.779 25.3978   2 
  -2   1  -1 1021.43 25.4182   1 
   2  -1   1 996.253 25.4105   3 
   2  -1   1 995.459 25.4338   5 
   2  -1   1 1008.95 25.6316   4 
   2  -1   1 1021.49 25.3237   6 
   2  -1   1 1004.51 25.3270   6 
  -3   1  -1 114.646 2.98673   2 
  -3   1  -1 111.101 3.25595   1 
   3  -1   1 112.655 3.23259   3 
   3  -1   1 115.464 3.29949   5 
   3  -1   1 113.805 3.14089   6 
   3  -1   1 114.257 3.14535   6 
   3  -1   1 112.243 3.53471   4 
  -4   1  -1 1216.89 30.4647   1 
  -4   1  -1 1147.95 30.5116   5 
   4  -1   1 1216.78 30.3718   6 
   4  -1   1 1235.88 30.3956   6 
   4  -1   1 1247.76 30.9214   4 
   4  -1   1 1188.31 30.4739   3 
   4  -1   1 1151.63 30.5216   5 
  -5   1  -1 153.540 4.57302   5 
  -5   1  -1 156.094 4.44659   1 
   5  -1   1 152.776 4.49302   3 
   5  -1   1 154.215 4.57187   5 
   5  -1   1 153.121 4.93937   4 
   5  -1   1 155.045 4.39257   6 
   5  -1   1 152.589 4.40507   6 
  -6   1  -1 278.263 7.53286   1 
  -6   1  -1 272.151 7.68646   5 
   6  -1   1 279.121 8.16477   4 
   6  -1   1 266.395 7.52060   6 
   6  -1   1 270.472 7.59380   3 
  -7   1  -1 20.8468 1.40454   5 
  -7   1  -1 22.0468 1.28172   1 
   7  -1   1 21.8581 1.75430   4 
   7  -1   1 20.0810 1.25583   6 
   7  -1   1 22.8881 1.42907   3 
  -8   1  -1 97.6895 3.62978   5 
  -8   1  -1 103.659 3.47091   1 
   8  -1   1 102.665 4.15925   4 
   8  -1   1 106.258 3.67320   3 
   8  -1   1 101.525 3.53444   6 
  -9   1  -1 50.9086 2.47527   5 
  -9   1  -1 54.6749 2.32426   1 
   9  -1   1 54.9565 2.51280   3 
   9  -1   1 50.9294 2.34523   6 
   9  -1   1 50.9375 2.96153   4 
 -10   1  -1 139.678 4.53408   1 
 -10   1  -1 131.921 4.77175   5 
  10  -1   1 129.943 4.59163   6 
  10  -1   1 125.806 5.31710   4 
  10  -1   1 133.108 4.71040   3 
 -11   1  -1 4.80038 0.94564   1 
 -11   1  -1 4.27842 1.03660   5 
  11  -1   1 2.83886 1.26951   4 
  11  -1   1 2.27313 0.88473   6 
 -12   1  -1 30.3744 2.13004   5 
  12  -1   1 30.9249 2.73101   4 
  12  -1   1 25.7823 1.89795   6 
  13   0  -1 31.7264 2.15279   6 
  12   0  -1 -1.8740 0.69255   6 
  12   0  -1 -1.1638 0.87915   3 
  12   0  -1 -0.3747 1.08392   4 
 -12   0   1 -0.5633 0.78094   5 
  11   0  -1 134.249 5.42061   4 
  11   0  -1 125.739 4.86444   3 
  11   0  -1 133.749 4.73004   6 
 -11   0   1 124.855 4.75748   5 
 -11   0   1 136.303 4.61497   1 
  10   0  -1 23.8398 1.66676   6 
  10   0  -1 24.9921 2.11686   4 
  10   0  -1 23.4413 1.87155   3 
 -10   0   1 25.5013 1.64960   1 
 -10   0   1 22.4285 1.69648   5 
   9   0  -1 74.5733 3.18764   3 
   9   0  -1 82.2552 3.59197   4 
   9   0  -1 80.8670 3.10711   6 
  -9   0   1 78.2405 3.11671   5 
  -9   0   1 80.1671 2.94781   1 
   8   0  -1 19.2833 1.70320   4 
   8   0  -1 18.5451 1.53276   3 
   8   0  -1 16.7670 1.32571   6 
  -8   0   1 18.4441 1.23906   1 
  -8   0   1 15.9124 1.27491   5 
   7   0  -1 66.1783 2.49776   6 
   7   0  -1 68.7862 2.90296   4 
   7   0  -1 66.8189 2.62486   3 
  -7   0   1 58.8951 2.47054   5 
  -7   0   1 66.9465 2.36324   1 
   6   0  -1 72.3733 2.61476   3 
   6   0  -1 76.1452 2.83847   4 
   6   0  -1 66.5281 2.47224   6 
  -6   0   1 71.1789 2.54629   5 
  -6   0   1 69.7637 2.34958   1 
  -6   0   1 68.9361 2.37933   6 
   5   0  -1 173.563 5.10723   3 
   5   0  -1 177.723 5.03531   6 
   5   0  -1 176.136 5.28010   4 
  -5   0   1 168.096 5.02452   5 
  -5   0   1 183.083 4.96779   6 
  -5   0   1 179.905 4.89719   1 
   4   0  -1 33.8934 1.40805   3 
   4   0  -1 34.0440 1.49314   4 
   4   0  -1 33.0803 1.31461   6 
  -4   0   1 31.9143 1.31910   5 
  -4   0   1 34.8285 1.23728   1 
  -4   0   1 34.6269 1.27053   6 
   3   0  -1 8.59017 0.36822   2 
   3   0  -1 7.67389 0.65977   3 
   3   0  -1 8.10473 0.67931   4 
   3   0  -1 7.31627 0.55676   6 
  -3   0   1 8.84262 0.50557   1 
  -3   0   1 7.49081 0.59416   5 
  -3   0   1 7.83705 0.49889   6 
   2   0  -1 1133.66 28.3706   3 
   2   0  -1 1119.74 28.4395   4 
   2   0  -1 1068.64 28.2884   6 
   2   0  -1 1151.22 28.4391   2 
  -2   0   1 1098.01 28.3166   5 
  -2   0   1 1131.05 28.2804   1 
  -2   0   1 1154.38 28.2844   6 
   1   0  -1 1742.05 45.3319   3 
   1   0  -1 1877.43 45.5126   2 
   1   0  -1 1764.69 45.0943   6 
  -1   0   1 1842.18 45.4087   5 
  -1   0   1 1729.39 45.4224   1 
  -1   0   1 1771.29 45.1481   6 
   0   0  -1 27.4126 0.81914   2 
   0   0  -1 25.7561 0.79995   3 
   0   0   1 28.4332 0.79682   6 
   0   0   1 29.9845 0.84742   4 
   0   0   1 29.5927 0.82237   5 
  -1   0  -1 2641.04 68.1719   1 
  -1   0  -1 2807.25 68.7595   2 
  -1   0  -1 2813.27 68.2055   6 
   1   0   1 2683.01 68.1259   6 
   1   0   1 2687.23 68.7823   4 
   1   0   1 2553.81 68.1997   5 
  -2   0  -1 33.5818 1.04255   6 
  -2   0  -1 31.7983 1.08322   1 
  -2   0  -1 34.4595 0.94649   2 
   2   0   1 33.5402 1.25804   4 
   2   0   1 31.7369 1.03936   6 
   2   0   1 31.4182 1.02401   6 
   2   0   1 31.4919 1.08086   5 
   2   0   1 31.7927 1.04736   3 
  -3   0  -1 614.580 15.6187   2 
  -3   0  -1 634.490 15.6247   1 
   3   0   1 599.136 15.5502   6 
   3   0   1 595.976 15.6206   5 
   3   0   1 575.034 15.5470   6 
   3   0   1 619.901 15.6112   3 
   3   0   1 638.685 15.8920   4 
  -4   0  -1 332.467 8.91201   5 
  -4   0  -1 337.585 8.86764   1 
  -4   0  -1 343.924 8.84268   6 
   4   0   1 329.258 8.83706   6 
   4   0   1 340.376 8.89128   3 
   4   0   1 355.643 9.25600   4 
   4   0   1 332.491 8.83519   6 
   4   0   1 326.238 8.91050   5 
  -5   0  -1 364.343 9.69891   6 
  -5   0  -1 373.217 9.72779   1 
  -5   0  -1 362.446 9.80595   5 
   5   0   1 363.679 9.72595   6 
   5   0   1 360.473 9.76625   3 
   5   0   1 381.229 10.2004   4 
  -6   0  -1 144.158 4.19872   1 
  -6   0  -1 141.243 4.30531   5 
   6   0   1 137.158 4.21495   6 
   6   0   1 140.468 4.69771   4 
   6   0   1 144.545 4.28444   3 
  -7   0  -1 158.264 4.97331   5 
  -7   0  -1 165.348 4.84429   1 
   7   0   1 163.076 4.90581   6 
   7   0   1 165.073 4.97013   3 
   7   0   1 162.276 5.46142   4 
  -8   0  -1 14.9277 1.13869   1 
  -8   0  -1 15.5597 1.23417   5 
   8   0   1 16.2169 1.31120   3 
   8   0   1 13.3459 1.10202   6 
   8   0   1 17.4245 1.63614   4 
  -9   0  -1 11.0142 1.05625   1 
  -9   0  -1 13.3986 1.18482   5 
   9   0   1 13.0199 1.54321   4 
   9   0   1 14.2116 1.36066   3 
   9   0   1 11.8970 1.14152   6 
 -10   0  -1 11.2100 1.22448   5 
 -10   0  -1 12.2190 1.16248   1 
  10   0   1 10.0635 1.20585   3 
  10   0   1 11.3204 1.57583   4 
  10   0   1 10.6950 1.24053   6 
 -11   0  -1 55.1453 2.65659   1 
 -11   0  -1 57.0671 2.81576   5 
  11   0   1 54.6756 3.34637   4 
  11   0   1 57.4462 2.72522   6 
 -12   0  -1 -0.2806 0.75676   5 
 -12   0  -1 1.52395 0.87271   1 
  12   0   1 0.31540 1.19164   4 
  12   0   1 0.73876 0.88708   6 
  12  -1  -1 100.637 4.03051   6 
  12  -1  -1 100.432 4.84333   4 
  12  -1  -1 94.5834 4.21022   3 
 -12   1   1 103.429 4.27671   5 
  11  -1  -1 -0.4860 0.75703   6 
  11  -1  -1 1.12842 0.90294   3 
  11  -1  -1 -1.2442 1.00777   4 
 -11   1   1 -0.3799 0.75507   5 
  10  -1  -1 96.6404 3.86535   3 
  10  -1  -1 98.0719 4.33475   4 
  10  -1  -1 86.2795 3.53719   6 
 -10   1   1 100.144 3.54309   1 
 -10   1   1 92.8798 3.78342   5 
   9  -1  -1 2.05684 1.03206   4 
   9  -1  -1 1.71314 0.79963   3 
   9  -1  -1 0.84754 0.67195   6 
  -9   1   1 2.13204 0.63623   1 
  -9   1   1 1.88309 0.78303   5 
   8  -1  -1 151.519 4.88000   6 
   8  -1  -1 153.986 5.06192   3 
   8  -1  -1 159.668 5.52514   4 
  -8   1   1 159.532 4.76410   1 
  -8   1   1 152.838 5.02735   5 
   7  -1  -1 258.864 7.75445   4 
   7  -1  -1 252.175 7.18554   6 
   7  -1  -1 245.505 7.32365   3 
  -7   1   1 244.542 7.28237   5 
  -7   1   1 256.828 7.01033   1 
   6  -1  -1 317.448 9.13010   4 
   6  -1  -1 313.731 8.78508   3 
   6  -1  -1 313.574 8.65248   6 
  -6   1   1 314.401 8.47885   1 
  -6   1   1 320.768 8.77302   5 
   5  -1  -1 7.66771 0.77015   3 
   5  -1  -1 8.09130 0.62682   6 
   5  -1  -1 9.80085 0.73228   6 
   5  -1  -1 11.0128 1.06391   4 
  -5   1   1 9.75883 0.66734   6 
  -5   1   1 8.46630 0.73155   5 
  -5   1   1 9.00811 0.68121   1 
   4  -1  -1 263.249 7.22755   4 
   4  -1  -1 248.845 6.83364   6 
   4  -1  -1 252.120 6.98445   3 
   4  -1  -1 251.058 6.87873   6 
  -4   1   1 259.590 6.75270   1 
  -4   1   1 265.458 6.81552   6 
  -4   1   1 247.295 6.93845   5 
   3  -1  -1 0.24512 0.28072   3 
   3  -1  -1 0.53402 0.22321   6 
   3  -1  -1 0.28379 0.16916   6 
   3  -1  -1 0.14616 0.30792   4 
  -3   1   1 0.81204 0.20197   1 
  -3   1   1 0.76876 0.26864   5 
  -3   1   1 0.13203 0.14981   6 
   2  -1  -1 74.8398 2.14039   6 
   2  -1  -1 75.1011 2.33244   4 
   2  -1  -1 76.0111 2.10659   6 
   2  -1  -1 73.3374 2.24324   3 
  -2   1   1 73.5907 2.04021   1 
  -2   1   1 72.5025 2.19095   5 
  -2   1   1 75.7588 2.08396   6 
   1  -1  -1 834.519 20.4063   6 
   1  -1  -1 768.397 20.4816   3 
   1  -1  -1 813.381 20.5817   4 
   1  -1  -1 815.506 20.4423   6 
  -1   1   1 813.260 20.4010   6 
   0  -1  -1 2492.93 60.8649   6 
   0  -1  -1 2441.93 60.8790   2 
   0  -1  -1 2241.49 60.8177   3 
   0   1   1 2326.98 61.2047   5 
   0   1   1 2535.19 61.4766   4 
   0   1   1 2349.42 60.6956   6 
  -1  -1  -1 2.31100 0.18300   6 
   1   1   1 3.27077 0.24058   6 
   1   1   1 2.54707 0.25280   4 
   1   1   1 1.65439 0.13776   5 
   1   1   1 0.95078 0.19730   3 
  -2  -1  -1 9261.64 240.201   2 
  -2  -1  -1 9076.88 239.300   6 
  -2  -1  -1 9730.30 239.595   1 
   2   1   1 9999.99 240.756   4 
   2   1   1 9408.54 239.745   5 
   2   1   1 9763.30 239.436   6 
   2   1   1 9520.57 240.292   3 
  -3  -1  -1 464.737 11.9596   6 
  -3  -1  -1 451.195 11.8543   2 
  -3  -1  -1 467.821 11.9366   5 
  -3  -1  -1 468.156 11.9581   1 
   3   1   1 466.528 11.9403   5 
   3   1   1 494.787 12.2099   4 
   3   1   1 461.997 11.9474   6 
   3   1   1 454.696 11.9788   3 
  -4  -1  -1 778.301 19.9116   6 
  -4  -1  -1 764.788 19.9003   5 
  -4  -1  -1 752.436 19.7505   2 
  -4  -1  -1 796.703 19.9196   1 
   4   1   1 768.087 19.9042   5 
   4   1   1 822.170 20.2307   4 
   4   1   1 782.309 19.9092   6 
   4   1   1 784.750 19.9646   3 
  -5  -1  -1 196.031 5.48347   6 
  -5  -1  -1 198.430 5.15915   2 
  -5  -1  -1 193.825 5.46404   1 
  -5  -1  -1 199.035 5.49954   5 
   5   1   1 208.226 5.86862   4 
   5   1   1 194.902 5.49423   6 
   5   1   1 197.937 5.54681   3 
  -6  -1  -1 72.4295 2.40130   6 
  -6  -1  -1 72.1863 2.39065   1 
  -6  -1  -1 66.4869 2.40075   5 
   6   1   1 70.1703 2.48369   3 
   6   1   1 73.8208 2.81312   4 
   6   1   1 67.5518 2.41617   6 
  -7  -1  -1 5.42055 0.67594   5 
  -7  -1  -1 4.96161 0.61977   1 
   7   1   1 6.54132 0.74377   6 
   7   1   1 5.06025 0.90113   4 
   7   1   1 5.24062 0.74971   3 
  -8  -1  -1 177.438 5.45258   5 
  -8  -1  -1 175.789 5.35501   1 
   8   1   1 184.818 5.56230   3 
   8   1   1 179.838 5.47828   6 
   8   1   1 183.459 6.01929   4 
  -9  -1  -1 5.24534 0.81973   5 
  -9  -1  -1 5.99207 0.81407   1 
   9   1   1 5.99717 0.89058   6 
   9   1   1 5.18114 1.15283   4 
   9   1   1 6.55784 0.93419   3 
 -10  -1  -1 67.3186 2.84645   5 
 -10  -1  -1 67.6862 2.77985   1 
  10   1   1 64.2094 2.92918   3 
  10   1   1 67.4178 2.85171   6 
  10   1   1 63.8783 3.35734   4 
 -11  -1  -1 16.1389 1.45333   5 
 -11  -1  -1 17.4283 1.52450   1 
  11   1   1 15.3557 1.51427   3 
  11   1   1 17.8423 1.94424   4 
  11   1   1 15.0986 1.45107   6 
 -12  -1  -1 43.1324 2.42748   5 
 -12  -1  -1 42.1161 2.34917   1 
  12   1   1 37.3630 2.93793   4 
  12   1   1 40.8538 2.39370   6 
 -13  -1  -1 4.74524 1.14863   5 
 -13  -1  -1 4.01592 1.12557   1 
  13   1   1 6.70097 1.22332   6 
  13   1   1 3.94041 1.48360   4 
  11  -2  -1 80.2862 3.30851   6 
  11  -2  -1 77.0587 3.56466   3 
  11  -2  -1 75.6256 4.08947   4 
 -11   2   1 75.9179 3.53394   5 
  10  -2  -1 11.9546 1.24014   6 
  10  -2  -1 12.0685 1.44565   3 
  10  -2  -1 11.6942 1.66322   4 
 -10   2   1 11.7834 1.34703   5 
   9  -2  -1 58.7972 2.54678   6 
   9  -2  -1 64.6911 3.29678   4 
   9  -2  -1 56.7164 2.79381   3 
  -9   2   1 60.0165 2.80714   5 
  -9   2   1 60.3310 2.48110   1 
   8  -2  -1 -0.7770 0.48374   6 
   8  -2  -1 0.18315 0.77548   4 
   8  -2  -1 -0.4500 0.65427   3 
  -8   2   1 0.27665 0.46045   1 
  -8   2   1 -0.4875 0.55839   5 
   7  -2  -1 378.340 10.9177   4 
   7  -2  -1 370.575 10.1835   6 
   7  -2  -1 368.964 10.4149   3 
  -7   2   1 375.247 10.0215   1 
  -7   2   1 365.091 10.3869   5 
   6  -2  -1 124.838 4.41724   4 
   6  -2  -1 123.329 3.82488   6 
   6  -2  -1 122.479 4.02473   3 
  -6   2   1 119.778 3.98109   5 
  -6   2   1 122.483 3.67208   1 
   5  -2  -1 425.044 11.4168   3 
   5  -2  -1 423.228 11.1663   6 
   5  -2  -1 416.949 11.7387   4 
   5  -2  -1 424.927 11.2063   6 
  -5   2   1 430.923 11.3949   5 
  -5   2   1 419.547 11.0625   1 
   4  -2  -1 289.725 8.03339   3 
   4  -2  -1 295.429 8.30393   4 
   4  -2  -1 293.858 7.81003   6 
   4  -2  -1 304.720 7.85912   6 
  -4   2   1 288.566 7.73058   1 
  -4   2   1 290.772 7.99672   5 
   3  -2  -1 340.021 8.92440   2 
   3  -2  -1 341.150 9.46833   4 
   3  -2  -1 360.033 9.10485   6 
   3  -2  -1 349.801 9.28267   3 
   3  -2  -1 349.804 9.06140   6 
  -3   2   1 349.824 9.24376   5 
  -3   2   1 351.716 9.02658   1 
   2  -2  -1 40.4716 1.26725   6 
   2  -2  -1 38.9072 1.55588   4 
   2  -2  -1 40.7761 1.24662   6 
   2  -2  -1 38.5367 1.44794   3 
  -2   2   1 39.1011 1.38539   5 
  -2   2   1 40.2185 1.22195   1 
   1  -2  -1 900.607 23.1350   3 
   1  -2  -1 940.645 23.0321   6 
   1  -2  -1 916.768 23.2470   4 
   1  -2  -1 902.393 23.0355   2 
   1  -2  -1 925.680 22.9810   6 
  -1   2   1 891.189 23.0594   5 
  -1   2   1 906.552 23.0480   1 
   0  -2  -1 125.812 3.33259   2 
   0  -2  -1 130.713 3.25210   6 
   0  -2  -1 124.526 3.45280   4 
   0  -2  -1 120.563 3.23116   1 
   0  -2  -1 118.091 3.38189   3 
   0   2   1 125.623 3.28435   5 
   0   2   1 123.341 3.45259   4 
  -1  -2  -1 962.925 24.2856   1 
  -1  -2  -1 895.648 25.8233   5 
  -1  -2  -1 914.584 24.2673   2 
  -1  -2  -1 989.461 24.2622   6 
  -1  -2  -1 967.675 24.3339   3 
   1   2   1 956.492 24.2211   6 
   1   2   1 999.950 26.4061   5 
   1   2   1 1006.02 24.4122   4 
  -2  -2  -1 827.877 20.7120   1 
  -2  -2  -1 780.023 20.6807   6 
  -2  -2  -1 797.523 20.7181   2 
  -2  -2  -1 806.805 20.8529   5 
   2   2   1 842.813 20.8735   4 
   2   2   1 835.790 20.6867   6 
   2   2   1 840.203 20.8106   3 
   2   2   1 821.599 20.8674   5 
  -3  -2  -1 449.123 11.7995   2 
  -3  -2  -1 445.705 11.8436   1 
  -3  -2  -1 453.302 11.7566   5 
  -3  -2  -1 460.872 11.8559   6 
   3   2   1 487.727 12.0670   4 
   3   2   1 465.201 11.8498   6 
   3   2   1 470.871 11.9530   3 
  -4  -2  -1 41.5039 1.46080   6 
  -4  -2  -1 42.9402 1.47022   1 
  -4  -2  -1 39.3277 1.32735   2 
  -4  -2  -1 41.0770 1.38245   5 
   4   2   1 42.9652 1.57756   3 
   4   2   1 40.8060 1.46950   6 
   4   2   1 44.6174 1.75739   4 
  -5  -2  -1 620.597 16.6148   6 
  -5  -2  -1 619.688 16.5886   1 
  -5  -2  -1 648.996 16.4204   2 
  -5  -2  -1 645.093 16.5577   5 
   5   2   1 686.161 16.9618   4 
   5   2   1 652.668 16.7247   3 
   5   2   1 640.433 16.6374   6 
  -6  -2  -1 102.168 2.89527   2 
  -6  -2  -1 99.9948 3.20721   6 
  -6  -2  -1 100.858 3.19421   1 
  -6  -2  -1 101.454 3.16163   5 
   6   2   1 106.061 3.34951   3 
   6   2   1 102.291 3.25308   6 
   6   2   1 109.953 3.58613   4 
  -7  -2  -1 223.331 6.25871   1 
  -7  -2  -1 213.041 6.20203   5 
  -7  -2  -1 217.464 6.26467   6 
   7   2   1 224.104 6.39898   3 
   7   2   1 220.189 6.33027   6 
   7   2   1 221.232 6.69742   4 
  -8  -2  -1 -0.4229 0.39449   5 
  -8  -2  -1 -0.3835 0.40416   1 
   8   2   1 -0.3370 0.64276   4 
   8   2   1 0.00409 0.43575   6 
   8   2   1 -0.6343 0.52688   3 
  -9  -2  -1 20.5452 1.37962   5 
  -9  -2  -1 18.3515 1.32608   1 
   9   2   1 18.5838 1.51961   3 
   9   2   1 18.4045 1.40445   6 
   9   2   1 19.0916 1.71635   4 
 -10  -2  -1 17.3648 1.43789   5 
 -10  -2  -1 18.7073 1.45897   1 
  10   2   1 18.3246 1.66713   3 
  10   2   1 19.4155 1.54058   6 
  10   2   1 18.3091 1.88088   4 
 -11  -2  -1 72.7381 3.10610   5 
 -11  -2  -1 77.5230 3.14887   1 
  11   2   1 74.4111 3.21054   6 
  11   2   1 72.8229 3.74199   4 
  11   2   1 74.4676 3.30860   3 
 -12  -2  -1 13.0552 1.37839   5 
 -12  -2  -1 11.9069 1.34811   1 
  12   2   1 12.9512 1.44443   6 
  12   2   1 10.8167 1.72014   4 
  12   2   1 11.0976 1.46451   3 
 -13  -2  -1 42.2704 2.53055   5 
 -13  -2  -1 46.0927 2.63487   1 
  13   2   1 42.5915 3.16681   4 
  11  -3  -1 18.5935 1.57602   6 
  11  -3  -1 23.7554 2.46293   4 
 -11   3   1 26.8852 2.07481   5 
  10  -3  -1 46.1212 2.71381   3 
  10  -3  -1 47.8882 3.11916   4 
  10  -3  -1 45.8113 2.32776   6 
 -10   3   1 48.1659 2.68447   5 
   9  -3  -1 18.5833 1.41319   6 
   9  -3  -1 20.5674 2.07193   4 
   9  -3  -1 20.5708 1.82079   3 
  -9   3   1 19.4919 1.69288   5 
   8  -3  -1 124.404 4.44038   3 
   8  -3  -1 121.770 4.08573   6 
   8  -3  -1 126.276 4.96482   4 
  -8   3   1 126.866 4.00549   1 
  -8   3   1 121.754 4.41238   5 
   7  -3  -1 110.587 3.92225   3 
   7  -3  -1 105.969 3.56550   6 
   7  -3  -1 111.824 4.35445   4 
  -7   3   1 109.144 3.47677   1 
  -7   3   1 105.463 3.85860   5 
   6  -3  -1 275.121 7.96731   3 
   6  -3  -1 275.016 8.39149   4 
   6  -3  -1 275.442 7.63880   6 
  -6   3   1 270.048 7.91273   5 
  -6   3   1 281.849 7.53991   1 
   5  -3  -1 41.8775 2.18926   4 
   5  -3  -1 43.1256 1.95770   3 
   5  -3  -1 41.8611 1.65594   6 
  -5   3   1 41.4703 1.57830   1 
  -5   3   1 38.6281 1.87432   5 
   4  -3  -1 509.061 13.4361   3 
   4  -3  -1 513.800 13.1176   6 
   4  -3  -1 506.751 13.7434   4 
   4  -3  -1 482.070 12.8889   2 
   4  -3  -1 507.738 13.0940   6 
  -4   3   1 500.270 13.3671   5 
  -4   3   1 519.001 13.0816   1 
   3  -3  -1 22.6712 0.92494   6 
   3  -3  -1 22.1394 1.19259   3 
   3  -3  -1 21.7256 0.86684   2 
   3  -3  -1 21.1586 1.32157   4 
   3  -3  -1 22.8118 0.91416   6 
  -3   3   1 21.9237 1.11833   5 
  -3   3   1 22.0010 0.90250   1 
   2  -3  -1 422.468 11.0456   3 
   2  -3  -1 408.169 11.2091   4 
   2  -3  -1 406.032 10.7790   2 
   2  -3  -1 432.024 10.7270   6 
   2  -3  -1 427.632 10.7456   6 
  -2   3   1 420.839 10.7647   1 
   1  -3  -1 136.552 3.51710   6 
   1  -3  -1 136.651 3.53545   6 
   1  -3  -1 129.686 3.55506   1 
   1  -3  -1 138.558 3.84861   3 
   1  -3  -1 130.446 3.93328   4 
   1  -3  -1 133.766 3.67278   2 
  -1   3   1 134.690 3.58021   1 
   0  -3  -1 279.979 7.34310   2 
   0  -3  -1 297.729 7.20042   6 
   0  -3  -1 278.191 7.49135   4 
   0  -3  -1 270.895 7.15777   6 
   0  -3  -1 278.446 7.43052   3 
   0  -3  -1 276.340 7.20025   1 
   0   3   1 281.478 7.50181   4 
   0   3   1 283.479 7.26738   5 
  -1  -3  -1 1108.97 28.0471   3 
  -1  -3  -1 1154.48 27.9136   6 
  -1  -3  -1 1079.79 27.8452   6 
  -1  -3  -1 1080.99 27.9063   1 
  -1  -3  -1 1076.64 27.9798   2 
   1   3   1 1150.72 28.0968   4 
   1   3   1 1100.40 28.0610   5 
  -2  -3  -1 367.943 9.32336   1 
  -2  -3  -1 349.956 9.23809   6 
  -2  -3  -1 352.388 9.34340   2 
   2   3   1 377.596 9.42971   4 
   2   3   1 354.784 9.22645   6 
   2   3   1 357.823 9.40786   3 
  -3  -3  -1 94.6249 2.82084   1 
  -3  -3  -1 98.3359 2.78366   6 
  -3  -3  -1 93.8211 2.79554   2 
  -3  -3  -1 99.3962 2.60036   5 
   3   3   1 104.622 2.96893   4 
   3   3   1 96.8440 2.92852   3 
   3   3   1 95.7577 2.76986   6 
  -4  -3  -1 4.74219 0.47450   1 
  -4  -3  -1 4.38435 0.40993   2 
  -4  -3  -1 5.48586 0.40478   5 
  -4  -3  -1 4.94591 0.44735   6 
   4   3   1 5.24718 0.55820   4 
   4   3   1 5.07866 0.53435   3 
   4   3   1 5.55750 0.45601   6 
  -5  -3  -1 94.9179 2.94905   6 
  -5  -3  -1 95.2029 2.80716   5 
  -5  -3  -1 93.4340 2.83756   2 
  -5  -3  -1 94.8790 2.96616   1 
   5   3   1 100.670 2.98915   6 
   5   3   1 100.040 3.18915   4 
   5   3   1 98.5322 3.11163   3 
  -6  -3  -1 400.651 10.5439   2 
  -6  -3  -1 403.509 10.7761   6 
  -6  -3  -1 394.225 10.5972   5 
  -6  -3  -1 394.969 10.7492   1 
   6   3   1 416.148 11.0557   4 
   6   3   1 410.911 10.8079   6 
   6   3   1 409.769 10.8961   3 
  -7  -3  -1 118.075 3.63108   5 
  -7  -3  -1 117.875 3.43650   2 
  -7  -3  -1 122.591 3.77212   6 
  -7  -3  -1 109.065 3.69363   1 
   7   3   1 126.613 4.12224   4 
   7   3   1 120.698 3.90794   3 
   7   3   1 119.093 3.80228   6 
  -8  -3  -1 105.908 3.51784   1 
  -8  -3  -1 104.202 3.40900   5 
   8   3   1 106.358 3.58443   6 
   8   3   1 101.184 3.65558   3 
   8   3   1 106.509 3.91749   4 
  -9  -3  -1 5.66786 0.80439   5 
  -9  -3  -1 6.67268 0.86266   1 
   9   3   1 5.43560 0.94577   3 
   9   3   1 6.98615 0.92095   6 
   9   3   1 6.20362 1.12363   4 
 -10  -3  -1 130.779 4.50961   1 
 -10  -3  -1 134.431 4.45139   5 
  10   3   1 140.029 4.69184   6 
  10   3   1 138.551 5.09317   4 
  10   3   1 127.934 4.66810   3 
 -11  -3  -1 -0.6543 0.67908   1 
  11   3   1 0.54500 1.08068   4 
  11   3   1 0.43246 0.86361   3 
  11   3   1 -1.5246 0.62212   6 
 -12  -3  -1 82.8999 3.41120   5 
 -12  -3  -1 80.1122 3.45104   1 
  12   3   1 80.7049 3.66465   3 
  12   3   1 78.4603 4.01723   4 
 -13  -3  -1 6.50070 1.22402   1 
  13   3   1 8.06994 1.64989   4 
  10  -4  -1 1.92503 0.94800   3 
  10  -4  -1 1.69585 1.16542   4 
  10  -4  -1 0.55713 0.73434   6 
 -10   4   1 3.41265 1.04887   5 
   9  -4  -1 73.8876 3.83649   4 
   9  -4  -1 76.9457 3.38590   3 
   9  -4  -1 67.7353 2.82136   6 
  -9   4   1 69.6401 3.26472   5 
   8  -4  -1 49.3423 2.17411   6 
   8  -4  -1 50.6189 2.57518   3 
   8  -4  -1 48.5810 2.93603   4 
  -8   4   1 54.0862 2.58816   5 
   7  -4  -1 78.4003 3.16439   3 
   7  -4  -1 77.0062 2.75050   6 
   7  -4  -1 73.7364 3.52980   4 
  -7   4   1 77.8942 3.13036   5 
   6  -4  -1 22.9121 1.86613   4 
   6  -4  -1 25.0561 1.66581   3 
   6  -4  -1 22.6414 1.24919   6 
  -6   4   1 23.1209 1.23854   1 
  -6   4   1 23.5736 1.57777   5 
   5  -4  -1 633.152 16.2583   6 
   5  -4  -1 634.573 16.7064   3 
   5  -4  -1 617.692 17.1124   4 
  -5   4   1 622.120 16.2349   1 
  -5   4   1 625.315 16.6612   5 
   4  -4  -1 90.6100 2.76902   2 
   4  -4  -1 94.1376 3.56785   4 
   4  -4  -1 101.774 3.34457   3 
   4  -4  -1 99.3853 2.89950   6 
   4  -4  -1 94.2369 2.88400   6 
  -4   4   1 96.4146 3.24439   5 
  -4   4   1 97.7761 2.92632   1 
   3  -4  -1 549.575 14.0660   6 
   3  -4  -1 534.935 14.7596   4 
   3  -4  -1 533.055 14.1233   2 
   3  -4  -1 550.871 14.0657   6 
   3  -4  -1 549.014 14.4959   3 
  -3   4   1 548.811 14.4191   5 
  -3   4   1 576.297 14.1646   1 
   2  -4  -1 72.5948 2.48078   3 
   2  -4  -1 74.1478 2.05405   6 
   2  -4  -1 69.1144 2.61888   4 
   2  -4  -1 71.8857 2.05198   6 
   2  -4  -1 71.8878 2.23563   2 
  -2   4   1 70.9245 2.35969   5 
  -2   4   1 70.8517 2.15292   1 
   1  -4  -1 419.495 10.4941   6 
   1  -4  -1 414.309 10.7462   2 
   1  -4  -1 407.463 10.5854   1 
   1  -4  -1 412.710 10.9165   3 
   1  -4  -1 400.932 11.0265   4 
   1  -4  -1 421.385 10.5213   6 
   0  -4  -1 53.4428 1.50216   6 
   0  -4  -1 52.1662 1.61371   1 
   0  -4  -1 55.3222 1.80650   2 
   0  -4  -1 55.4607 1.91020   3 
   0  -4  -1 54.8644 1.95938   4 
   0  -4  -1 55.9032 1.52756   6 
   0   4   1 52.4845 1.99641   4 
   0   4   1 54.9869 1.68529   5 
  -1  -4  -1 1542.47 39.8478   3 
  -1  -4  -1 1573.32 39.5823   6 
  -1  -4  -1 1588.19 39.9594   1 
  -1  -4  -1 1620.05 39.6533   6 
  -1  -4  -1 1578.23 39.7929   2 
   1   4   1 1529.79 39.6508   5 
   1   4   1 1604.92 39.9118   4 
  -2  -4  -1 12.2539 0.77718   3 
  -2  -4  -1 11.2093 0.67305   1 
  -2  -4  -1 11.8454 0.54530   6 
  -2  -4  -1 10.8209 0.55322   6 
  -2  -4  -1 9.44091 0.67698   2 
   2   4   1 11.6176 0.75933   4 
   2   4   1 11.1174 0.75721   3 
  -3  -4  -1 563.258 14.8310   1 
  -3  -4  -1 566.244 14.8627   2 
  -3  -4  -1 570.738 14.7186   6 
  -3  -4  -1 569.133 14.7383   6 
   3   4   1 580.903 14.9721   3 
   3   4   1 616.813 14.9620   4 
   3   4   1 566.547 14.7204   6 
  -4  -4  -1 134.088 3.87576   1 
  -4  -4  -1 124.877 3.82517   2 
  -4  -4  -1 139.044 3.55157   5 
  -4  -4  -1 131.067 3.81358   6 
   4   4   1 135.574 4.01686   3 
   4   4   1 138.633 3.98476   4 
   4   4   1 133.740 3.79203   6 
  -5  -4  -1 768.104 19.8326   6 
  -5  -4  -1 794.553 19.6150   5 
  -5  -4  -1 756.668 19.8057   2 
  -5  -4  -1 729.006 19.8559   1 
   5   4   1 805.616 20.0878   4 
   5   4   1 770.580 20.0373   3 
   5   4   1 781.297 19.8508   6 
  -6  -4  -1 59.5426 2.10746   6 
  -6  -4  -1 55.8403 1.87451   5 
  -6  -4  -1 53.6646 1.97803   2 
  -6  -4  -1 55.4785 2.11346   1 
   6   4   1 59.0976 2.11527   6 
   6   4   1 56.1192 2.27946   4 
   6   4   1 57.7565 2.26543   3 
  -7  -4  -1 417.973 11.3072   2 
  -7  -4  -1 424.168 11.2977   5 
  -7  -4  -1 420.626 11.5284   6 
  -7  -4  -1 430.940 11.5694   1 
   7   4   1 428.376 11.7311   3 
   7   4   1 445.556 11.8372   4 
   7   4   1 441.056 11.6145   6 
  -8  -4  -1 59.0324 2.12116   2 
  -8  -4  -1 61.4962 2.41961   6 
  -8  -4  -1 58.9006 2.40890   1 
  -8  -4  -1 65.2803 2.29524   5 
   8   4   1 59.7450 2.61049   3 
   8   4   1 61.9356 2.47389   6 
   8   4   1 63.7668 2.74824   4 
  -9  -4  -1 203.843 6.25713   1 
  -9  -4  -1 217.435 6.09074   5 
   9   4   1 205.773 6.64171   4 
   9   4   1 198.723 6.41071   3 
   9   4   1 211.373 6.33534   6 
 -10  -4  -1 -0.6506 0.52786   5 
 -10  -4  -1 -0.8222 0.58170   1 
  10   4   1 -0.4324 0.69426   3 
  10   4   1 -0.1533 0.81872   4 
 -11  -4  -1 98.4162 3.80547   1 
 -11  -4  -1 106.700 3.73594   5 
  11   4   1 102.515 4.07255   3 
  11   4   1 96.2987 4.25333   4 
 -12  -4  -1 2.06670 0.85135   1 
  12   4   1 1.69523 1.19069   4 
  12   4   1 1.07040 1.01758   3 
 -13  -4  -1 54.4721 2.87743   1 
  13   4   1 58.6358 3.21297   3 
  13   4   1 52.3655 3.38276   4 
  14   4   1 5.10133 1.47998   4 
   9  -5  -1 -0.9072 0.95706   4 
   9  -5  -1 -0.3763 0.77194   3 
   9  -5  -1 -0.6209 0.54528   6 
  -9   5   1 -0.6017 0.76163   5 
   8  -5  -1 43.4193 1.99026   6 
   8  -5  -1 46.3345 2.95111   4 
  -8   5   1 42.8407 2.42878   5 
   7  -5  -1 43.3196 2.37794   3 
   7  -5  -1 43.3187 1.86405   6 
   7  -5  -1 43.9774 2.74917   4 
  -7   5   1 45.2166 2.33663   5 
   6  -5  -1 93.2884 3.00686   6 
   6  -5  -1 91.7234 3.96087   4 
   6  -5  -1 92.1063 3.55707   3 
  -6   5   1 90.6109 3.49002   5 
   5  -5  -1 0.79828 0.75546   4 
   5  -5  -1 0.25948 0.35046   6 
   5  -5  -1 0.81146 0.67300   3 
  -5   5   1 0.78235 0.41346   1 
  -5   5   1 0.41327 0.57531   5 
   4  -5  -1 453.634 11.4875   6 
   4  -5  -1 431.718 11.4795   6 
   4  -5  -1 447.249 12.0704   3 
   4  -5  -1 427.179 12.3925   4 
   4  -5  -1 428.162 11.4894   2 
  -4   5   1 455.527 11.6118   1 
  -4   5   1 442.321 11.9835   5 
   3  -5  -1 146.733 4.84252   4 
   3  -5  -1 142.343 4.19966   2 
   3  -5  -1 146.810 4.00901   6 
   3  -5  -1 140.979 4.02432   6 
   3  -5  -1 150.169 4.59667   3 
  -3   5   1 150.630 4.17972   1 
  -3   5   1 148.366 4.46893   5 
   2  -5  -1 84.4083 2.92704   3 
   2  -5  -1 87.1543 2.38729   6 
   2  -5  -1 83.2811 2.67779   2 
   2  -5  -1 84.4455 3.10364   4 
   2  -5  -1 84.2614 2.37129   6 
  -2   5   1 83.8397 2.77630   5 
  -2   5   1 86.0623 2.57086   1 
   1  -5  -1 18.4604 0.65451   6 
   1  -5  -1 19.2905 1.11738   3 
   1  -5  -1 17.6695 0.63390   6 
   1  -5  -1 17.6195 0.79212   1 
   1  -5  -1 18.6613 1.20171   4 
   1  -5  -1 16.7825 0.98228   2 
  -1   5   1 15.6885 0.91123   5 
   0  -5  -1 329.223 8.52990   6 
   0  -5  -1 339.262 8.56223   6 
   0  -5  -1 332.535 8.69860   1 
   0  -5  -1 337.640 9.13094   4 
   0  -5  -1 332.605 9.03345   3 
   0  -5  -1 331.914 8.92072   2 
   0   5   1 346.960 8.79748   5 
   0   5   1 328.260 9.11384   4 
  -1  -5  -1 0.25446 0.22836   1 
  -1  -5  -1 0.50324 0.14182   6 
  -1  -5  -1 0.32732 0.20506   5 
  -1  -5  -1 0.22020 0.13493   6 
  -1  -5  -1 0.22983 0.31362   2 
  -1  -5  -1 0.52977 0.16995   6 
  -1  -5  -1 0.27774 0.29683   3 
   1   5   1 0.67609 0.36279   4 
   1   5   1 0.85529 0.20860   5 
  -2  -5  -1 1206.52 30.2105   1 
  -2  -5  -1 1244.76 30.1126   6 
  -2  -5  -1 1153.83 30.3582   2 
  -2  -5  -1 1192.30 30.4385   3 
  -2  -5  -1 1166.44 30.0485   6 
  -2  -5  -1 1176.50 30.0984   5 
   2   5   1 1185.92 30.1049   5 
   2   5   1 1212.61 30.3914   4 
   2   5   1 1205.97 30.4438   3 
  -3  -5  -1 66.0588 2.32770   2 
  -3  -5  -1 72.6889 2.27356   1 
  -3  -5  -1 71.6590 2.11458   6 
  -3  -5  -1 68.6877 2.12390   6 
   3   5   1 71.3600 2.34267   4 
   3   5   1 68.8238 2.40951   3 
  -4  -5  -1 95.2126 3.06867   2 
  -4  -5  -1 104.037 3.09445   1 
  -4  -5  -1 94.5432 2.93025   6 
   4   5   1 101.490 3.22880   3 
   4   5   1 99.0426 3.11966   4 
   4   5   1 100.125 2.94308   6 
  -5  -5  -1 80.2937 2.61163   6 
  -5  -5  -1 83.8026 2.28735   5 
  -5  -5  -1 78.9659 2.71609   1 
  -5  -5  -1 79.9522 2.68995   2 
   5   5   1 85.6471 2.82041   4 
   5   5   1 83.7361 2.64079   6 
   5   5   1 81.5400 2.86767   3 
  -6  -5  -1 735.224 18.9022   6 
  -6  -5  -1 722.492 18.8952   2 
  -6  -5  -1 688.467 18.9400   1 
  -6  -5  -1 750.047 18.5704   5 
   6   5   1 715.845 18.9063   6 
   6   5   1 732.134 19.1630   3 
   6   5   1 759.263 19.1370   4 
  -7  -5  -1 49.9167 2.02815   6 
  -7  -5  -1 48.7944 2.06482   1 
  -7  -5  -1 46.2893 1.93625   2 
  -7  -5  -1 47.7244 1.76192   5 
   7   5   1 52.2323 2.06860   6 
   7   5   1 51.4528 2.27613   3 
   7   5   1 49.3687 2.21558   4 
  -8  -5  -1 76.9098 2.63867   2 
  -8  -5  -1 72.5582 2.81471   1 
  -8  -5  -1 74.0847 2.78819   6 
   8   5   1 74.4765 3.04639   4 
   8   5   1 77.6195 3.07311   3 
   8   5   1 78.9010 2.87090   6 
  -9  -5  -1 44.4442 2.14353   1 
  -9  -5  -1 45.8119 1.92704   5 
   9   5   1 46.7807 2.48745   4 
   9   5   1 40.5075 2.26025   3 
 -10  -5  -1 139.280 4.33803   5 
 -10  -5  -1 135.351 4.62445   1 
  10   5   1 129.113 4.77109   3 
  10   5   1 140.074 4.99438   4 
 -11  -5  -1 3.86690 0.95308   1 
  11   5   1 1.78842 0.98082   3 
  11   5   1 3.25881 1.11123   4 
 -12  -5  -1 28.9556 1.99157   1 
  12   5   1 27.3052 2.34060   4 
  12   5   1 27.7861 2.18019   3 
 -13  -5  -1 11.3703 1.45562   1 
  13   5   1 12.5557 1.66700   3 
  13   5   1 12.2093 1.74629   4 
  14   5   1 11.8989 1.68669   3 
   9  -6  -1 96.8344 4.79771   4 
   9  -6  -1 94.5877 3.43214   6 
  -9   6   1 101.408 4.24871   5 
   8  -6  -1 12.5725 1.02398   6 
   8  -6  -1 11.2326 1.70778   4 
   8  -6  -1 12.4798 1.48185   3 
  -8   6   1 13.2743 1.45275   5 
   7  -6  -1 0.71641 0.93558   4 
   7  -6  -1 0.19835 0.43403   6 
  -7   6   1 0.52731 0.65405   5 
   6  -6  -1 58.2230 3.07731   4 
   6  -6  -1 57.6201 2.07592   6 
   6  -6  -1 55.7656 2.72991   3 
  -6   6   1 53.8646 2.61055   5 
   5  -6  -1 120.278 4.28759   3 
   5  -6  -1 122.513 3.59132   6 
   5  -6  -1 119.792 4.66896   4 
  -5   6   1 121.262 4.22401   5 
   4  -6  -1 29.9870 1.19756   6 
   4  -6  -1 28.4370 2.00312   4 
   4  -6  -1 27.1836 1.77570   3 
  -4   6   1 30.4309 1.37471   1 
  -4   6   1 29.9672 1.72426   5 
   3  -6  -1 444.532 11.3794   6 
   3  -6  -1 432.680 12.4135   4 
   3  -6  -1 436.100 11.4106   6 
   3  -6  -1 449.281 12.1428   3 
   3  -6  -1 424.638 11.6984   2 
  -3   6   1 452.090 11.6467   1 
  -3   6   1 457.623 12.0108   5 
   2  -6  -1 105.256 3.40596   2 
   2  -6  -1 106.909 3.83116   4 
   2  -6  -1 111.273 2.98368   6 
   2  -6  -1 110.119 2.99665   6 
   2  -6  -1 109.256 3.66985   3 
  -2   6   1 108.570 3.49091   5 
  -2   6   1 109.623 3.25878   1 
   1  -6  -1 329.140 9.15469   3 
   1  -6  -1 325.170 8.72260   1 
   1  -6  -1 335.484 8.50171   6 
   1  -6  -1 320.743 9.29167   4 
   1  -6  -1 341.180 8.49140   6 
   1  -6  -1 332.695 9.00781   2 
  -1   6   1 336.653 8.93649   5 
   0  -6  -1 289.284 7.42332   1 
   0  -6  -1 275.510 7.87418   4 
   0  -6  -1 280.099 7.80179   3 
   0  -6  -1 278.629 7.68933   2 
   0  -6  -1 278.835 7.16076   6 
   0  -6  -1 272.400 7.17808   6 
   0   6   1 276.230 7.88757   4 
   0   6   1 285.207 7.50947   5 
  -1  -6  -1 340.519 8.86151   5 
  -1  -6  -1 341.729 9.19268   2 
  -1  -6  -1 331.825 9.24722   3 
  -1  -6  -1 343.535 8.92148   1 
  -1  -6  -1 335.032 8.69213   6 
  -1  -6  -1 345.383 8.72502   6 
   1   6   1 339.530 8.86277   5 
   1   6   1 337.087 9.28388   4 
  -2  -6  -1 3.08563 0.52622   3 
  -2  -6  -1 3.77649 0.44586   1 
  -2  -6  -1 3.20894 0.29436   6 
  -2  -6  -1 3.31850 0.33121   6 
  -2  -6  -1 2.96330 0.29510   5 
  -2  -6  -1 3.08544 0.55098   2 
   2   6   1 3.00341 0.57123   3 
   2   6   1 3.33313 0.29448   5 
   2   6   1 3.32101 0.55481   4 
  -3  -6  -1 753.762 20.5618   2 
  -3  -6  -1 808.255 20.2316   6 
  -3  -6  -1 777.023 20.2449   6 
  -3  -6  -1 810.167 20.4391   1 
   3   6   1 809.169 20.6911   3 
   3   6   1 816.833 20.5793   4 
  -4  -6  -1 182.666 5.36426   2 
  -4  -6  -1 184.357 5.08770   6 
  -4  -6  -1 189.110 5.28859   1 
  -4  -6  -1 186.697 5.11846   6 
   4   6   1 185.817 5.48410   3 
   4   6   1 180.346 5.30849   4 
  -5  -6  -1 233.556 6.57462   1 
  -5  -6  -1 233.671 6.62249   2 
  -5  -6  -1 231.681 6.43288   6 
   5   6   1 239.062 6.63950   4 
   5   6   1 229.896 6.76132   3 
  -6  -6  -1 97.3193 3.28757   2 
  -6  -6  -1 98.5472 2.73960   5 
  -6  -6  -1 100.112 3.19340   6 
  -6  -6  -1 100.785 3.33660   1 
   6   6   1 103.264 3.39380   4 
   6   6   1 98.1716 3.48970   3 
  -7  -6  -1 223.880 6.34518   2 
  -7  -6  -1 218.958 5.85659   5 
  -7  -6  -1 216.679 6.41864   1 
  -7  -6  -1 217.021 6.31577   6 
   7   6   1 217.702 6.61613   3 
   7   6   1 219.549 6.51442   4 
  -8  -6  -1 291.877 8.13019   2 
  -8  -6  -1 276.980 8.27322   1 
  -8  -6  -1 297.431 8.25292   6 
   8   6   1 297.044 8.43806   4 
   8   6   1 286.125 8.49666   3 
  -9  -6  -1 61.5635 2.68150   1 
  -9  -6  -1 69.2505 2.70835   6 
  -9  -6  -1 68.2394 2.50801   2 
   9   6   1 59.3802 2.85958   3 
   9   6   1 68.9221 2.95455   4 
 -10  -6  -1 -1.5539 0.56888   1 
  10   6   1 -0.4274 0.78150   3 
  10   6   1 -0.4614 0.78982   4 
 -11  -6  -1 46.8886 2.47321   1 
  11   6   1 48.6914 2.65844   3 
  11   6   1 53.2286 2.83610   4 
 -12  -6  -1 0.30395 0.71964   1 
  12   6   1 0.13259 0.92464   4 
  12   6   1 0.18131 0.90439   3 
 -13  -6  -1 40.3179 2.51314   1 
  13   6   1 38.0104 2.64863   3 
  14   6   1 10.4342 1.61513   3 
   8  -7  -1 45.9652 1.95151   6 
   8  -7  -1 42.1578 3.02326   4 
  -8   7   1 46.4205 2.70328   5 
   7  -7  -1 12.1894 1.69792   4 
   7  -7  -1 11.8677 0.95787   6 
   7  -7  -1 11.7937 1.41536   3 
  -7   7   1 12.0757 1.35893   5 
   6  -7  -1 54.5745 2.72775   3 
   6  -7  -1 51.6346 3.04830   4 
   6  -7  -1 52.3189 1.94882   6 
  -6   7   1 55.4004 2.68462   5 
   5  -7  -1 2.56944 0.96313   4 
   5  -7  -1 1.56293 0.39831   6 
   5  -7  -1 1.48232 0.79535   3 
  -5   7   1 1.07493 0.71441   5 
   4  -7  -1 141.447 5.24148   4 
   4  -7  -1 144.196 4.05184   6 
   4  -7  -1 148.370 4.97145   3 
  -4   7   1 148.709 4.83654   5 
   3  -7  -1 89.5148 3.03465   2 
   3  -7  -1 88.5391 2.57911   6 
   3  -7  -1 93.3657 3.44390   3 
   3  -7  -1 90.1069 2.62361   6 
   3  -7  -1 87.0903 3.64390   4 
  -3   7   1 91.0797 2.93626   1 
  -3   7   1 91.4117 3.28077   5 
   2  -7  -1 349.056 9.64461   2 
   2  -7  -1 362.761 9.05668   6 
   2  -7  -1 345.915 10.1248   4 
   2  -7  -1 340.353 9.05910   6 
   2  -7  -1 348.007 9.89608   3 
  -2   7   1 362.586 9.44798   1 
  -2   7   1 356.816 9.71020   5 
   1  -7  -1 -0.0780 0.14497   6 
   1  -7  -1 0.57737 0.46691   2 
   1  -7  -1 0.72812 0.31503   1 
   1  -7  -1 0.45094 0.14752   6 
   1  -7  -1 0.50303 0.51218   4 
   1  -7  -1 0.58900 0.48358   3 
  -1   7   1 -0.0586 0.36709   5 
   0  -7  -1 793.994 19.9306   6 
   0  -7  -1 801.656 20.5905   2 
   0  -7  -1 769.442 20.6666   3 
   0  -7  -1 794.926 20.2195   1 
   0  -7  -1 787.798 20.7912   4 
   0  -7  -1 790.208 19.9668   6 
   0   7   1 777.556 20.7755   4 
   0   7   1 801.202 20.3304   5 
  -1  -7  -1 31.7482 1.30819   1 
  -1  -7  -1 32.2311 1.64827   3 
  -1  -7  -1 30.5968 1.58869   2 
  -1  -7  -1 32.4857 1.04419   6 
  -1  -7  -1 32.8555 1.06654   6 
   1   7   1 31.7185 1.28449   5 
   1   7   1 31.5258 1.64675   4 
  -2  -7  -1 825.715 21.2614   2 
  -2  -7  -1 826.826 20.7120   6 
  -2  -7  -1 795.794 20.6669   6 
  -2  -7  -1 826.885 20.9438   1 
  -2  -7  -1 816.586 21.3093   3 
   2   7   1 820.239 20.7432   5 
   2   7   1 798.012 21.2991   3 
   2   7   1 821.586 21.2388   4 
  -3  -7  -1 45.2136 1.48481   6 
  -3  -7  -1 44.7735 1.71391   1 
  -3  -7  -1 43.6482 1.92782   2 
  -3  -7  -1 45.3625 1.52187   6 
   3   7   1 42.7467 1.96839   3 
   3   7   1 42.8514 1.85215   4 
   3   7   1 43.3057 1.33585   5 
  -4  -7  -1 199.782 5.57662   1 
  -4  -7  -1 190.611 5.31371   6 
  -4  -7  -1 195.964 5.74437   2 
  -4  -7  -1 185.312 5.33330   6 
   4   7   1 199.988 5.85204   3 
   4   7   1 192.259 5.63272   4 
  -5  -7  -1 2.03127 0.43363   6 
  -5  -7  -1 4.15701 0.63575   1 
  -5  -7  -1 3.12994 0.63840   2 
   5   7   1 2.92588 0.68527   3 
   5   7   1 3.34105 0.60586   4 
  -6  -7  -1 185.500 5.38715   1 
  -6  -7  -1 179.575 5.19981   6 
  -6  -7  -1 178.143 5.40346   2 
   6   7   1 175.673 5.37678   4 
   6   7   1 176.345 5.57710   3 
  -7  -7  -1 1.10995 0.53548   6 
  -7  -7  -1 1.05552 0.60691   1 
  -7  -7  -1 1.05607 0.60461   2 
   7   7   1 2.48296 0.68931   4 
   7   7   1 2.14448 0.72144   3 
  -8  -7  -1 65.7659 2.74487   1 
  -8  -7  -1 71.1928 2.67812   6 
  -8  -7  -1 67.1014 2.66794   2 
   8   7   1 67.4116 2.97709   3 
   8   7   1 70.2708 2.82522   4 
  -9  -7  -1 58.4271 2.61850   1 
  -9  -7  -1 58.2323 2.52077   6 
  -9  -7  -1 61.2456 2.49545   2 
   9   7   1 61.0537 2.86511   3 
   9   7   1 61.7187 2.77348   4 
 -10  -7  -1 120.115 4.40498   1 
  10   7   1 121.433 4.61335   3 
  10   7   1 135.470 4.67391   4 
 -11  -7  -1 1.39258 0.82093   1 
  11   7   1 0.87598 1.04030   3 
 -12  -7  -1 31.1573 2.12204   1 
  12   7   1 33.2833 2.29756   3 
 -13  -7  -1 0.00254 0.82911   1 
  13   7   1 0.30810 1.07439   3 
  14   7   1 24.8052 2.33724   3 
   7  -8  -1 32.9502 2.61099   4 
   7  -8  -1 31.9855 1.45095   6 
  -7   8   1 32.5763 2.24691   5 
   6  -8  -1 4.15494 1.21462   4 
   6  -8  -1 3.74946 0.51832   6 
   6  -8  -1 4.14506 1.03955   3 
  -6   8   1 5.26125 1.05943   5 
   5  -8  -1 209.729 5.78260   6 
   5  -8  -1 212.167 6.88798   3 
   5  -8  -1 215.514 7.36951   4 
  -5   8   1 213.136 6.78920   5 
   4  -8  -1 -0.1283 0.73324   4 
   4  -8  -1 0.43459 0.29661   6 
   4  -8  -1 0.95309 0.70156   3 
  -4   8   1 -0.6234 0.60292   5 
   3  -8  -1 529.365 13.4349   6 
   3  -8  -1 522.952 13.4439   6 
   3  -8  -1 513.394 14.8258   4 
   3  -8  -1 530.901 14.5459   3 
  -3   8   1 534.292 14.3470   5 
   2  -8  -1 220.954 7.13481   4 
   2  -8  -1 225.924 6.62917   2 
   2  -8  -1 227.405 5.90623   6 
   2  -8  -1 227.335 6.92578   3 
   2  -8  -1 229.958 5.89092   6 
  -2   8   1 226.823 6.69909   5 
   1  -8  -1 324.966 9.54231   4 
   1  -8  -1 323.999 9.36363   3 
   1  -8  -1 325.152 8.80938   1 
   1  -8  -1 330.096 9.21429   2 
  -1   8   1 346.136 9.10275   5 
  -1   8   1 316.618 9.52537   4 
   0  -8  -1 38.4182 1.13490   6 
   0  -8  -1 37.2232 1.84506   2 
   0  -8  -1 33.3157 1.83364   3 
   0  -8  -1 37.4456 1.52066   1 
   0  -8  -1 36.8326 1.13970   6 
   0   8   1 39.6927 2.03352   4 
   0   8   1 36.5857 1.58876   5 
  -1  -8  -1 356.953 9.08966   6 
  -1  -8  -1 332.761 9.83959   3 
  -1  -8  -1 341.193 9.04799   6 
  -1  -8  -1 368.804 9.46468   1 
  -1  -8  -1 361.040 9.84374   2 
   1   8   1 358.260 9.41484   5 
   1   8   1 352.277 9.94135   4 
  -2  -8  -1 4.23055 0.72855   2 
  -2  -8  -1 3.79153 0.68210   3 
  -2  -8  -1 3.68699 0.33459   6 
  -2  -8  -1 3.67712 0.55219   1 
  -2  -8  -1 3.84195 0.38536   6 
   2   8   1 4.74311 0.77572   3 
   2   8   1 3.73873 0.71011   4 
   2   8   1 3.49671 0.42022   5 
  -3  -8  -1 396.868 10.2281   6 
  -3  -8  -1 411.318 10.2807   6 
  -3  -8  -1 391.589 10.5204   1 
  -3  -8  -1 365.202 10.7802   2 
   3   8   1 396.516 10.9280   3 
   3   8   1 397.425 10.7712   4 
  -4  -8  -1 105.216 3.31157   1 
  -4  -8  -1 103.715 3.55941   2 
  -4  -8  -1 98.5070 3.06173   6 
   4   8   1 99.7354 3.60569   3 
   4   8   1 100.415 3.40691   4 
  -5  -8  -1 78.8685 2.97816   2 
  -5  -8  -1 78.8156 2.61121   6 
  -5  -8  -1 83.8085 2.84688   1 
   5   8   1 76.4233 2.83436   4 
   5   8   1 79.5648 3.09505   3 
  -6  -8  -1 5.70270 0.66369   6 
  -6  -8  -1 6.26128 0.79545   1 
  -6  -8  -1 5.97346 0.83672   2 
   6   8   1 5.94044 0.93186   3 
   6   8   1 6.04494 0.81529   4 
  -7  -8  -1 224.163 6.66605   1 
  -7  -8  -1 230.777 6.54801   6 
  -7  -8  -1 220.525 6.71897   2 
   7   8   1 225.316 6.96734   3 
   7   8   1 226.542 6.71683   4 
  -8  -8  -1 -0.0169 0.62078   1 
  -8  -8  -1 0.09925 0.64071   2 
  -8  -8  -1 0.86968 0.56962   6 
   8   8   1 0.17404 0.64079   4 
   8   8   1 0.31697 0.73432   3 
  -9  -8  -1 136.974 4.71237   1 
  -9  -8  -1 141.056 4.65444   2 
  -9  -8  -1 144.886 4.67298   6 
   9   8   1 142.781 4.83161   4 
   9   8   1 137.078 4.97715   3 
 -10  -8  -1 -0.5843 0.63100   2 
 -10  -8  -1 -0.6739 0.63651   1 
 -10  -8  -1 0.28253 0.64510   6 
  10   8   1 -0.3580 0.85797   3 
 -11  -8  -1 86.7385 3.60030   1 
  11   8   1 92.7327 3.92619   3 
 -12  -8  -1 4.73230 1.07711   1 
  12   8   1 7.63692 1.36760   3 
 -13  -8  -1 31.3022 2.20695   1 
  13   8   1 27.9579 2.40111   3 
  14   8   1 16.6802 1.95825   3 
   6  -9  -1 80.9185 2.52255   6 
   6  -9  -1 81.3545 4.12349   4 
  -6   9   1 80.0945 3.61074   5 
   5  -9  -1 -0.1472 0.29378   6 
   5  -9  -1 -0.4627 0.81962   4 
   5  -9  -1 0.24489 0.71073   3 
  -5   9   1 0.35265 0.73527   5 
   4  -9  -1 97.6803 2.70807   6 
   4  -9  -1 93.8461 3.89418   3 
   4  -9  -1 94.7275 4.22099   4 
  -4   9   1 95.2127 3.76026   5 
   3  -9  -1 17.3699 1.52281   3 
   3  -9  -1 17.3428 1.79006   4 
  -3   9   1 16.6284 1.42366   5 
   2  -9  -1 255.178 7.96784   3 
   2  -9  -1 262.687 7.70179   2 
   2  -9  -1 269.213 8.27477   4 
  -2   9   1 258.569 8.24375   4 
  -2   9   1 270.814 7.74699   5 
   1  -9  -1 17.6862 1.61797   4 
   1  -9  -1 18.4734 1.50229   3 
   1  -9  -1 16.3902 1.39331   2 
  -1   9   1 17.1104 1.32401   5 
  -1   9   1 17.5938 1.66903   4 
   0  -9  -1 352.754 10.4292   3 
   0  -9  -1 374.594 9.91005   1 
   0  -9  -1 371.610 10.3695   2 
   0   9   1 365.136 10.5949   4 
   0   9   1 374.733 10.0423   5 
  -1  -9  -1 61.4860 1.80409   6 
  -1  -9  -1 57.6018 2.56607   3 
  -1  -9  -1 62.4799 2.23745   1 
  -1  -9  -1 62.7831 2.63135   2 
   1   9   1 62.5253 2.22312   5 
   1   9   1 60.4105 2.67357   4 
  -2  -9  -1 45.8238 2.16699   2 
  -2  -9  -1 44.6575 1.48827   6 
  -2  -9  -1 44.7162 1.82145   1 
  -2  -9  -1 45.5700 1.46301   6 
  -2  -9  -1 43.5357 2.13874   3 
   2   9   1 43.4396 2.11844   4 
   2   9   1 43.8077 2.18378   3 
  -3  -9  -1 229.077 6.94045   2 
  -3  -9  -1 230.984 6.25382   6 
  -3  -9  -1 239.823 6.60633   1 
   3   9   1 234.165 6.87395   4 
   3   9   1 225.240 6.99296   3 
  -4  -9  -1 9.03519 1.01022   2 
  -4  -9  -1 11.7842 0.81389   6 
  -4  -9  -1 12.2216 1.04022   1 
   4   9   1 8.99700 1.07964   3 
   4   9   1 10.8140 1.03490   4 
  -5  -9  -1 3.04484 0.72460   2 
  -5  -9  -1 3.85894 0.66235   1 
  -5  -9  -1 3.49325 0.52523   6 
   5   9   1 3.56835 0.73079   4 
   5   9   1 2.81326 0.76957   3 
  -6  -9  -1 64.5386 2.33275   6 
  -6  -9  -1 60.0514 2.65188   2 
  -6  -9  -1 63.5364 2.54000   1 
   6   9   1 63.5975 2.83111   3 
   6   9   1 64.5021 2.57877   4 
  -7  -9  -1 3.28081 0.64095   6 
  -7  -9  -1 3.10755 0.73643   1 
  -7  -9  -1 2.91373 0.77311   2 
   7   9   1 2.41823 0.74131   4 
   7   9   1 1.99064 0.83001   3 
  -8  -9  -1 106.356 3.69009   6 
  -8  -9  -1 116.234 3.99097   2 
  -8  -9  -1 106.701 3.84601   1 
   8   9   1 103.577 4.13116   3 
  -9  -9  -1 28.3241 1.95776   2 
  -9  -9  -1 31.2817 1.83331   6 
  -9  -9  -1 30.6994 1.91672   1 
   9   9   1 33.2632 2.21053   3 
 -10  -9  -1 149.716 4.93390   6 
 -10  -9  -1 144.095 5.00763   1 
 -10  -9  -1 148.844 4.94173   2 
  10   9   1 133.585 5.21406   3 
 -11  -9  -1 2.88746 0.96699   1 
  11   9   1 1.01404 1.13284   3 
 -12  -9  -1 47.3357 2.61533   1 
  12   9   1 48.5377 2.91093   3 
 -13  -9  -1 -0.5633 0.80777   1 
  13   9   1 0.00711 1.04334   3 
  -6  10   1 36.5467 2.45423   5 
   5 -10  -1 63.8575 3.19428   3 
   5 -10  -1 63.4265 3.60996   4 
  -5  10   1 63.9877 3.13408   5 
   4 -10  -1 6.45634 1.06346   3 
   4 -10  -1 3.12180 1.18311   4 
  -4  10   1 4.70447 0.97259   5 
  -4  10   1 3.89183 1.25553   4 
   3 -10  -1 308.644 9.78708   4 
   3 -10  -1 304.140 9.42348   3 
  -3  10   1 317.797 9.21121   5 
  -3  10   1 308.243 9.80880   4 
   2 -10  -1 9.29148 1.29972   4 
   2 -10  -1 9.42470 1.17575   3 
  -2  10   1 9.28560 1.07700   5 
  -2  10   1 7.93456 1.31700   4 
   1 -10  -1 120.727 4.25423   2 
   1 -10  -1 116.058 4.37026   3 
  -1  10   1 122.586 4.10585   5 
  -1  10   1 120.855 4.60275   4 
   0 -10  -1 0.11418 0.52550   2 
   0 -10  -1 0.05639 0.53484   3 
   0  10   1 0.34046 0.74679   4 
  -1 -10  -1 249.748 6.37848   6 
  -1 -10  -1 252.469 7.45932   2 
  -1 -10  -1 244.252 6.34299   6 
  -1 -10  -1 249.927 6.93673   1 
  -1 -10  -1 235.567 7.45480   3 
   1  10   1 237.048 7.49679   4 
  -2 -10  -1 40.7893 2.17786   3 
  -2 -10  -1 43.5264 1.45555   6 
  -2 -10  -1 43.7262 2.24869   2 
   2  10   1 44.0047 2.26799   3 
   2  10   1 42.6411 2.23595   4 
  -3 -10  -1 59.8997 1.97822   6 
  -3 -10  -1 60.2372 2.69978   2 
  -3 -10  -1 60.5916 2.33994   1 
   3  10   1 58.2307 2.73015   3 
   3  10   1 61.4253 2.66796   4 
  -4 -10  -1 34.8138 1.99644   2 
  -4 -10  -1 37.8809 1.79704   1 
  -4 -10  -1 39.4172 1.51178   6 
   4  10   1 36.1120 1.96918   4 
   4  10   1 31.1580 2.02253   3 
  -5 -10  -1 300.495 8.41236   1 
  -5 -10  -1 296.345 8.08326   6 
  -5 -10  -1 299.105 8.74505   2 
   5  10   1 292.175 8.82698   3 
   5  10   1 290.272 8.51464   4 
  -6 -10  -1 1.42853 0.57204   1 
  -6 -10  -1 0.80356 0.64158   2 
  -6 -10  -1 -0.3171 0.39277   6 
   6  10   1 -0.3189 0.66975   3 
  -7 -10  -1 77.0456 2.96514   1 
  -7 -10  -1 72.6192 3.09749   2 
  -7 -10  -1 72.7191 2.72665   6 
   7  10   1 71.6584 3.25493   3 
  -8 -10  -1 14.9804 1.39422   2 
  -8 -10  -1 19.3881 1.33077   6 
  -8 -10  -1 17.5376 1.43494   1 
   8  10   1 15.1249 1.53379   3 
  -9 -10  -1 45.9460 2.30904   1 
  -9 -10  -1 47.0285 2.42960   2 
  -9 -10  -1 44.7042 2.18606   6 
   9  10   1 42.5723 2.64968   3 
 -10 -10  -1 27.4725 1.81964   6 
 -10 -10  -1 23.8995 1.83301   1 
 -10 -10  -1 25.4413 1.92413   2 
  10  10   1 25.6714 2.14596   3 
 -11 -10  -1 210.627 6.77005   1 
  11  10   1 200.531 7.10043   3 
 -12 -10  -1 1.21137 0.96193   1 
  12  10   1 0.42993 1.06137   3 
 -13 -10  -1 67.0104 3.29698   1 
  13  10   1 63.9508 3.59329   3 
  -5  11   1 7.88874 1.25968   5 
   4 -11  -1 60.7069 3.48728   4 
   4 -11  -1 66.2525 3.26037   3 
  -4  11   1 61.0709 3.57253   4 
   3 -11  -1 0.88440 0.86567   4 
   3 -11  -1 -1.2131 0.52842   3 
  -3  11   1 -0.2873 0.97922   4 
   2 -11  -1 93.7367 3.87832   3 
  -2  11   1 88.3941 4.07022   4 
   1 -11  -1 25.0878 1.77042   2 
   1 -11  -1 23.1009 1.83582   3 
  -1  11   1 21.8864 1.99634   4 
   0 -11  -1 93.9992 3.66069   2 
   0 -11  -1 90.1396 3.70827   3 
   0  11   1 90.8801 3.87191   4 
  -1 -11  -1 0.76510 0.62977   3 
  -1 -11  -1 0.64729 0.66872   2 
   1  11   1 -0.2898 0.72853   3 
   1  11   1 0.45303 0.75823   4 
  -2 -11  -1 159.734 5.51739   3 
  -2 -11  -1 164.491 4.42135   6 
  -2 -11  -1 166.254 5.49503   2 
  -2 -11  -1 163.859 4.98410   1 
   2  11   1 159.582 5.56507   3 
   2  11   1 159.638 5.48086   4 
  -3 -11  -1 0.47897 0.32651   6 
  -3 -11  -1 -0.4017 0.60332   2 
  -3 -11  -1 0.38016 0.50155   1 
   3  11   1 -0.0972 0.76515   4 
   3  11   1 -0.9601 0.62337   3 
  -4 -11  -1 119.106 3.54173   6 
  -4 -11  -1 122.214 3.96897   1 
  -4 -11  -1 114.112 4.30280   2 
   4  11   1 114.885 4.40414   3 
   4  11   1 113.047 4.17615   4 
  -5 -11  -1 0.23332 0.42362   6 
  -5 -11  -1 0.45943 0.56176   1 
  -5 -11  -1 -0.6819 0.70569   2 
   5  11   1 -0.2302 0.79013   3 
  -6 -11  -1 317.360 9.26719   2 
  -6 -11  -1 312.629 8.91476   1 
  -6 -11  -1 316.111 8.58975   6 
   6  11   1 290.773 9.30686   3 
  -7 -11  -1 0.07563 0.60394   1 
  -7 -11  -1 0.66348 0.54506   6 
  -7 -11  -1 0.51624 0.74692   2 
   7  11   1 0.70069 0.86765   3 
  -8 -11  -1 82.5189 3.22270   1 
  -8 -11  -1 80.2509 3.39940   2 
  -8 -11  -1 78.3798 2.99232   6 
   8  11   1 73.8092 3.54998   3 
  -9 -11  -1 30.4485 1.97752   1 
  -9 -11  -1 30.5961 1.84634   6 
  -9 -11  -1 32.2555 2.16503   2 
   9  11   1 33.5635 2.37112   3 
 -10 -11  -1 44.9702 2.56577   2 
 -10 -11  -1 45.6311 2.32106   6 
 -10 -11  -1 42.0649 2.38316   1 
  10  11   1 46.3556 2.89500   3 
 -11 -11  -1 12.9437 1.45564   1 
 -11 -11  -1 13.5241 1.46893   2 
 -11 -11  -1 12.7881 1.38352   6 
  11  11   1 12.8984 1.75322   3 
 -12 -11  -1 39.3043 2.41045   1 
  12  11   1 33.5847 2.60341   3 
   3 -12  -1 47.0508 2.76351   3 
  -3  12   1 46.8799 3.06524   4 
   2 -12  -1 14.4606 1.52986   3 
  -2  12   1 15.1722 1.75763   4 
   1 -12  -1 8.82693 1.21684   3 
  -1  12   1 10.4173 1.45362   4 
   0 -12  -1 36.2417 2.32255   3 
   0 -12  -1 41.4893 2.35554   2 
   0  12   1 38.2960 2.50274   4 
   0  12   1 39.7324 2.51798   3 
  -1 -12  -1 132.075 5.00411   3 
  -1 -12  -1 149.291 5.06054   2 
   1  12   1 131.592 5.03661   3 
   1  12   1 131.051 5.01764   4 
  -2 -12  -1 15.3736 1.47619   2 
   2  12   1 11.6903 1.42270   4 
   2  12   1 13.1508 1.45262   3 
  -3 -12  -1 53.6001 2.75078   2 
  -3 -12  -1 55.4889 1.85290   6 
   3  12   1 51.5109 2.79539   3 
  -4 -12  -1 55.6437 2.77877   2 
  -4 -12  -1 58.8589 2.45254   1 
  -4 -12  -1 54.7854 1.97547   6 
   4  12   1 48.2660 2.77230   3 
  -5 -12  -1 201.895 6.07699   1 
  -5 -12  -1 199.279 6.48709   2 
  -5 -12  -1 198.050 5.62239   6 
   5  12   1 178.745 6.49662   3 
  -6 -12  -1 20.1543 1.72922   2 
  -6 -12  -1 16.6806 1.44381   1 
  -6 -12  -1 18.7732 1.21458   6 
   6  12   1 17.1006 1.68726   3 
  -7 -12  -1 109.750 4.22728   2 
  -7 -12  -1 107.150 3.91717   1 
  -7 -12  -1 104.067 3.58976   6 
   7  12   1 102.011 4.30827   3 
  -8 -12  -1 0.47989 0.72711   1 
  -8 -12  -1 0.12723 0.58872   6 
  -8 -12  -1 -1.1683 0.71694   2 
   8  12   1 -0.3935 0.88176   3 
  -9 -12  -1 69.7268 2.88805   6 
  -9 -12  -1 69.4045 3.24680   2 
  -9 -12  -1 70.4535 3.06321   1 
   9  12   1 65.6753 3.46198   3 
 -10 -12  -1 16.8622 1.54366   1 
 -10 -12  -1 19.1439 1.53720   6 
 -10 -12  -1 16.5912 1.66007   2 
  10  12   1 18.6580 1.92778   3 
 -11 -12  -1 33.8834 2.22149   1 
 -11 -12  -1 34.0335 2.09959   6 
 -11 -12  -1 36.8837 2.40757   2 
  11  12   1 29.0679 2.43579   3 
 -12 -12  -1 5.06474 1.19383   1 
 -12 -12  -1 5.00325 1.10053   6 
   2 -13  -1 59.5967 3.18651   3 
  -2  13   1 61.1412 3.50308   4 
   1 -13  -1 13.6529 1.50896   3 
  -1  13   1 11.9285 1.66183   3 
   0 -13  -1 44.0203 2.63400   3 
   0  13   1 42.0739 2.70358   3 
  -1 -13  -1 17.1097 1.58257   2 
  -1 -13  -1 18.2846 1.72771   3 
   1  13   1 17.7421 1.78955   3 
  -2 -13  -1 90.5721 3.80482   2 
   2  13   1 84.9725 3.92418   3 
  -3 -13  -1 11.2892 0.69488   6 
  -3 -13  -1 10.3763 1.33510   2 
   3  13   1 7.31016 1.30571   3 
  -4 -13  -1 86.1027 3.81424   2 
  -4 -13  -1 90.0166 2.81340   6 
   4  13   1 88.4340 3.95430   3 
  -5 -13  -1 48.9749 2.36687   1 
  -5 -13  -1 49.3204 2.75429   2 
  -5 -13  -1 50.8837 1.96312   6 
   5  13   1 44.3534 2.76844   3 
  -6 -13  -1 88.9167 3.00598   6 
  -6 -13  -1 78.2724 3.30419   1 
  -6 -13  -1 86.1074 3.76087   2 
   6  13   1 81.2401 3.80016   3 
  -7 -13  -1 2.82056 0.72365   6 
  -7 -13  -1 2.62432 0.81610   1 
  -7 -13  -1 2.84139 1.00856   2 
   7  13   1 3.98414 1.19363   3 
  -8 -13  -1 57.0037 2.41968   6 
  -8 -13  -1 54.6367 2.93322   2 
  -8 -13  -1 52.2694 2.60510   1 
   8  13   1 50.1345 3.04760   3 
  -9 -13  -1 0.50943 0.93398   2 
  -9 -13  -1 1.27659 0.72982   6 
  -9 -13  -1 0.46145 0.74129   1 
   9  13   1 1.02518 1.00209   3 
 -10 -13  -1 22.5639 1.78283   1 
 -10 -13  -1 25.3928 1.72218   6 
 -10 -13  -1 26.3148 2.09765   2 
  10  13   1 22.6858 2.18507   3 
 -11 -13  -1 0.25676 0.76449   1 
 -11 -13  -1 -0.2200 0.65515   6 
 -11 -13  -1 0.42677 0.82010   2 
   0 -14  -1 1.78306 0.81929   3 
   0  14   1 1.71615 1.13255   3 
  -1 -14  -1 98.5979 4.20941   2 
   1  14   1 99.9837 4.47838   3 
  -2 -14  -1 29.8692 2.20981   2 
   2  14   1 29.5143 2.34361   3 
  -3 -14  -1 16.8038 1.66318   2 
   3  14   1 15.9154 1.80514   3 
  -4 -14  -1 5.05628 1.15925   2 
  -4 -14  -1 6.11411 0.58442   6 
   4  14   1 8.46169 1.46602   3 
  -5 -14  -1 116.255 3.69421   6 
  -5 -14  -1 130.750 4.93039   2 
   5  14   1 117.554 4.94830   3 
  -6 -14  -1 8.85150 1.37031   2 
  -6 -14  -1 8.01071 0.83695   6 
   6  14   1 7.08901 1.42970   3 
  -7 -14  -1 74.7865 3.25465   1 
  -7 -14  -1 81.8861 3.71424   2 
  -7 -14  -1 77.3764 2.87659   6 
   7  14   1 73.6907 3.81128   3 
  -8 -14  -1 -0.6628 0.49572   6 
  -8 -14  -1 -0.5215 0.80268   2 
  -8 -14  -1 -0.7732 0.65118   1 
   8  14   1 -0.4355 1.00545   3 
  -9 -14  -1 26.7087 1.67368   6 
  -9 -14  -1 25.1057 1.90551   1 
  -9 -14  -1 27.0467 2.13637   2 
   9  14   1 25.2757 2.35109   3 
 -10 -14  -1 -0.9695 0.70013   1 
  -5 -15  -1 2.04496 0.48363   6 
  -8 -14   2 57.1956 2.94903   1 
   7  14  -2 14.2402 1.82345   3 
  -7 -14   2 12.5240 1.41994   1 
   6  14  -2 7.58820 1.49372   3 
  -6 -14   2 6.72764 0.73686   6 
  -6 -14   2 6.40940 1.12523   1 
   5  14  -2 32.3572 2.49078   3 
   5  14  -2 35.2852 2.42269   2 
  -5 -14   2 34.1975 2.36800   2 
  -5 -14   2 30.8441 2.06422   1 
  -5 -14   2 29.4768 1.29626   6 
   4  14  -2 34.6761 2.61928   3 
   4  14  -2 35.3281 2.49300   2 
  -4 -14   2 36.7064 2.19762   1 
  -4 -14   2 39.7885 2.53483   2 
   3  14  -2 0.41563 0.84784   2 
  -3 -14   2 -0.6842 0.74606   2 
   2  14  -2 162.649 6.02855   2 
  10  13  -2 0.95188 0.92551   2 
 -10 -13   2 1.45590 0.90045   2 
   9  13  -2 25.0285 2.33088   3 
   9  13  -2 25.8221 2.09544   2 
  -9 -13   2 27.8540 2.10386   2 
  -9 -13   2 23.6462 1.60802   6 
  -9 -13   2 25.2045 1.92438   1 
   8  13  -2 6.30369 1.43326   3 
   8  13  -2 8.05023 1.33092   2 
  -8 -13   2 7.91669 0.95450   6 
  -8 -13   2 9.47468 1.26680   1 
  -8 -13   2 8.70191 1.35765   2 
   7  13  -2 38.6842 2.66093   3 
  -7 -13   2 39.6007 2.50540   2 
  -7 -13   2 40.9009 1.85988   6 
  -7 -13   2 36.3696 2.26599   1 
   6  13  -2 4.16524 1.23089   3 
  -6 -13   2 1.94628 0.98664   2 
  -6 -13   2 4.15303 0.94374   1 
  -6 -13   2 3.39273 0.61005   6 
   5  13  -2 70.1335 3.49595   3 
  -5 -13   2 69.4802 2.36842   6 
  -5 -13   2 72.9233 3.45162   2 
  -5 -13   2 68.5438 3.11536   1 
   4  13  -2 10.2283 1.53291   3 
   4  13  -2 11.3562 1.48386   2 
  -4 -13   2 9.14115 1.16926   1 
  -4 -13   2 11.1332 0.67799   6 
  -4 -13   2 9.51583 1.36617   2 
   3  13  -2 96.3964 4.28188   3 
   3  13  -2 102.334 4.29713   2 
  -3 -13   2 97.1688 4.18413   2 
  -3 -13   2 104.624 3.90205   1 
   2  13  -2 9.75815 1.43010   2 
  -2 -13   2 8.78841 1.32924   2 
   1  13  -2 160.278 5.76158   2 
  -1 -13   2 153.781 5.70125   2 
  11  12  -2 -0.0102 0.79970   2 
  11  12  -2 -0.8069 1.02268   3 
 -11 -12   2 1.49346 0.70701   6 
 -11 -12   2 -0.0759 0.79863   2 
 -11 -12   2 -0.3451 0.82471   1 
  10  12  -2 40.5204 2.49548   2 
  10  12  -2 41.1566 2.79745   3 
 -10 -12   2 39.4068 2.11898   6 
   9  12  -2 4.28206 1.12759   2 
   9  12  -2 3.99811 1.31642   3 
  -9 -12   2 4.48693 1.03942   1 
  -9 -12   2 4.40048 1.14399   2 
  -9 -12   2 4.41973 0.86905   6 
   8  12  -2 69.2725 3.54694   3 
  -8 -12   2 68.5318 3.12139   1 
  -8 -12   2 69.5395 2.76227   6 
   7  12  -2 6.02382 1.29574   3 
  -7 -12   2 6.45419 0.84300   6 
  -7 -12   2 6.80187 1.10985   1 
  -7 -12   2 7.40627 1.22385   2 
   6  12  -2 118.457 4.80162   3 
  -6 -12   2 119.137 4.45756   1 
  -6 -12   2 125.407 4.76654   2 
  -6 -12   2 129.704 3.94919   6 
   5  12  -2 0.90080 0.98226   3 
  -5 -12   2 2.29790 0.48331   6 
  -5 -12   2 0.81421 0.84011   2 
  -5 -12   2 1.24292 0.74280   1 
   4  12  -2 128.716 4.94674   3 
  -4 -12   2 131.184 4.60645   1 
  -4 -12   2 136.527 4.95827   2 
  -4 -12   2 125.800 3.73447   6 
   3  12  -2 3.54764 1.07126   3 
  -3 -12   2 3.99007 0.89501   1 
  -3 -12   2 5.33369 1.09178   2 
   2  12  -2 139.614 5.21235   3 
   2  12  -2 139.823 5.17690   2 
  -2 -12   2 141.496 5.16521   2 
  -2 -12   2 142.855 4.83189   1 
   1  12  -2 15.0855 1.57029   2 
  -1 -12   2 15.3114 1.30919   1 
  -1 -12   2 12.4531 1.37184   2 
   0 -12   2 178.112 6.09807   2 
 -12 -11   2 1.10511 0.80869   6 
  11  11  -2 15.5577 1.85812   3 
  11  11  -2 20.7307 1.82372   2 
 -11 -11   2 15.7926 1.43692   6 
 -11 -11   2 15.3559 1.56529   2 
 -11 -11   2 16.5525 1.56710   1 
  10  11  -2 2.06420 1.07454   3 
  10  11  -2 2.23523 0.97098   2 
 -10 -11   2 1.96543 0.89053   2 
 -10 -11   2 -0.6521 0.77657   1 
 -10 -11   2 1.47045 0.65531   6 
   9  11  -2 53.9576 2.99136   3 
   9  11  -2 50.1182 2.73509   2 
  -9 -11   2 53.3791 2.77019   2 
  -9 -11   2 51.0175 2.66132   1 
  -9 -11   2 51.6609 2.36047   6 
   8  11  -2 17.6057 1.79529   3 
  -8 -11   2 18.5952 1.32933   6 
  -8 -11   2 14.7568 1.53369   2 
  -8 -11   2 18.8638 1.61804   1 
   7  11  -2 120.203 4.80522   3 
  -7 -11   2 123.556 4.05125   6 
  -7 -11   2 125.226 4.48295   1 
  -7 -11   2 128.723 4.71522   2 
   6  11  -2 3.91178 1.14515   3 
  -6 -11   2 6.40612 1.02015   1 
  -6 -11   2 6.30062 0.77290   6 
  -6 -11   2 4.32702 1.13542   2 
   5  11  -2 129.100 4.92523   3 
  -5 -11   2 138.913 4.11222   6 
  -5 -11   2 135.935 4.93399   2 
  -5 -11   2 136.434 4.66269   1 
   4  11  -2 12.1769 1.41809   3 
  -4 -11   2 12.2208 1.34685   2 
  -4 -11   2 13.2949 0.82167   6 
  -4 -11   2 11.5535 1.17691   1 
   3  11  -2 117.764 4.49560   3 
  -3 -11   2 122.591 4.20304   1 
  -3 -11   2 118.976 3.36599   6 
  -3 -11   2 120.618 4.51797   2 
   2  11  -2 8.59579 1.20643   3 
  -2 -11   2 9.09319 1.02275   1 
  -2 -11   2 6.27685 1.08625   2 
   1  11  -2 74.6336 3.30015   2 
   1  11  -2 76.0953 3.34118   3 
  -1 -11   2 76.3788 3.29505   2 
   0  11  -2 60.1809 2.84807   2 
   0 -11   2 57.4716 2.78106   2 
   0 -11   2 56.0729 2.53622   1 
  -4  11  -2 18.4553 1.69111   5 
   4 -11   2 26.2267 2.26301   4 
  12  10  -2 21.6708 2.10080   3 
 -12 -10   2 27.0151 2.01391   1 
  11  10  -2 11.7417 1.60570   3 
  11  10  -2 10.2594 1.34044   2 
 -11 -10   2 10.3633 1.31518   2 
 -11 -10   2 9.27132 1.32987   1 
 -11 -10   2 11.2213 1.25840   6 
  10  10  -2 68.4291 3.42271   3 
  10  10  -2 70.5304 3.14821   2 
 -10 -10   2 70.8158 3.10831   2 
 -10 -10   2 60.5809 2.97661   1 
 -10 -10   2 62.9337 2.81965   6 
   9  10  -2 49.2202 2.83329   3 
  -9 -10   2 49.7508 2.32750   6 
  -9 -10   2 54.2460 2.67713   2 
  -9 -10   2 49.3923 2.52494   1 
   8  10  -2 35.3822 2.36392   3 
  -8 -10   2 36.1515 2.20409   2 
  -8 -10   2 36.2112 1.85044   6 
  -8 -10   2 36.3587 2.13612   1 
   7  10  -2 51.8833 2.76503   3 
  -7 -10   2 52.1202 2.61179   2 
  -7 -10   2 47.6103 2.40849   1 
  -7 -10   2 51.6555 2.17283   6 
   6  10  -2 188.618 6.34750   3 
  -6 -10   2 188.483 6.03494   1 
  -6 -10   2 192.139 5.64288   6 
  -6 -10   2 201.260 6.31693   2 
   5  10  -2 114.403 4.37143   3 
  -5 -10   2 117.521 4.10970   1 
  -5 -10   2 123.357 4.37732   2 
  -5 -10   2 116.075 3.64166   6 
   4  10  -2 98.9392 3.85825   3 
  -4 -10   2 103.738 3.60848   1 
  -4 -10   2 102.570 3.85295   2 
  -4 -10   2 92.1690 3.01240   6 
   3  10  -2 5.13175 1.02075   3 
  -3 -10   2 4.26125 0.92809   2 
  -3 -10   2 5.31676 0.48852   6 
  -3 -10   2 6.81832 0.89236   1 
   2  10  -2 216.244 6.80111   3 
  -2 -10   2 213.483 6.81172   2 
  -2 -10   2 216.793 6.50054   1 
   1  10  -2 46.0361 2.38897   3 
  -1 -10   2 46.9946 2.16049   1 
  -1 -10   2 48.8138 2.44912   2 
   0  10  -2 115.762 4.30937   3 
   0  10  -2 124.663 4.36496   2 
   0 -10   2 118.814 4.30604   2 
   0 -10   2 114.976 4.04649   1 
   0 -10   2 124.384 4.10243   5 
  -1  10  -2 2.87583 0.93599   4 
  -1  10  -2 2.50973 0.76105   1 
  -1  10  -2 3.23028 0.77063   5 
  -1  10  -2 3.23021 0.80056   2 
   1 -10   2 3.85743 0.82330   2 
   1 -10   2 3.98042 0.75705   1 
   1 -10   2 4.36867 0.91626   4 
   1 -10   2 3.13626 0.71534   5 
   1 -10   2 3.28395 0.77118   3 
  -2  10  -2 51.0627 2.49448   5 
   2 -10   2 52.5916 2.86740   4 
   2 -10   2 52.8156 2.51380   5 
  -3  10  -2 26.2859 1.87261   5 
   3 -10   2 29.8300 2.25880   4 
  -4  10  -2 85.1258 3.66691   5 
   4 -10   2 85.4391 4.10345   4 
  -5  10  -2 24.0920 1.98119   5 
   5 -10   2 22.5760 2.24960   4 
  13   9  -2 50.7776 3.26589   3 
 -13  -9   2 56.5731 2.94975   1 
  12   9  -2 -1.2638 1.03239   3 
 -12  -9   2 2.65963 0.99399   1 
  11   9  -2 31.6410 2.44927   3 
 -11  -9   2 35.4995 2.09594   6 
 -11  -9   2 34.3292 2.17580   1 
  10   9  -2 17.2004 1.76417   3 
 -10  -9   2 15.9482 1.45634   2 
 -10  -9   2 19.3508 1.62363   1 
 -10  -9   2 17.5895 1.44120   6 
   9   9  -2 90.5191 3.98150   3 
   9   9  -2 99.5103 3.77215   2 
  -9  -9   2 98.7445 3.56982   6 
  -9  -9   2 96.5807 3.72477   2 
  -9  -9   2 97.1038 3.72090   1 
   8   9  -2 16.3449 1.61452   3 
  -8  -9   2 19.2704 1.54509   1 
  -8  -9   2 17.1481 1.36317   6 
  -8  -9   2 16.7329 1.45722   2 
   7   9  -2 255.511 8.03056   3 
  -7  -9   2 255.612 7.72905   1 
  -7  -9   2 262.373 7.88723   2 
  -7  -9   2 267.263 7.47861   6 
   6   9  -2 24.2748 1.90055   3 
  -6  -9   2 27.8732 1.43313   6 
  -6  -9   2 26.4696 1.78680   2 
  -6  -9   2 26.8580 1.66198   1 
   5   9  -2 86.1933 3.45314   3 
  -5  -9   2 86.7430 3.20098   1 
  -5  -9   2 85.5155 2.82636   6 
  -5  -9   2 82.9106 3.34135   2 
   4   9  -2 13.2584 1.26496   3 
  -4  -9   2 13.6886 1.20173   1 
  -4  -9   2 13.3716 1.24741   2 
  -4  -9   2 14.2972 0.89752   6 
   3   9  -2 110.369 3.90183   3 
  -3  -9   2 105.910 3.62989   1 
  -3  -9   2 100.438 3.07427   6 
  -3  -9   2 109.882 3.90690   2 
   2   9  -2 77.9737 3.12907   3 
  -2  -9   2 77.4566 2.25620   6 
  -2  -9   2 82.4198 2.75804   5 
  -2  -9   2 78.1840 2.90271   1 
  -2  -9   2 78.6760 2.23406   6 
  -2  -9   2 79.9958 3.18513   2 
   1   9  -2 281.158 8.28103   3 
   1   9  -2 282.875 8.21162   4 
  -1  -9   2 278.935 7.92007   5 
  -1  -9   2 285.308 8.05458   1 
  -1  -9   2 283.256 8.35603   2 
   0   9  -2 9.22229 1.05563   2 
   0   9  -2 10.7884 1.14695   4 
   0   9  -2 10.4728 1.11815   3 
   0  -9   2 11.0997 0.98496   1 
   0  -9   2 10.3704 1.05425   3 
   0  -9   2 9.77109 0.91203   5 
   0  -9   2 10.1317 1.07630   2 
   0  -9   2 10.2562 1.12864   4 
  -1   9  -2 258.896 7.71493   2 
  -1   9  -2 254.993 7.78069   3 
  -1   9  -2 270.349 7.69516   1 
   1  -9   2 251.163 7.69802   2 
   1  -9   2 262.434 7.63953   5 
   1  -9   2 256.544 7.54426   1 
   1  -9   2 268.703 8.03087   4 
   1  -9   2 261.380 7.78870   3 
  -2   9  -2 4.18278 0.82570   1 
  -2   9  -2 4.38813 0.85821   5 
   2  -9   2 4.78122 0.85054   3 
   2  -9   2 3.92701 0.97227   4 
   2  -9   2 6.03213 0.86381   5 
  -3   9  -2 121.169 4.40816   5 
   3  -9   2 121.598 4.42643   5 
   3  -9   2 130.193 4.90751   4 
  -4   9  -2 8.19315 1.15256   5 
   4  -9   2 9.87434 1.43068   4 
  -5   9  -2 81.8297 3.64437   5 
   5  -9   2 88.2307 4.17992   4 
  -6   9  -2 11.2377 1.44913   5 
   6  -9   2 13.6467 1.81695   4 
  13   8  -2 0.75557 1.16094   3 
 -13  -8   2 0.28136 0.91997   1 
  12   8  -2 87.0371 4.11962   3 
 -12  -8   2 89.8995 3.76703   1 
  11   8  -2 26.0325 2.23543   3 
 -11  -8   2 29.3685 1.96959   1 
  10   8  -2 39.8819 2.14560   2 
  10   8  -2 40.7529 2.51519   3 
 -10  -8   2 39.6651 2.10813   6 
 -10  -8   2 35.5878 2.09751   2 
 -10  -8   2 38.5743 2.14794   1 
   9   8  -2 27.6657 1.75736   2 
   9   8  -2 24.7748 1.96159   3 
  -9  -8   2 27.7922 1.75705   2 
  -9  -8   2 23.9125 1.63013   6 
  -9  -8   2 26.3788 1.71214   1 
   8   8  -2 68.7819 3.15751   3 
  -8  -8   2 70.8412 2.91897   2 
  -8  -8   2 67.4731 2.84694   1 
  -8  -8   2 69.5627 2.72350   6 
   7   8  -2 5.26369 1.02710   3 
  -7  -8   2 6.41176 0.94251   1 
  -7  -8   2 7.08212 0.86206   6 
  -7  -8   2 6.30584 0.95401   2 
   6   8  -2 838.393 22.2477   3 
  -6  -8   2 836.363 21.6863   6 
  -6  -8   2 831.824 21.9678   1 
  -6  -8   2 838.377 22.0927   2 
   5   8  -2 37.8761 2.09258   3 
  -5  -8   2 36.9822 1.98072   2 
  -5  -8   2 38.8551 1.88303   1 
  -5  -8   2 36.0074 1.57550   6 
   4   8  -2 52.2220 2.37220   3 
  -4  -8   2 48.7556 2.28732   2 
  -4  -8   2 51.1208 2.16504   1 
  -4  -8   2 53.0144 1.82773   5 
  -4  -8   2 49.4341 1.82479   6 
   3   8  -2 44.7641 2.11494   3 
  -3  -8   2 46.3437 2.15783   2 
  -3  -8   2 40.6707 1.50994   6 
  -3  -8   2 43.5391 1.50920   6 
  -3  -8   2 43.0987 1.90356   1 
   2   8  -2 133.675 4.10243   4 
   2   8  -2 132.371 4.32715   3 
  -2  -8   2 132.019 3.92624   5 
  -2  -8   2 128.453 4.10685   1 
  -2  -8   2 123.594 3.54272   6 
  -2  -8   2 129.907 4.35066   2 
   1   8  -2 -0.3416 0.48615   3 
   1   8  -2 -0.0229 0.49114   4 
  -1  -8   2 -0.0400 0.46552   2 
  -1  -8   2 -0.0379 0.42977   4 
  -1  -8   2 -0.1296 0.32790   5 
  -1  -8   2 0.03766 0.38787   1 
   0   8  -2 150.976 4.92453   3 
   0  -8   2 155.316 4.80035   1 
   0  -8   2 153.543 4.95058   3 
   0  -8   2 167.464 5.10506   4 
   0  -8   2 155.078 5.00907   2 
   0  -8   2 156.875 4.78279   5 
  -1   8  -2 25.9361 1.62964   2 
   1  -8   2 28.7174 1.64547   2 
   1  -8   2 27.5401 1.52000   1 
   1  -8   2 29.8634 1.68053   3 
   1  -8   2 30.5165 1.62450   5 
   1  -8   2 30.6839 1.85726   4 
  -2   8  -2 227.563 6.71215   2 
  -2   8  -2 229.345 6.76252   1 
   2  -8   2 227.918 6.83856   3 
   2  -8   2 222.388 6.77877   5 
   2  -8   2 220.181 6.68876   2 
   2  -8   2 234.037 7.20531   4 
  -3   8  -2 151.245 4.78594   1 
  -3   8  -2 142.186 4.84555   5 
   3  -8   2 138.887 4.82000   5 
   3  -8   2 146.935 5.29089   4 
   3  -8   2 148.659 4.84364   3 
  -4   8  -2 178.483 5.54240   1 
  -4   8  -2 166.427 5.66986   5 
   4  -8   2 177.173 6.21133   4 
   4  -8   2 169.472 5.68942   5 
  -5   8  -2 13.9168 1.40660   5 
   5  -8   2 15.8046 1.74672   4 
  -6   8  -2 150.876 5.44976   5 
   6  -8   2 147.887 5.98444   4 
   6  -8   2 151.825 4.14850   6 
  -7   8  -2 11.5178 1.44781   5 
   7  -8   2 10.6991 0.77922   6 
   7  -8   2 9.13548 1.64072   4 
  13   7  -2 2.25065 1.24870   3 
 -13  -7   2 4.64200 1.18961   1 
  12   7  -2 48.9910 3.04067   3 
 -12  -7   2 52.6913 2.71260   1 
  11   7  -2 14.5275 1.69129   3 
 -11  -7   2 16.9510 1.52223   1 
  10   7  -2 39.6592 2.48161   3 
  10   7  -2 39.5431 2.00377   2 
 -10  -7   2 39.8850 2.13964   6 
 -10  -7   2 38.5831 2.13554   1 
   9   7  -2 91.9026 3.83929   3 
   9   7  -2 97.4594 3.50605   2 
  -9  -7   2 94.8477 3.58699   1 
  -9  -7   2 101.213 3.57506   6 
  -9  -7   2 100.386 3.52935   2 
   8   7  -2 -0.2499 0.67904   3 
  -8  -7   2 0.53669 0.57471   6 
  -8  -7   2 0.47986 0.55498   2 
  -8  -7   2 0.34836 0.59901   1 
   7   7  -2 102.542 3.88003   3 
  -7  -7   2 109.177 3.72557   2 
  -7  -7   2 104.808 3.66838   1 
  -7  -7   2 107.060 3.55667   6 
   6   7  -2 0.92977 0.66110   3 
  -6  -7   2 1.93694 0.61986   1 
  -6  -7   2 1.62567 0.53631   6 
  -6  -7   2 1.79022 0.62807   2 
  -6  -7   2 2.06680 0.39843   5 
   5   7  -2 210.218 6.38847   3 
  -5  -7   2 205.929 6.28454   2 
  -5  -7   2 206.382 6.17991   1 
  -5  -7   2 217.204 5.76649   5 
  -5  -7   2 212.324 5.94797   6 
   4   7  -2 17.1422 1.31723   3 
   4   7  -2 15.3236 0.88236   4 
  -4  -7   2 15.5350 1.14862   1 
  -4  -7   2 15.2918 1.24907   2 
  -4  -7   2 15.8062 0.89359   5 
  -4  -7   2 13.2358 0.87395   6 
   3   7  -2 267.266 7.53086   3 
   3   7  -2 263.664 7.07429   4 
  -3  -7   2 255.735 6.95215   6 
  -3  -7   2 245.907 6.91997   6 
  -3  -7   2 270.018 7.06012   5 
  -3  -7   2 251.065 7.30141   1 
  -3  -7   2 273.725 7.57218   2 
   2   7  -2 0.17781 0.39242   4 
   2   7  -2 -0.0738 0.43479   3 
  -2  -7   2 0.96856 0.34967   5 
  -2  -7   2 0.37643 0.41210   1 
  -2  -7   2 0.02986 0.19618   6 
  -2  -7   2 0.51242 0.21631   6 
  -2  -7   2 0.77631 0.45576   2 
   1   7  -2 240.964 6.75302   4 
   1   7  -2 229.990 6.79247   3 
  -1  -7   2 232.205 6.86758   2 
  -1  -7   2 239.909 6.75133   4 
  -1  -7   2 242.692 6.09346   6 
  -1  -7   2 234.128 6.08688   6 
  -1  -7   2 234.290 6.55844   5 
  -1  -7   2 229.947 6.64629   1 
   0   7  -2 207.817 6.26509   3 
   0  -7   2 204.356 6.31937   2 
   0  -7   2 213.789 6.28914   3 
   0  -7   2 222.533 6.18051   5 
   0  -7   2 218.817 6.37906   4 
   0  -7   2 224.166 6.19451   1 
  -1   7  -2 49.3366 2.08126   2 
   1  -7   2 49.4729 2.28115   4 
   1  -7   2 48.5553 2.09277   2 
   1  -7   2 48.1284 2.03784   5 
   1  -7   2 48.1752 2.00478   1 
   1  -7   2 50.3883 2.10667   3 
  -2   7  -2 249.152 7.02861   2 
  -2   7  -2 248.770 7.09964   1 
   2  -7   2 237.510 6.99164   1 
   2  -7   2 237.724 7.42780   4 
   2  -7   2 245.737 7.03285   2 
   2  -7   2 250.070 7.12603   3 
   2  -7   2 244.292 7.12254   5 
  -3   7  -2 43.1259 2.02201   1 
  -3   7  -2 39.2322 2.03753   5 
   3  -7   2 42.1259 2.04998   5 
   3  -7   2 42.7686 2.02144   3 
   3  -7   2 41.9447 2.34677   4 
  -4   7  -2 42.7204 2.22260   5 
  -4   7  -2 47.4444 2.15553   1 
   4  -7   2 42.4790 2.18890   5 
   4  -7   2 44.7725 1.40852   6 
   4  -7   2 43.6465 2.56305   4 
  -5   7  -2 151.373 5.20594   5 
  -5   7  -2 155.134 4.98416   1 
   5  -7   2 150.135 5.68341   4 
   5  -7   2 151.827 4.21839   6 
  -6   7  -2 13.1278 1.37008   5 
   6  -7   2 14.6776 1.74354   4 
   6  -7   2 14.7532 0.87093   6 
  -7   7  -2 157.798 5.72412   5 
   7  -7   2 160.022 4.67570   6 
   7  -7   2 164.150 6.38456   4 
  13   6  -2 7.80361 1.57534   3 
 -13  -6   2 10.5035 1.40723   1 
  12   6  -2 63.0124 3.39325   3 
 -12  -6   2 66.2447 3.07955   1 
  11   6  -2 2.32801 1.13404   3 
 -11  -6   2 3.11192 0.93461   1 
  10   6  -2 25.3315 2.02617   3 
 -10  -6   2 27.4601 1.78698   1 
   9   6  -2 7.90374 0.88017   2 
   9   6  -2 6.18363 1.16732   3 
  -9  -6   2 9.22941 1.07261   1 
  -9  -6   2 9.62371 1.01114   6 
  -9  -6   2 9.87785 0.93386   2 
  -9  -6   2 8.47988 0.79226   5 
   8   6  -2 77.3727 2.85856   2 
   8   6  -2 78.3636 3.24449   3 
  -8  -6   2 78.3759 2.60159   5 
  -8  -6   2 78.5962 2.86926   2 
  -8  -6   2 76.0824 2.96786   1 
  -8  -6   2 79.1696 2.93079   6 
   7   6  -2 1.26175 0.68935   3 
  -7  -6   2 1.36705 0.53590   6 
  -7  -6   2 1.85870 0.59540   1 
  -7  -6   2 1.59876 0.57144   2 
   6   6  -2 361.918 10.2388   3 
  -6  -6   2 363.077 9.87453   6 
  -6  -6   2 368.180 10.0503   2 
  -6  -6   2 362.250 10.0256   1 
  -6  -6   2 365.781 9.60160   5 
   5   6  -2 33.5646 1.78687   3 
  -5  -6   2 34.6880 1.32273   5 
  -5  -6   2 31.9284 1.44413   6 
  -5  -6   2 33.2924 1.68274   2 
  -5  -6   2 32.9546 1.59073   1 
   4   6  -2 1026.62 25.9124   3 
   4   6  -2 995.518 25.3659   4 
  -4  -6   2 966.525 25.4626   6 
  -4  -6   2 934.691 25.7758   2 
  -4  -6   2 1018.94 25.7279   1 
  -4  -6   2 1058.47 25.4103   5 
  -4  -6   2 991.466 25.4709   6 
   3   6  -2 -0.3267 0.26044   4 
   3   6  -2 0.28478 0.44360   3 
  -3  -6   2 -0.1785 0.40454   2 
  -3  -6   2 -0.1994 0.22467   6 
  -3  -6   2 -0.1183 0.25639   6 
  -3  -6   2 0.00819 0.37538   1 
  -3  -6   2 -0.5006 0.24885   5 
   2   6  -2 569.835 14.3036   4 
   2   6  -2 546.282 14.5333   3 
  -2  -6   2 528.726 14.0314   6 
  -2  -6   2 553.045 14.2259   5 
  -2  -6   2 538.053 14.3923   1 
  -2  -6   2 557.534 14.6161   2 
  -2  -6   2 552.062 14.0523   6 
   1   6  -2 5.76493 0.66671   3 
  -1  -6   2 5.11952 0.62381   4 
  -1  -6   2 5.74567 0.56203   5 
  -1  -6   2 5.92229 0.38961   6 
  -1  -6   2 6.05030 0.39473   6 
  -1  -6   2 6.05549 0.68570   2 
  -1  -6   2 5.38412 0.61805   1 
   0   6  -2 268.387 7.45852   3 
   0  -6   2 270.803 7.52890   4 
   0  -6   2 264.209 7.35663   1 
   0  -6   2 265.413 7.34300   5 
   0  -6   2 270.936 7.46281   3 
   0  -6   2 262.408 7.51569   2 
  -1   6  -2 283.226 8.01262   2 
   1  -6   2 289.271 8.00124   5 
   1  -6   2 288.587 7.95563   1 
   1  -6   2 294.392 8.25239   4 
   1  -6   2 284.147 8.02723   2 
   1  -6   2 295.021 8.04880   3 
  -2   6  -2 675.586 17.4952   1 
  -2   6  -2 666.536 17.3975   2 
   2  -6   2 686.928 17.5664   5 
   2  -6   2 667.318 17.5002   3 
   2  -6   2 649.058 17.4005   1 
   2  -6   2 659.971 17.4056   2 
   2  -6   2 656.627 17.8368   4 
  -3   6  -2 21.0327 1.34281   1 
  -3   6  -2 21.1301 1.19084   2 
   3  -6   2 20.9216 1.31577   3 
   3  -6   2 20.4012 1.62182   4 
   3  -6   2 18.1630 1.33653   5 
   3  -6   2 20.8425 0.81423   6 
   3  -6   2 20.8328 0.75994   6 
  -4   6  -2 321.307 9.30622   5 
  -4   6  -2 333.774 9.17883   1 
   4  -6   2 341.418 9.24479   3 
   4  -6   2 316.718 8.48363   6 
   4  -6   2 313.440 9.29358   5 
   4  -6   2 327.365 9.78501   4 
   4  -6   2 333.199 8.56029   6 
  -5   6  -2 15.6570 1.39074   5 
  -5   6  -2 17.7366 1.34650   1 
   5  -6   2 16.2826 1.70299   4 
   5  -6   2 19.3376 1.47179   5 
   5  -6   2 18.5607 0.94461   6 
  -6   6  -2 76.3601 2.96199   1 
  -6   6  -2 70.5237 3.11956   5 
   6  -6   2 74.9874 3.66121   4 
   6  -6   2 73.7771 2.47546   6 
  -7   6  -2 11.0898 1.32717   5 
   7  -6   2 11.5704 1.65828   4 
   7  -6   2 12.8885 0.97075   6 
  -8   6  -2 121.196 4.65265   5 
   8  -6   2 111.393 3.71119   6 
   8  -6   2 114.903 5.17222   4 
 -14  -5   2 5.09144 1.21278   1 
  13   5  -2 45.2484 3.01883   3 
 -13  -5   2 54.9856 2.83868   1 
  12   5  -2 -0.3106 1.04314   3 
 -12  -5   2 1.57051 0.84793   1 
  11   5  -2 110.992 4.53475   3 
 -11  -5   2 117.264 4.23228   1 
  10   5  -2 8.86276 1.29560   3 
 -10  -5   2 8.61407 0.93390   5 
 -10  -5   2 9.31350 1.11447   1 
   9   5  -2 116.369 3.74621   2 
   9   5  -2 107.391 4.25079   3 
  -9  -5   2 121.111 4.07983   1 
  -9  -5   2 120.372 4.01187   6 
  -9  -5   2 119.579 3.77804   5 
   8   5  -2 5.03919 0.95986   3 
   8   5  -2 5.45737 0.74052   2 
   8   5  -2 6.12367 0.78881   4 
  -8  -5   2 6.98048 0.73002   5 
  -8  -5   2 5.99264 0.83053   6 
  -8  -5   2 5.15517 0.71200   2 
  -8  -5   2 8.15674 0.93358   1 
   7   5  -2 102.002 3.41651   2 
   7   5  -2 101.127 3.72200   3 
  -7  -5   2 104.616 3.47143   6 
  -7  -5   2 108.318 3.24700   5 
  -7  -5   2 103.767 3.53668   1 
  -7  -5   2 109.205 3.43799   2 
   6   5  -2 2.79988 0.44156   4 
   6   5  -2 4.10977 0.75470   3 
  -6  -5   2 3.11247 0.44782   5 
  -6  -5   2 2.70626 0.54672   2 
  -6  -5   2 2.13852 0.49683   6 
  -6  -5   2 2.42154 0.57011   1 
   5   5  -2 297.549 8.01087   6 
   5   5  -2 301.585 8.31192   3 
  -5  -5   2 276.483 8.08352   1 
  -5  -5   2 292.520 7.99580   6 
  -5  -5   2 294.398 8.14455   2 
  -5  -5   2 301.560 7.80509   5 
   4   5  -2 345.635 9.51678   3 
  -4  -5   2 361.412 9.11358   5 
  -4  -5   2 351.835 9.24318   6 
  -4  -5   2 344.638 9.21904   6 
  -4  -5   2 341.158 9.44770   2 
  -4  -5   2 339.298 9.36401   1 
   3   5  -2 896.003 22.2165   3 
   3   5  -2 873.840 21.8071   4 
  -3  -5   2 869.350 21.8627   6 
  -3  -5   2 815.396 22.1503   2 
  -3  -5   2 825.519 22.0284   1 
  -3  -5   2 821.411 21.8344   6 
  -3  -5   2 905.939 21.8658   5 
   2   5  -2 185.567 4.76723   4 
   2   5  -2 175.456 5.01849   3 
  -2  -5   2 172.510 4.91890   1 
  -2  -5   2 175.266 5.08421   2 
  -2  -5   2 161.937 4.62504   6 
  -2  -5   2 174.291 4.76701   5 
  -2  -5   2 165.410 4.64613   6 
   1   5  -2 724.238 19.1042   3 
  -1  -5   2 762.393 19.0479   4 
  -1  -5   2 720.422 18.9450   5 
  -1  -5   2 740.398 19.0431   1 
  -1  -5   2 751.145 18.7294   6 
  -1  -5   2 751.074 18.7232   6 
  -1  -5   2 728.899 19.1936   2 
   0   5  -2 53.5647 1.97122   3 
   0  -5   2 55.7758 1.52866   6 
   0  -5   2 55.9893 1.95569   5 
   0  -5   2 54.9163 1.99642   3 
   0  -5   2 56.3931 2.07324   4 
   0  -5   2 56.1192 2.08360   2 
   0  -5   2 55.1026 1.96343   1 
   0  -5   2 56.0676 1.51711   6 
  -1   5  -2 253.364 7.10710   2 
   1  -5   2 258.640 7.31189   4 
   1  -5   2 262.642 7.13204   5 
   1  -5   2 257.289 7.07600   1 
   1  -5   2 260.005 7.10362   3 
   1  -5   2 256.110 7.12293   2 
  -2   5  -2 31.1891 1.45539   1 
  -2   5  -2 30.4893 1.35260   2 
   2  -5   2 31.0628 1.69118   4 
   2  -5   2 29.9541 0.94683   6 
   2  -5   2 31.9869 1.50657   5 
   2  -5   2 32.6389 1.43556   3 
   2  -5   2 28.8066 1.38034   1 
   2  -5   2 30.5973 1.37022   2 
   2  -5   2 31.1080 0.97032   6 
  -3   5  -2 417.556 10.6388   2 
  -3   5  -2 408.208 10.8436   1 
   3  -5   2 384.604 10.2672   6 
   3  -5   2 401.633 11.2727   4 
   3  -5   2 406.799 10.8175   3 
   3  -5   2 396.844 10.3218   6 
   3  -5   2 391.215 10.9116   5 
  -4   5  -2 12.3471 1.04664   1 
   4  -5   2 12.4501 0.68726   6 
   4  -5   2 10.9117 1.23644   4 
   4  -5   2 11.3676 0.73769   6 
   4  -5   2 15.0426 1.14023   3 
   4  -5   2 10.8277 1.01349   5 
  -5   5  -2 218.572 6.75187   5 
  -5   5  -2 224.679 6.58502   1 
   5  -5   2 222.487 6.79388   5 
   5  -5   2 227.725 6.16565   6 
   5  -5   2 228.479 6.63147   3 
   5  -5   2 221.121 7.23134   4 
  -6   5  -2 12.4010 1.06746   1 
  -6   5  -2 9.97977 1.12584   5 
   6  -5   2 12.4614 0.90479   6 
   6  -5   2 13.0795 1.53858   4 
  -7   5  -2 109.526 4.17690   5 
  -7   5  -2 117.686 3.95429   1 
   7  -5   2 110.938 3.58999   6 
   7  -5   2 106.920 4.69100   4 
  -8   5  -2 3.06874 0.93519   5 
   8  -5   2 3.72010 0.68469   6 
   8  -5   2 3.70210 1.28392   4 
  -9   5  -2 37.5493 2.37150   5 
   9  -5   2 38.4927 2.90344   4 
   9  -5   2 32.7401 1.76117   6 
  13   4  -2 2.35769 1.24288   3 
 -13  -4   2 1.11317 0.92988   1 
  12   4  -2 71.0729 3.48871   3 
 -12  -4   2 73.0041 3.21393   1 
 -12  -4   2 63.9136 2.96105   5 
  11   4  -2 -0.9230 0.88413   3 
 -11  -4   2 -0.8391 0.69131   1 
 -11  -4   2 -1.1832 0.65182   5 
  10   4  -2 25.2550 2.01337   3 
 -10  -4   2 26.6921 1.75380   1 
 -10  -4   2 26.5935 1.63841   5 
   9   4  -2 144.971 4.76023   4 
   9   4  -2 142.482 4.96161   3 
  -9  -4   2 143.357 4.51381   5 
  -9  -4   2 139.878 4.67650   1 
   8   4  -2 220.128 6.93908   3 
   8   4  -2 238.796 6.76244   4 
   8   4  -2 223.454 6.39449   2 
  -8  -4   2 239.442 6.54044   5 
  -8  -4   2 230.824 6.68948   6 
  -8  -4   2 216.003 6.64666   1 
   7   4  -2 14.5583 1.17925   6 
   7   4  -2 17.5468 1.42612   3 
   7   4  -2 16.0304 1.05725   2 
   7   4  -2 17.0385 1.13419   4 
  -7  -4   2 18.6341 1.25488   1 
  -7  -4   2 16.3506 1.07083   5 
  -7  -4   2 14.7182 1.16450   6 
   6   4  -2 306.987 8.61257   2 
   6   4  -2 323.278 8.57081   4 
   6   4  -2 321.780 8.95563   3 
   6   4  -2 319.819 8.74529   6 
  -6  -4   2 333.938 8.53675   5 
  -6  -4   2 325.323 8.72139   6 
  -6  -4   2 317.523 8.62277   2 
  -6  -4   2 299.326 8.71249   1 
   5   4  -2 183.969 5.36956   3 
   5   4  -2 178.149 5.14092   6 
  -5  -4   2 174.499 5.18384   1 
  -5  -4   2 177.191 5.15477   2 
  -5  -4   2 186.104 4.96990   5 
  -5  -4   2 178.776 5.13026   6 
   4   4  -2 335.480 9.10986   6 
   4   4  -2 343.918 9.34920   3 
  -4  -4   2 365.885 9.01667   5 
  -4  -4   2 348.029 9.26747   2 
  -4  -4   2 346.015 9.12557   6 
  -4  -4   2 324.519 9.19086   1 
   3   4  -2 715.905 18.1193   4 
   3   4  -2 714.882 18.3881   3 
  -3  -4   2 707.144 18.1483   6 
  -3  -4   2 687.822 18.1249   6 
  -3  -4   2 693.154 18.2603   1 
  -3  -4   2 731.046 18.3867   2 
  -3  -4   2 719.237 18.1008   5 
   2   4  -2 206.520 5.75240   3 
   2   4  -2 221.299 5.47472   4 
  -2  -4   2 205.548 5.49742   6 
  -2  -4   2 212.001 5.56512   5 
  -2  -4   2 203.440 5.67128   1 
  -2  -4   2 197.099 5.77230   2 
  -2  -4   2 201.305 5.47510   6 
   1   4  -2 600.706 15.2952   3 
  -1  -4   2 615.697 15.2056   4 
  -1  -4   2 569.380 14.9747   6 
  -1  -4   2 607.706 15.1888   5 
  -1  -4   2 590.413 14.9838   6 
  -1  -4   2 579.886 15.2317   1 
  -1  -4   2 572.765 15.3535   2 
   0   4  -2 447.315 11.6607   3 
   0  -4   2 440.039 11.6327   5 
   0  -4   2 448.591 11.7530   2 
   0  -4   2 439.980 11.7100   4 
   0  -4   2 451.777 11.6693   3 
   0  -4   2 457.112 11.3644   6 
   0  -4   2 456.001 11.3535   6 
   0  -4   2 431.563 11.6391   1 
  -1   4  -2 122.859 3.61950   2 
   1  -4   2 121.942 3.78728   4 
   1  -4   2 123.676 3.22238   6 
   1  -4   2 125.144 3.66601   5 
   1  -4   2 128.624 3.61602   3 
   1  -4   2 117.904 3.59784   1 
   1  -4   2 121.970 3.21715   6 
   1  -4   2 122.782 3.63282   2 
  -2   4  -2 423.430 11.1162   2 
  -2   4  -2 432.291 11.2650   1 
   2  -4   2 417.881 11.2000   1 
   2  -4   2 424.611 11.5280   4 
   2  -4   2 429.004 11.2987   5 
   2  -4   2 417.586 10.8117   6 
   2  -4   2 427.131 11.1851   3 
   2  -4   2 424.374 10.8115   6 
  -3   4  -2 -0.0814 0.31944   1 
  -3   4  -2 1.00681 0.27307   2 
   3  -4   2 1.04992 0.38494   3 
   3  -4   2 0.74378 0.24127   6 
   3  -4   2 0.48738 0.42756   5 
   3  -4   2 0.60390 0.51423   4 
   3  -4   2 0.87128 0.20926   6 
  -4   4  -2 301.687 8.24341   1 
  -4   4  -2 300.536 7.86991   2 
   4  -4   2 289.865 8.33640   5 
   4  -4   2 304.916 8.22071   3 
   4  -4   2 293.269 7.85419   6 
   4  -4   2 295.600 8.75137   4 
   4  -4   2 294.247 7.81117   6 
  -5   4  -2 37.6427 1.74794   1 
  -5   4  -2 37.6176 1.87993   5 
   5  -4   2 37.1814 1.48766   6 
   5  -4   2 35.3794 1.86494   5 
   5  -4   2 39.1559 2.28084   4 
   5  -4   2 40.3336 1.81656   3 
  -6   4  -2 6.94040 0.93474   5 
  -6   4  -2 6.84705 0.84561   1 
   6  -4   2 8.77931 0.94156   3 
   6  -4   2 7.93607 0.72670   6 
   6  -4   2 6.61013 0.90693   5 
   6  -4   2 7.47504 1.21833   4 
  -7   4  -2 22.4489 1.46938   1 
  -7   4  -2 21.5291 1.59228   5 
   7  -4   2 21.4684 1.24308   6 
   7  -4   2 21.3405 2.06120   4 
  -8   4  -2 231.108 6.82776   1 
  -8   4  -2 226.984 7.19127   5 
   8  -4   2 224.342 6.63246   6 
   8  -4   2 217.861 7.78983   4 
  -9   4  -2 3.98656 1.03216   5 
  -9   4  -2 4.00901 0.91834   1 
   9  -4   2 5.20792 1.43225   4 
   9  -4   2 2.71066 0.73368   6 
 -10   4  -2 29.1766 2.17224   5 
  10  -4   2 26.5042 1.68485   6 
  10  -4   2 24.5609 2.45608   4 
  13   3  -2 29.2919 2.41673   3 
 -13  -3   2 33.0491 2.24105   1 
 -13  -3   2 26.4778 2.02348   5 
  12   3  -2 -0.1424 0.91607   3 
 -12  -3   2 0.02472 0.75216   5 
 -12  -3   2 -1.4462 0.73210   1 
  11   3  -2 87.9262 3.87988   3 
  11   3  -2 92.1511 3.92794   4 
 -11  -3   2 87.1118 3.46888   5 
 -11  -3   2 91.9238 3.58440   1 
  10   3  -2 71.5420 3.19565   4 
  10   3  -2 70.8978 3.19865   3 
 -10  -3   2 63.3449 2.78433   5 
 -10  -3   2 69.1907 2.89299   1 
   9   3  -2 77.8524 3.23422   4 
   9   3  -2 73.7641 3.24904   3 
   9   3  -2 81.6385 3.14524   6 
  -9  -3   2 81.2655 3.01011   5 
  -9  -3   2 80.8395 3.07237   1 
   8   3  -2 50.6122 1.84963   2 
   8   3  -2 53.2363 2.35414   4 
   8   3  -2 47.9760 2.41296   3 
   8   3  -2 51.3284 2.28322   6 
  -8  -3   2 53.0149 2.15154   5 
  -8  -3   2 47.9034 2.12183   6 
  -8  -3   2 50.7489 2.21461   1 
   7   3  -2 299.083 8.41973   4 
   7   3  -2 305.718 8.43032   6 
   7   3  -2 289.783 8.55321   3 
   7   3  -2 296.754 8.06107   2 
  -7  -3   2 302.212 8.25772   5 
  -7  -3   2 308.561 8.36592   6 
  -7  -3   2 299.575 8.35969   1 
   6   3  -2 16.6818 1.12272   6 
   6   3  -2 18.5107 1.10053   4 
   6   3  -2 16.6386 0.94676   2 
   6   3  -2 17.8874 1.28918   3 
  -6  -3   2 17.1890 1.06843   6 
  -6  -3   2 19.1427 1.14763   1 
  -6  -3   2 17.8301 1.07082   5 
   5   3  -2 458.142 11.9591   6 
   5   3  -2 452.333 12.0842   3 
   5   3  -2 458.098 11.8096   4 
   5   3  -2 437.477 11.8148   2 
  -5  -3   2 442.190 11.9225   1 
  -5  -3   2 448.276 11.8222   2 
  -5  -3   2 475.674 11.8170   5 
  -5  -3   2 443.361 11.8977   6 
   4   3  -2 158.040 4.47657   3 
   4   3  -2 150.738 4.28033   6 
   4   3  -2 153.055 4.29186   2 
  -4  -3   2 151.358 4.16402   5 
  -4  -3   2 146.148 4.30508   1 
  -4  -3   2 142.783 4.24555   2 
  -4  -3   2 147.056 4.25208   6 
   3   3  -2 366.507 9.47466   3 
   3   3  -2 353.786 9.39440   2 
   3   3  -2 345.214 9.27490   6 
  -3  -3   2 347.425 9.27386   6 
  -3  -3   2 358.765 9.30351   6 
  -3  -3   2 336.191 9.33372   1 
  -3  -3   2 364.094 9.41288   2 
  -3  -3   2 371.539 9.24427   5 
   2   3  -2 103.649 2.98319   3 
  -2  -3   2 92.7318 2.94709   2 
  -2  -3   2 103.180 2.81906   5 
  -2  -3   2 94.4656 2.87455   1 
  -2  -3   2 101.242 2.79277   6 
  -2  -3   2 96.8176 2.76508   6 
   1   3  -2 2236.17 55.1822   2 
   1   3  -2 2176.54 55.1371   3 
  -1  -3   2 2130.99 54.9989   6 
  -1  -3   2 2264.07 55.2924   4 
  -1  -3   2 2177.81 54.9700   6 
  -1  -3   2 2176.38 55.0782   1 
  -1  -3   2 2230.45 55.3811   5 
  -1  -3   2 2140.83 55.1582   2 
   0   3  -2 6.11898 0.52021   2 
   0   3  -2 7.03969 0.50889   3 
   0  -3   2 5.95830 0.47350   5 
   0  -3   2 6.20560 0.32728   6 
   0  -3   2 5.49103 0.46619   1 
   0  -3   2 6.05160 0.58272   4 
   0  -3   2 6.53878 0.59614   2 
   0  -3   2 5.89396 0.52474   3 
   0  -3   2 6.78938 0.34342   6 
  -1   3  -2 56.4837 1.86409   2 
   1  -3   2 56.1383 1.89105   1 
   1  -3   2 59.5052 1.84883   3 
   1  -3   2 58.4409 1.93163   5 
   1  -3   2 59.8790 1.61042   6 
   1  -3   2 58.0353 2.04774   4 
   1  -3   2 57.0899 1.59672   6 
  -2   3  -2 61.9141 2.09370   1 
  -2   3  -2 61.2030 1.94503   2 
   2  -3   2 60.9458 2.11085   5 
   2  -3   2 62.1994 1.75945   6 
   2  -3   2 62.7215 1.77404   6 
   2  -3   2 63.3282 2.01246   3 
   2  -3   2 60.3535 2.29015   4 
  -3   3  -2 748.211 19.0779   1 
  -3   3  -2 741.719 18.8210   2 
   3  -3   2 729.504 19.1248   5 
   3  -3   2 729.361 19.4105   4 
   3  -3   2 737.727 18.7409   6 
   3  -3   2 736.655 18.9663   3 
   3  -3   2 745.531 18.7369   6 
  -4   3  -2 33.2595 1.52084   1 
  -4   3  -2 34.3805 1.21969   2 
   4  -3   2 35.4338 1.29570   6 
   4  -3   2 36.8589 1.55726   3 
   4  -3   2 35.1848 1.92740   4 
   4  -3   2 34.2891 1.61334   5 
   4  -3   2 35.0380 1.26841   6 
  -5   3  -2 240.211 6.85341   1 
  -5   3  -2 239.901 6.98930   5 
   5  -3   2 240.989 6.99731   5 
   5  -3   2 243.691 6.61242   6 
   5  -3   2 233.945 7.38830   4 
   5  -3   2 251.652 6.84706   3 
  -6   3  -2 17.7055 1.31817   5 
  -6   3  -2 17.9821 1.21003   1 
   6  -3   2 18.1798 1.32697   5 
   6  -3   2 18.8071 1.26859   3 
   6  -3   2 19.2205 1.09475   6 
   6  -3   2 17.3285 1.67281   4 
  -7   3  -2 55.1975 2.48883   5 
  -7   3  -2 54.3267 2.29460   1 
   7  -3   2 55.5315 2.96336   4 
   7  -3   2 54.0043 2.16216   6 
   7  -3   2 55.1983 2.37221   3 
  -8   3  -2 28.6718 1.88012   5 
  -8   3  -2 31.4243 1.73862   1 
   8  -3   2 26.0558 2.28077   4 
   8  -3   2 26.0306 1.52870   6 
  -9   3  -2 179.281 6.01939   5 
  -9   3  -2 188.908 5.69410   1 
   9  -3   2 167.517 5.52203   6 
   9  -3   2 170.634 6.62972   4 
 -10   3  -2 10.8555 1.39821   5 
 -10   3  -2 12.4760 1.25491   1 
  10  -3   2 13.7274 1.90731   4 
  10  -3   2 11.7302 1.20835   6 
  13   2  -2 17.1865 1.86828   3 
 -13  -2   2 14.8021 1.53357   5 
  12   2  -2 41.8749 2.70815   3 
  12   2  -2 38.7175 2.71694   4 
 -12  -2   2 36.7059 2.27721   5 
 -12  -2   2 43.6352 2.42979   1 
  11   2  -2 1.69564 1.02014   3 
  11   2  -2 1.62099 1.00313   4 
 -11  -2   2 1.87851 0.82781   5 
 -11  -2   2 2.56133 0.88011   1 
  10   2  -2 150.322 5.23269   3 
  10   2  -2 144.010 5.25507   4 
  10   2  -2 149.324 5.01500   6 
 -10  -2   2 143.974 4.83165   1 
 -10  -2   2 144.941 4.89055   5 
   9   2  -2 34.4641 2.05116   6 
   9   2  -2 39.6021 2.30659   4 
   9   2  -2 35.8694 2.20346   3 
  -9  -2   2 39.9510 1.96487   1 
  -9  -2   2 35.5999 1.94639   5 
   8   2  -2 315.119 8.73422   6 
   8   2  -2 302.718 8.87554   3 
   8   2  -2 303.820 8.86922   4 
  -8  -2   2 306.532 8.58126   1 
  -8  -2   2 301.733 8.59969   5 
   7   2  -2 0.70095 0.35442   2 
   7   2  -2 1.30054 0.64117   4 
   7   2  -2 0.89904 0.60342   3 
   7   2  -2 0.46556 0.50811   6 
  -7  -2   2 2.07373 0.55082   1 
  -7  -2   2 1.50096 0.48911   6 
  -7  -2   2 0.80586 0.48918   5 
   6   2  -2 394.241 10.8437   3 
   6   2  -2 393.771 10.7370   4 
   6   2  -2 404.587 10.3779   2 
   6   2  -2 402.079 10.7232   6 
  -6  -2   2 395.918 10.6391   1 
  -6  -2   2 386.089 10.6237   6 
  -6  -2   2 405.969 10.6412   5 
   5   2  -2 0.97587 0.35297   6 
   5   2  -2 0.83831 0.44080   3 
   5   2  -2 0.34298 0.34221   4 
   5   2  -2 0.90180 0.28821   2 
  -5  -2   2 0.97616 0.38043   5 
  -5  -2   2 1.03429 0.33154   6 
  -5  -2   2 1.61660 0.40189   1 
   4   2  -2 397.536 10.4559   6 
   4   2  -2 412.915 10.5868   3 
   4   2  -2 394.546 10.3430   2 
   4   2  -2 402.389 10.3742   4 
  -4  -2   2 397.300 10.3800   5 
  -4  -2   2 392.167 10.4145   6 
  -4  -2   2 385.478 10.4179   1 
   3   2  -2 0.51341 0.19674   4 
   3   2  -2 1.01857 0.33579   3 
   3   2  -2 0.84807 0.27744   2 
   3   2  -2 0.98114 0.25890   6 
  -3  -2   2 0.94153 0.24749   6 
  -3  -2   2 0.92761 0.28453   1 
  -3  -2   2 1.20321 0.27299   5 
   2   2  -2 1149.68 29.4956   3 
   2   2  -2 1175.00 29.4752   2 
   2   2  -2 1146.20 29.3627   6 
  -2  -2   2 1189.19 29.3756   6 
  -2  -2   2 1189.50 29.3828   6 
  -2  -2   2 1147.21 29.4637   2 
  -2  -2   2 1169.00 29.3887   5 
  -2  -2   2 1152.74 29.4217   1 
   1   2  -2 199.027 5.29770   3 
   1   2  -2 205.060 5.36065   2 
  -1  -2   2 200.128 5.22244   4 
  -1  -2   2 195.995 5.17166   6 
  -1  -2   2 206.569 5.28419   5 
  -1  -2   2 188.477 5.27301   1 
  -1  -2   2 198.196 5.18472   6 
   0   2  -2 648.039 16.2769   2 
   0   2  -2 633.394 16.2074   3 
   0  -2   2 656.894 16.1202   6 
   0  -2   2 629.089 16.2371   5 
   0  -2   2 638.539 16.2437   1 
   0  -2   2 642.867 16.2807   4 
   0  -2   2 612.225 16.1083   6 
  -1   2  -2 7.22866 0.47992   2 
   1  -2   2 6.56575 0.34482   6 
   1  -2   2 6.08711 0.53176   1 
   1  -2   2 7.39665 0.67537   4 
   1  -2   2 7.02277 0.46690   3 
   1  -2   2 6.10616 0.35245   6 
   1  -2   2 6.83752 0.55604   5 
  -2   2  -2 275.617 7.21800   2 
  -2   2  -2 271.717 7.36934   1 
   2  -2   2 282.314 7.14146   6 
   2  -2   2 280.628 7.59839   4 
   2  -2   2 274.636 7.23026   3 
   2  -2   2 272.817 7.39016   5 
   2  -2   2 276.265 7.12277   6 
  -3   2  -2 108.940 3.05328   2 
  -3   2  -2 106.922 3.29700   1 
   3  -2   2 112.433 3.07138   6 
   3  -2   2 110.390 3.62089   4 
   3  -2   2 111.868 3.08260   6 
   3  -2   2 112.727 3.36831   5 
   3  -2   2 110.868 3.20332   3 
  -4   2  -2 1176.21 30.0755   1 
  -4   2  -2 1177.74 29.7396   2 
   4  -2   2 1202.37 29.9965   3 
   4  -2   2 1199.40 29.8529   6 
   4  -2   2 1138.12 30.4929   4 
   4  -2   2 1165.56 30.1503   5 
   4  -2   2 1196.53 29.8555   6 
  -5   2  -2 -0.4688 0.37500   5 
  -5   2  -2 0.22112 0.34120   1 
   5  -2   2 0.45026 0.43593   5 
   5  -2   2 0.14931 0.27789   6 
   5  -2   2 0.30062 0.37852   3 
   5  -2   2 0.02845 0.20044   6 
   5  -2   2 0.39212 0.59375   4 
  -6   2  -2 157.744 4.98309   5 
  -6   2  -2 162.857 4.85171   1 
   6  -2   2 161.948 5.02245   5 
   6  -2   2 161.490 4.71539   6 
   6  -2   2 165.023 4.84988   3 
   6  -2   2 155.011 5.42635   4 
  -7   2  -2 20.1608 1.46422   5 
  -7   2  -2 19.9481 1.28060   1 
   7  -2   2 18.8862 1.21149   6 
   7  -2   2 19.4206 1.32152   3 
   7  -2   2 18.0210 1.75193   4 
  -8   2  -2 198.841 6.33349   5 
  -8   2  -2 198.622 6.06113   1 
   8  -2   2 199.708 6.04188   6 
   8  -2   2 214.924 6.22666   3 
   8  -2   2 196.504 6.92214   4 
  -9   2  -2 1.00994 0.64755   1 
  -9   2  -2 1.32179 0.81078   5 
   9  -2   2 1.49039 1.17843   4 
   9  -2   2 2.93664 0.74738   6 
 -10   2  -2 101.248 4.02171   5 
 -10   2  -2 98.0013 3.68859   1 
  10  -2   2 93.9744 4.54424   4 
  10  -2   2 95.0645 3.65374   6 
 -11   2  -2 24.3963 1.78753   1 
 -11   2  -2 27.0510 2.01971   5 
  11  -2   2 19.7303 2.24445   4 
  11  -2   2 20.9318 1.63617   6 
  13   1  -2 26.1322 2.23500   3 
  13   1  -2 23.7527 2.47220   4 
 -13  -1   2 22.7837 1.98856   5 
  12   1  -2 3.43994 1.06219   6 
  12   1  -2 4.39605 1.19036   3 
  12   1  -2 3.15377 1.30004   4 
 -12  -1   2 2.08218 0.96951   5 
  11   1  -2 50.4156 2.83007   3 
  11   1  -2 51.9587 3.03174   4 
  11   1  -2 58.3796 2.73098   6 
 -11  -1   2 52.6281 2.53803   1 
 -11  -1   2 52.0439 2.67463   5 
  10   1  -2 50.4698 2.68352   3 
  10   1  -2 54.0591 2.57428   6 
  10   1  -2 52.3500 2.89358   4 
 -10  -1   2 50.9950 2.52174   5 
 -10  -1   2 56.7990 2.49535   1 
   9   1  -2 102.460 4.10775   4 
   9   1  -2 108.764 3.83796   6 
   9   1  -2 105.038 4.00432   3 
  -9  -1   2 106.951 3.80752   5 
  -9  -1   2 106.011 3.64527   1 
   8   1  -2 45.8658 2.31045   3 
   8   1  -2 47.6624 2.42832   4 
   8   1  -2 47.0323 2.17370   6 
  -8  -1   2 47.5208 2.03587   1 
  -8  -1   2 46.6377 2.16676   5 
   7   1  -2 402.302 11.2355   3 
   7   1  -2 403.498 11.3303   4 
   7   1  -2 411.635 11.1082   6 
  -7  -1   2 402.367 10.9274   1 
  -7  -1   2 417.070 11.0913   5 
   6   1  -2 8.06065 0.86233   3 
   6   1  -2 7.98031 0.53797   2 
   6   1  -2 7.68306 0.83262   4 
   6   1  -2 7.51195 0.74554   6 
  -6  -1   2 6.19185 0.62737   6 
  -6  -1   2 7.25560 0.65945   1 
  -6  -1   2 6.33901 0.68360   5 
   5   1  -2 287.525 8.16245   4 
   5   1  -2 305.524 7.79339   2 
   5   1  -2 304.550 8.22815   3 
   5   1  -2 292.998 8.10661   6 
  -5  -1   2 302.243 8.06013   6 
  -5  -1   2 300.291 8.00614   1 
  -5  -1   2 296.655 8.08481   5 
   4   1  -2 66.0439 1.90524   2 
   4   1  -2 62.5254 2.18630   3 
   4   1  -2 62.9389 2.09200   4 
   4   1  -2 62.8364 2.08207   6 
  -4  -1   2 62.0720 2.06744   5 
  -4  -1   2 59.9335 2.01928   6 
  -4  -1   2 61.8472 2.03087   1 
   3   1  -2 1.57787 0.28600   4 
   3   1  -2 1.49916 0.25548   2 
   3   1  -2 1.97234 0.35785   3 
   3   1  -2 0.98701 0.25733   6 
  -3  -1   2 1.62279 0.30019   5 
  -3  -1   2 1.52010 0.26260   6 
  -3  -1   2 2.20805 0.31103   1 
   2   1  -2 993.929 25.1520   6 
   2   1  -2 1019.60 25.1774   2 
   2   1  -2 971.657 25.3760   4 
   2   1  -2 998.828 25.2350   3 
  -2  -1   2 968.940 25.1418   1 
  -2  -1   2 997.373 25.1656   5 
  -2  -1   2 1017.99 25.1392   6 
   1   1  -2 2333.67 62.7152   2 
   1   1  -2 2491.55 62.6059   6 
   1   1  -2 2450.21 62.9523   3 
  -1  -1   2 2555.25 63.2877   5 
  -1  -1   2 2487.34 62.6683   6 
  -1  -1   2 2548.98 62.6417   6 
  -1  -1   2 2455.51 62.8193   1 
  -1  -1   2 2668.48 67.1760   4 
   0   1  -2 443.687 11.3057   2 
   0   1  -2 437.105 11.2978   3 
   0  -1   2 456.079 11.3045   5 
   0  -1   2 435.652 11.2034   6 
   0  -1   2 457.488 11.3448   4 
   0  -1   2 434.002 11.2024   6 
   0  -1   2 426.053 11.2681   1 
  -1   1  -2 28.7324 0.97967   2 
  -1   1  -2 27.3462 1.03184   1 
   1  -1   2 26.4645 0.87514   6 
   1  -1   2 29.8518 1.04532   5 
   1  -1   2 27.9588 1.01661   1 
   1  -1   2 29.8569 1.12880   4 
   1  -1   2 28.3310 0.90202   6 
   1  -1   2 29.1169 0.87360   3 
  -2   1  -2 724.074 18.3406   2 
  -2   1  -2 693.590 18.4529   1 
   2  -1   2 747.017 18.3323   6 
   2  -1   2 728.697 18.4763   5 
   2  -1   2 734.336 18.3131   6 
   2  -1   2 737.944 18.6715   4 
   2  -1   2 702.232 18.3533   3 
  -3   1  -2 715.892 18.6355   1 
  -3   1  -2 735.708 18.4353   2 
   3  -1   2 703.448 18.6554   5 
   3  -1   2 718.118 18.9200   4 
   3  -1   2 739.502 18.4874   6 
   3  -1   2 736.562 18.5224   3 
   3  -1   2 743.587 18.4812   6 
  -4   1  -2 209.740 5.91428   1 
  -4   1  -2 221.004 5.57289   2 
   4  -1   2 219.012 5.78826   6 
   4  -1   2 202.402 5.94862   5 
   4  -1   2 210.795 6.27976   4 
   4  -1   2 216.888 5.82812   3 
   4  -1   2 217.620 5.77151   6 
  -5   1  -2 271.013 7.31938   1 
   5  -1   2 270.774 7.81913   4 
   5  -1   2 271.903 7.18119   6 
   5  -1   2 266.380 7.24749   3 
   5  -1   2 244.763 7.33260   5 
   5  -1   2 268.616 7.17077   6 
  -6   1  -2 12.5213 1.00419   1 
  -6   1  -2 13.8864 1.10812   5 
   6  -1   2 13.1108 0.91003   6 
   6  -1   2 12.9012 1.01346   3 
   6  -1   2 12.6360 1.06484   5 
   6  -1   2 13.8399 1.41034   4 
  -7   1  -2 268.600 7.91841   5 
  -7   1  -2 275.682 7.77928   1 
   7  -1   2 278.009 7.75657   6 
   7  -1   2 289.381 7.82543   3 
   7  -1   2 269.037 8.45620   4 
  -8   1  -2 26.2119 1.50665   1 
  -8   1  -2 28.8557 1.71169   5 
   8  -1   2 22.3846 1.42671   6 
   8  -1   2 26.3806 1.56230   3 
   8  -1   2 26.6359 2.05753   4 
  -9   1  -2 176.073 5.80882   5 
  -9   1  -2 180.729 5.58076   1 
   9  -1   2 176.925 6.44124   4 
   9  -1   2 182.543 5.65373   6 
 -10   1  -2 8.72131 1.06809   1 
 -10   1  -2 7.06003 1.15886   5 
  10  -1   2 6.16115 0.96536   6 
  10  -1   2 8.37531 1.55221   4 
 -11   1  -2 57.0821 2.60603   1 
 -11   1  -2 49.6845 2.70789   5 
  11  -1   2 46.2161 2.48464   6 
  11  -1   2 49.7962 3.26599   4 
 -12   1  -2 14.3980 1.47205   1 
 -12   1  -2 10.9915 1.42442   5 
  12  -1   2 14.6468 1.43621   6 
  13   0  -2 18.1355 1.70353   6 
  13   0  -2 19.2481 2.15772   4 
  13   0  -2 16.8720 1.82822   3 
  12   0  -2 23.8272 1.89742   6 
  12   0  -2 29.0295 2.59882   4 
  12   0  -2 28.0757 2.29363   3 
 -12   0   2 28.0290 2.13290   5 
  11   0  -2 4.13225 1.26376   4 
  11   0  -2 0.61385 0.79467   6 
  11   0  -2 4.58306 1.14125   3 
 -11   0   2 1.68631 0.88999   5 
  10   0  -2 33.4494 2.41154   4 
  10   0  -2 37.2386 2.04928   6 
  10   0  -2 37.4943 2.30756   3 
 -10   0   2 38.4866 1.97437   1 
 -10   0   2 34.0152 2.09256   5 
   9   0  -2 -1.0987 0.74927   4 
   9   0  -2 -0.4180 0.55550   6 
   9   0  -2 0.76669 0.75488   3 
  -9   0   2 -0.6888 0.50025   1 
  -9   0   2 -0.5087 0.59348   5 
   8   0  -2 203.839 6.48961   3 
   8   0  -2 211.549 6.32916   6 
   8   0  -2 214.340 6.78078   4 
  -8   0   2 215.271 6.15001   1 
  -8   0   2 209.480 6.37037   5 
   7   0  -2 65.5112 2.76955   4 
   7   0  -2 62.4204 2.60138   3 
   7   0  -2 61.8201 2.42444   6 
  -7   0   2 61.5749 2.26128   1 
  -7   0   2 59.8227 2.43184   5 
   6   0  -2 300.539 8.53430   4 
   6   0  -2 300.059 8.38620   3 
   6   0  -2 294.433 8.24990   6 
  -6   0   2 287.295 8.25339   5 
  -6   0   2 304.118 8.07630   1 
  -6   0   2 306.424 8.16033   6 
   5   0  -2 38.3385 1.66147   3 
   5   0  -2 35.8508 1.50394   6 
   5   0  -2 34.5325 1.65792   4 
  -5   0   2 37.6717 1.39559   1 
  -5   0   2 36.9545 1.56234   5 
  -5   0   2 34.4678 1.39632   6 
   4   0  -2 50.8956 1.90957   3 
   4   0  -2 53.2988 1.55812   2 
   4   0  -2 48.3634 1.98517   4 
   4   0  -2 51.4803 1.81736   6 
  -4   0   2 54.9351 1.71828   1 
  -4   0   2 52.7163 1.85743   5 
  -4   0   2 52.5960 1.75552   6 
   3   0  -2 37.3686 1.36500   6 
   3   0  -2 40.8410 1.22097   2 
   3   0  -2 36.2957 1.40698   4 
   3   0  -2 37.7926 1.44761   3 
  -3   0   2 38.5206 1.31463   6 
  -3   0   2 40.7366 1.42293   5 
  -3   0   2 38.4633 1.28376   1 
   2   0  -2 778.818 19.7539   6 
   2   0  -2 793.289 19.8335   3 
   2   0  -2 765.025 19.8280   4 
   2   0  -2 814.760 19.7290   2 
  -2   0   2 779.002 19.8006   5 
  -2   0   2 774.787 19.7163   6 
  -2   0   2 747.427 19.6994   1 
   1   0  -2 145.636 3.83106   2 
   1   0  -2 149.023 3.83104   6 
   1   0  -2 138.053 3.83886   3 
  -1   0   2 145.536 3.85282   5 
  -1   0   2 144.704 3.80079   6 
  -1   0   2 139.921 3.76513   1 
  -1   0   2 145.268 3.84050   4 
   0   0  -2 1303.23 32.8138   6 
   0   0  -2 1312.59 32.8643   2 
   0   0  -2 1219.03 33.2648   3 
   0   0   2 1362.92 33.5576   4 
   0   0   2 1308.68 32.9350   5 
   0   0   2 1322.46 32.8171   6 
  -1   0  -2 419.986 10.7861   6 
  -1   0  -2 424.912 10.8248   2 
  -1   0  -2 405.111 10.8329   1 
   1   0   2 443.449 10.9791   4 
   1   0   2 439.187 10.8506   5 
   1   0   2 425.402 10.7805   6 
   1   0   2 409.932 10.7789   6 
  -2   0  -2 803.923 19.4466   6 
  -2   0  -2 725.671 19.4971   1 
  -2   0  -2 790.083 19.4525   2 
   2   0   2 771.844 19.4425   6 
   2   0   2 763.876 19.5064   5 
   2   0   2 744.157 19.4191   6 
   2   0   2 779.628 19.7079   4 
  -3   0  -2 554.564 13.5858   2 
  -3   0  -2 544.201 13.6542   6 
  -3   0  -2 533.304 13.7557   1 
   3   0   2 549.169 13.6724   6 
   3   0   2 516.095 13.7451   5 
   3   0   2 515.594 13.9735   4 
   3   0   2 518.804 13.6252   3 
   3   0   2 539.468 13.6544   6 
  -4   0  -2 1201.47 30.0825   2 
  -4   0  -2 1223.94 30.2005   6 
  -4   0  -2 1223.05 30.3119   1 
   4   0   2 1204.76 30.2153   6 
   4   0   2 1161.59 30.3027   5 
   4   0   2 1169.82 30.1996   3 
   4   0   2 1215.31 30.6634   4 
   4   0   2 1148.31 30.1796   6 
  -5   0  -2 26.4373 0.90781   2 
  -5   0  -2 29.0472 1.32681   1 
  -5   0  -2 30.1517 1.24381   6 
   5   0   2 29.2321 1.36538   5 
   5   0   2 29.6168 1.24822   6 
   5   0   2 29.4442 1.30685   3 
   5   0   2 31.5600 1.72053   4 
   5   0   2 31.4369 1.27332   6 
  -6   0  -2 273.018 7.59617   1 
  -6   0  -2 275.207 7.67251   5 
   6   0   2 281.111 7.55410   6 
   6   0   2 274.622 8.12824   4 
   6   0   2 270.703 7.67460   5 
   6   0   2 277.515 7.56694   3 
  -7   0  -2 -0.3127 0.43743   5 
  -7   0  -2 0.66047 0.45959   1 
   7   0   2 0.26448 0.68356   4 
   7   0   2 0.35677 0.48350   3 
   7   0   2 0.62556 0.42548   6 
  -8   0  -2 16.1375 1.27236   5 
  -8   0  -2 15.4633 1.17132   1 
   8   0   2 18.1109 1.30647   3 
   8   0   2 17.7967 1.73101   4 
   8   0   2 16.8485 1.22963   6 
  -9   0  -2 13.5379 1.21473   5 
  -9   0  -2 13.8599 1.21544   1 
   9   0   2 14.0833 1.18487   6 
   9   0   2 10.4471 1.48904   4 
   9   0   2 13.8235 1.31949   3 
 -10   0  -2 101.106 3.83255   5 
 -10   0  -2 104.851 3.69345   1 
  10   0   2 92.2752 4.35960   4 
  10   0   2 93.9217 3.68210   6 
 -11   0  -2 27.8634 1.83458   1 
 -11   0  -2 24.1785 1.87783   5 
  11   0   2 23.1670 2.32255   4 
  11   0   2 26.5081 1.81010   6 
 -12   0  -2 53.4111 2.82345   5 
 -12   0  -2 51.8457 2.68552   1 
  12   0   2 48.2393 2.65334   6 
  12   0   2 53.8165 3.46544   4 
  12  -1  -2 -0.0933 1.15194   4 
  12  -1  -2 1.81414 1.03796   3 
  12  -1  -2 -0.9622 0.72089   6 
 -12   1   2 -0.6828 0.81483   5 
  11  -1  -2 101.214 4.00392   6 
  11  -1  -2 106.130 4.76680   4 
  11  -1  -2 101.913 4.29760   3 
 -11   1   2 109.387 4.29100   5 
  10  -1  -2 2.22660 1.12803   4 
  10  -1  -2 1.61098 0.78125   6 
  10  -1  -2 1.71458 0.92524   3 
 -10   1   2 1.40936 0.83945   5 
   9  -1  -2 162.386 5.59680   3 
   9  -1  -2 171.733 6.01005   4 
   9  -1  -2 166.817 5.36744   6 
  -9   1   2 168.082 5.53174   5 
  -9   1   2 168.144 5.18097   1 
   8  -1  -2 2.27929 0.68130   6 
   8  -1  -2 4.62432 0.95165   3 
   8  -1  -2 3.30008 0.97250   4 
  -8   1   2 2.41876 0.72338   5 
  -8   1   2 2.70613 0.61640   1 
   7  -1  -2 169.618 5.67615   4 
   7  -1  -2 169.876 5.20173   6 
   7  -1  -2 170.161 5.40130   3 
  -7   1   2 167.685 5.29806   5 
  -7   1   2 182.159 5.04925   1 
   6  -1  -2 186.189 5.62571   3 
   6  -1  -2 188.607 5.86231   4 
   6  -1  -2 191.611 5.47175   6 
  -6   1   2 183.939 5.23745   1 
  -6   1   2 184.315 5.54784   5 
   5  -1  -2 341.622 9.31488   3 
   5  -1  -2 343.610 9.51732   4 
   5  -1  -2 350.070 9.17943   6 
  -5   1   2 334.572 9.03957   6 
  -5   1   2 332.316 9.23871   5 
  -5   1   2 341.539 8.97126   1 
   4  -1  -2 11.6009 0.52011   2 
   4  -1  -2 11.4538 0.75480   6 
   4  -1  -2 13.7924 1.00850   4 
   4  -1  -2 13.2184 0.94242   3 
  -4   1   2 11.0877 0.84448   5 
  -4   1   2 12.4770 0.69389   6 
  -4   1   2 12.8995 0.67794   1 
   3  -1  -2 586.931 14.9634   2 
   3  -1  -2 588.994 15.2601   3 
   3  -1  -2 593.194 15.3795   4 
   3  -1  -2 589.981 15.1452   6 
  -3   1   2 603.680 15.2389   5 
  -3   1   2 568.802 15.0550   6 
  -3   1   2 597.669 15.0033   1 
   2  -1  -2 1035.37 25.9149   2 
   2  -1  -2 1035.08 25.9474   6 
   2  -1  -2 1019.27 26.0518   3 
   2  -1  -2 993.555 26.1172   4 
  -2   1   2 1063.07 26.0511   5 
  -2   1   2 1030.21 25.9148   1 
  -2   1   2 1012.74 25.8906   6 
   1  -1  -2 2135.59 56.8720   3 
   1  -1  -2 2201.67 56.6889   6 
   1  -1  -2 2351.82 57.0658   4 
   1  -1  -2 2350.89 56.9598   2 
  -1   1   2 2303.59 57.0369   4 
  -1   1   2 2225.66 57.0649   5 
  -1   1   2 2253.78 56.6610   6 
   0  -1  -2 715.961 19.6238   3 
   0  -1  -2 811.950 19.6355   2 
   0  -1  -2 764.083 19.7008   1 
   0  -1  -2 736.786 19.5658   6 
   0   1   2 773.245 19.5643   6 
   0   1   2 826.258 19.7556   4 
   0   1   2 800.556 19.6189   5 
  -1  -1  -2 256.425 6.89816   3 
  -1  -1  -2 271.347 6.93019   2 
  -1  -1  -2 268.652 6.90080   1 
  -1  -1  -2 256.570 6.89479   6 
   1   1   2 264.870 6.88877   6 
   1   1   2 287.998 7.08437   4 
   1   1   2 270.725 6.89395   5 
  -2  -1  -2 156.879 4.23751   2 
  -2  -1  -2 153.816 4.29049   1 
  -2  -1  -2 163.934 4.28761   6 
   2   1   2 169.989 4.51150   4 
   2   1   2 161.231 4.24141   3 
   2   1   2 158.313 4.25857   6 
  -3  -1  -2 5300.62 132.719   2 
  -3  -1  -2 5181.88 132.863   1 
  -3  -1  -2 5111.49 132.487   6 
   3   1   2 5623.83 133.504   4 
   3   1   2 5344.62 132.577   6 
   3   1   2 5208.88 132.687   5 
   3   1   2 5202.56 133.172   3 
  -4  -1  -2 284.146 7.52232   1 
  -4  -1  -2 274.931 7.27625   2 
  -4  -1  -2 288.346 7.48948   6 
   4   1   2 295.733 7.86140   4 
   4   1   2 270.553 7.45155   6 
   4   1   2 273.634 7.48469   5 
   4   1   2 288.277 7.47643   3 
  -5  -1  -2 565.280 14.8314   5 
  -5  -1  -2 571.765 14.8419   1 
  -5  -1  -2 567.654 14.5341   2 
  -5  -1  -2 578.140 14.8091   6 
   5   1   2 566.898 14.8119   6 
   5   1   2 565.038 14.8375   5 
   5   1   2 573.438 14.8184   3 
   5   1   2 587.676 15.2750   4 
  -6  -1  -2 384.243 10.0607   6 
  -6  -1  -2 366.817 9.61485   2 
  -6  -1  -2 376.555 10.0886   5 
  -6  -1  -2 368.472 10.0492   1 
   6   1   2 370.195 10.0871   5 
   6   1   2 386.392 10.0836   3 
   6   1   2 375.301 10.5565   4 
   6   1   2 380.383 10.0627   6 
  -7  -1  -2 139.731 4.32348   1 
  -7  -1  -2 139.021 4.35555   5 
   7   1   2 142.422 4.88812   4 
   7   1   2 145.179 4.37236   6 
   7   1   2 144.457 4.37672   3 
  -8  -1  -2 16.2997 1.15592   1 
  -8  -1  -2 17.4484 1.24816   5 
   8   1   2 16.6025 1.61523   4 
   8   1   2 17.1862 1.22196   6 
   8   1   2 16.1310 1.25685   3 
  -9  -1  -2 42.4019 1.97827   1 
  -9  -1  -2 39.6345 2.00563   5 
   9   1   2 38.9297 2.50167   4 
   9   1   2 41.2164 2.03228   6 
   9   1   2 42.7612 2.08851   3 
 -10  -1  -2 0.88612 0.68945   5 
 -10  -1  -2 2.00573 0.70551   1 
  10   1   2 1.28604 0.79392   3 
  10   1   2 1.88752 0.79189   6 
  10   1   2 1.39011 1.08242   4 
 -11  -1  -2 71.3282 3.13305   5 
 -11  -1  -2 74.6216 3.08581   1 
  11   1   2 68.1268 3.74972   4 
  11   1   2 69.7645 3.12312   6 
 -12  -1  -2 32.6957 2.08706   1 
 -12  -1  -2 30.8271 2.11757   5 
  12   1   2 28.6419 2.61416   4 
  12   1   2 31.5089 2.10149   6 
 -13  -1  -2 8.75817 1.28945   1 
 -13  -1  -2 7.11129 1.21325   5 
  13   1   2 7.47960 1.27313   6 
  12  -2  -2 39.0648 2.66440   3 
  12  -2  -2 38.1451 3.04962   4 
  12  -2  -2 36.4864 2.22917   6 
  11  -2  -2 9.57858 1.70213   4 
  11  -2  -2 6.29582 1.08262   6 
  11  -2  -2 10.3748 1.46459   3 
 -11   2   2 7.89233 1.30898   5 
  10  -2  -2 54.2695 3.20831   4 
  10  -2  -2 52.2928 2.49028   6 
  10  -2  -2 54.9647 2.86613   3 
 -10   2   2 52.6648 2.74294   5 
   9  -2  -2 -1.3224 0.55611   6 
   9  -2  -2 0.34254 0.72367   3 
   9  -2  -2 0.23223 0.89327   4 
  -9   2   2 -0.6688 0.69402   5 
   8  -2  -2 198.980 6.48749   3 
   8  -2  -2 205.822 6.93925   4 
   8  -2  -2 210.330 6.25518   6 
  -8   2   2 208.982 6.47290   5 
  -8   2   2 213.376 6.04841   1 
   7  -2  -2 33.5834 1.68327   6 
   7  -2  -2 35.4828 2.16807   4 
   7  -2  -2 31.1989 1.86293   3 
  -7   2   2 31.0043 1.78905   5 
  -7   2   2 34.6200 1.51240   1 
   6  -2  -2 465.878 12.6448   4 
   6  -2  -2 442.304 11.9928   6 
   6  -2  -2 452.833 12.2920   3 
  -6   2   2 439.644 12.1825   5 
  -6   2   2 445.570 11.7815   1 
   5  -2  -2 263.791 7.23520   6 
   5  -2  -2 265.438 7.21095   6 
   5  -2  -2 263.652 7.47968   3 
   5  -2  -2 261.816 7.72316   4 
  -5   2   2 258.783 7.02293   1 
  -5   2   2 267.034 7.42656   5 
   4  -2  -2 238.859 6.44167   6 
   4  -2  -2 236.270 6.85500   4 
   4  -2  -2 238.600 6.39730   6 
   4  -2  -2 237.715 6.66210   3 
  -4   2   2 233.884 6.59464   5 
  -4   2   2 233.401 6.24830   1 
   3  -2  -2 212.286 6.10936   4 
   3  -2  -2 204.580 5.56937   2 
   3  -2  -2 213.829 5.72212   6 
   3  -2  -2 217.098 5.97817   3 
   3  -2  -2 213.955 5.75227   6 
  -3   2   2 215.750 5.59337   1 
  -3   2   2 220.674 5.92579   5 
   2  -2  -2 44.5193 1.67351   3 
   2  -2  -2 47.3452 1.76528   4 
   2  -2  -2 47.7514 1.49588   6 
   2  -2  -2 46.9670 1.42865   2 
   2  -2  -2 50.5428 1.48532   6 
  -2   2   2 46.5259 1.33857   1 
  -2   2   2 48.4656 1.63186   5 
   1  -2  -2 2.43528 0.25290   6 
   1  -2  -2 2.58053 0.38968   4 
   1  -2  -2 2.12731 0.22557   6 
   1  -2  -2 2.46368 0.28678   2 
   1  -2  -2 1.87878 0.34680   3 
  -1   2   2 3.55992 0.34358   5 
  -1   2   2 2.82376 0.23403   6 
   0  -2  -2 1186.74 28.1654   6 
   0  -2  -2 1048.56 28.2215   3 
   0  -2  -2 1071.28 28.0833   6 
   0  -2  -2 1144.48 28.1896   2 
   0   2   2 1110.12 28.1078   6 
   0   2   2 1156.16 28.3618   4 
   0   2   2 1105.60 28.3039   5 
  -1  -2  -2 1111.20 28.3210   6 
  -1  -2  -2 1101.69 28.4086   3 
  -1  -2  -2 1130.79 28.3677   2 
  -1  -2  -2 1074.36 28.3151   1 
   1   2   2 1181.60 28.5394   4 
   1   2   2 1172.58 28.4426   5 
   1   2   2 1124.57 28.3022   6 
   1   2   2 1102.80 28.2931   6 
  -2  -2  -2 115.758 3.24928   6 
  -2  -2  -2 118.914 3.22198   1 
  -2  -2  -2 113.264 3.23414   2 
   2   2   2 116.437 3.22408   6 
   2   2   2 126.575 3.47173   4 
   2   2   2 122.442 3.28637   3 
  -3  -2  -2 266.879 7.04691   2 
  -3  -2  -2 260.941 7.10368   6 
  -3  -2  -2 257.058 7.08781   1 
   3   2   2 270.373 7.01869   5 
   3   2   2 280.364 7.11438   6 
   3   2   2 271.837 7.14694   3 
   3   2   2 288.249 7.40086   4 
  -4  -2  -2 1430.31 36.8467   2 
  -4  -2  -2 1498.25 36.9668   1 
  -4  -2  -2 1443.06 36.9394   6 
   4   2   2 1469.91 36.9384   6 
   4   2   2 1419.47 36.8681   5 
   4   2   2 1526.41 37.3029   4 
   4   2   2 1458.13 37.0032   3 
  -5  -2  -2 33.8163 1.23204   2 
  -5  -2  -2 35.9768 1.43285   6 
  -5  -2  -2 34.8204 1.38582   5 
  -5  -2  -2 35.3546 1.44378   1 
   5   2   2 37.0880 1.45332   6 
   5   2   2 33.0172 1.39354   5 
   5   2   2 37.1974 1.75788   4 
   5   2   2 37.0216 1.49384   3 
  -6  -2  -2 215.419 6.00617   6 
  -6  -2  -2 211.584 5.99979   1 
  -6  -2  -2 206.788 5.66071   2 
  -6  -2  -2 213.313 5.95568   5 
   6   2   2 220.338 6.06548   3 
   6   2   2 212.776 6.00802   6 
   6   2   2 218.401 6.42928   4 
  -7  -2  -2 7.94754 0.75240   1 
  -7  -2  -2 7.47569 0.76003   5 
   7   2   2 8.52186 1.04675   4 
   7   2   2 7.84037 0.77661   6 
   7   2   2 9.28466 0.85082   3 
  -8  -2  -2 11.7747 0.99890   5 
  -8  -2  -2 11.7303 1.01910   1 
   8   2   2 11.0903 1.00723   3 
   8   2   2 10.8924 0.97942   6 
   8   2   2 9.37599 1.22427   4 
  -9  -2  -2 17.3749 1.30719   5 
  -9  -2  -2 18.9017 1.33823   1 
   9   2   2 20.5087 1.40558   6 
   9   2   2 17.7780 1.42794   3 
   9   2   2 19.8418 1.77744   4 
 -10  -2  -2 143.046 4.63963   1 
 -10  -2  -2 135.783 4.61056   5 
  10   2   2 131.404 5.26114   4 
  10   2   2 137.090 4.69312   6 
  10   2   2 139.345 4.73346   3 
 -11  -2  -2 14.8403 1.38275   1 
 -11  -2  -2 15.3827 1.39508   5 
  11   2   2 17.5768 1.55022   3 
  11   2   2 14.8352 1.47328   6 
  11   2   2 16.5698 1.94530   4 
 -12  -2  -2 34.7351 2.14081   5 
 -12  -2  -2 33.6753 2.15290   1 
  12   2   2 36.9678 2.21394   6 
  12   2   2 31.8127 2.73605   4 
 -13  -2  -2 11.5844 1.44189   1 
 -13  -2  -2 12.3943 1.44376   5 
  13   2   2 13.8870 1.96530   4 
  13   2   2 12.7628 1.51837   6 
  11  -3  -2 26.9736 2.56069   4 
  11  -3  -2 23.9801 1.76698   6 
  11  -3  -2 23.4880 2.16468   3 
 -11   3   2 26.2206 2.09823   5 
  10  -3  -2 17.6884 1.77096   3 
  10  -3  -2 17.6410 2.04549   4 
  10  -3  -2 16.7621 1.40279   6 
 -10   3   2 20.4544 1.79724   5 
   9  -3  -2 39.3325 2.67184   4 
   9  -3  -2 37.9211 1.96880   6 
   9  -3  -2 37.8846 2.32950   3 
  -9   3   2 35.4936 2.19702   5 
   8  -3  -2 16.9738 1.58274   3 
   8  -3  -2 19.8406 1.85653   4 
   8  -3  -2 17.0509 1.25911   6 
  -8   3   2 15.4797 1.36196   5 
   7  -3  -2 224.629 6.48415   6 
   7  -3  -2 224.749 6.84332   3 
   7  -3  -2 228.269 7.28281   4 
  -7   3   2 218.525 6.24027   1 
  -7   3   2 215.094 6.73845   5 
   6  -3  -2 82.2161 3.17280   3 
   6  -3  -2 88.1318 3.54345   4 
   6  -3  -2 84.4092 2.87527   6 
  -6   3   2 85.7688 2.70261   1 
  -6   3   2 81.1111 3.11531   5 
   5  -3  -2 927.365 24.9694   3 
   5  -3  -2 986.753 24.6876   6 
   5  -3  -2 947.601 25.3290   4 
  -5   3   2 971.753 24.4915   1 
  -5   3   2 979.458 24.9757   5 
   4  -3  -2 244.944 7.24477   4 
   4  -3  -2 252.756 6.66496   6 
   4  -3  -2 247.635 6.67517   6 
   4  -3  -2 239.024 6.97497   3 
  -4   3   2 246.032 6.92294   5 
  -4   3   2 247.111 6.51748   1 
   3  -3  -2 517.412 13.1818   2 
   3  -3  -2 515.486 13.5914   3 
   3  -3  -2 526.498 13.2525   6 
   3  -3  -2 518.158 13.2683   6 
   3  -3  -2 502.889 13.7640   4 
  -3   3   2 511.953 13.1347   1 
  -3   3   2 512.762 13.4972   5 
   2  -3  -2 387.858 10.6560   4 
   2  -3  -2 404.978 10.2268   6 
   2  -3  -2 390.265 10.2292   2 
   2  -3  -2 387.236 10.5007   3 
   2  -3  -2 402.859 10.2035   6 
  -2   3   2 399.820 10.4309   5 
  -2   3   2 404.376 10.1264   1 
   1  -3  -2 783.538 19.1920   6 
   1  -3  -2 766.910 19.1486   6 
   1  -3  -2 746.306 19.2411   2 
   1  -3  -2 754.636 19.4358   3 
   1  -3  -2 737.620 19.5324   4 
  -1   3   2 761.625 19.3171   5 
  -1   3   2 753.954 19.2106   1 
   0  -3  -2 48.7339 1.37844   1 
   0  -3  -2 51.4642 1.48757   6 
   0  -3  -2 47.3621 1.45095   6 
   0  -3  -2 52.6608 1.60853   2 
   0  -3  -2 47.8747 1.68608   3 
   0   3   2 52.3844 1.79595   4 
   0   3   2 51.7128 1.54522   5 
  -1  -3  -2 547.251 13.6855   6 
  -1  -3  -2 524.977 13.6987   6 
  -1  -3  -2 530.105 13.8600   3 
  -1  -3  -2 521.598 13.7910   2 
  -1  -3  -2 544.737 13.7060   1 
   1   3   2 551.941 13.7038   5 
   1   3   2 564.314 13.9642   4 
   1   3   2 527.714 13.6732   6 
  -2  -3  -2 11.2471 0.64564   2 
  -2  -3  -2 13.6730 0.62144   1 
  -2  -3  -2 13.1473 0.62519   6 
  -2  -3  -2 12.5930 0.70118   3 
   2   3   2 13.2467 0.59500   6 
   2   3   2 13.7254 0.86951   4 
   2   3   2 12.1160 0.70804   3 
   2   3   2 12.2537 0.42269   5 
  -3  -3  -2 204.144 5.68869   6 
  -3  -3  -2 213.969 5.69367   1 
  -3  -3  -2 209.937 5.71139   2 
   3   3   2 212.949 5.80025   3 
   3   3   2 229.563 5.97660   4 
   3   3   2 212.075 5.68336   6 
   3   3   2 213.356 5.51771   5 
  -4  -3  -2 111.215 3.32590   1 
  -4  -3  -2 109.154 3.32093   6 
  -4  -3  -2 112.774 3.28146   2 
  -4  -3  -2 116.831 3.15966   5 
   4   3   2 117.110 3.44012   3 
   4   3   2 120.985 3.17766   5 
   4   3   2 120.437 3.63175   4 
   4   3   2 114.967 3.32498   6 
  -5  -3  -2 491.355 12.6417   5 
  -5  -3  -2 493.940 12.8182   6 
  -5  -3  -2 486.339 12.7989   1 
  -5  -3  -2 476.498 12.6607   2 
   5   3   2 479.105 12.7879   6 
   5   3   2 496.826 12.9091   3 
   5   3   2 511.782 13.1593   4 
  -6  -3  -2 342.014 9.22212   2 
  -6  -3  -2 343.880 9.45506   6 
  -6  -3  -2 349.264 9.31445   5 
  -6  -3  -2 331.805 9.42641   1 
   6   3   2 373.009 9.88897   4 
   6   3   2 364.020 9.57941   3 
   6   3   2 363.757 9.49061   6 
  -7  -3  -2 365.637 9.89251   1 
  -7  -3  -2 357.290 9.88701   6 
  -7  -3  -2 364.993 9.56069   2 
  -7  -3  -2 364.497 9.75831   5 
   7   3   2 364.026 9.97578   3 
   7   3   2 366.080 9.92230   6 
   7   3   2 368.036 10.3256   4 
  -8  -3  -2 11.8119 1.04107   1 
  -8  -3  -2 13.2587 1.04330   5 
   8   3   2 13.4940 1.06451   6 
   8   3   2 13.0329 1.23386   3 
   8   3   2 13.2475 1.32682   4 
  -9  -3  -2 92.4746 3.29674   5 
  -9  -3  -2 97.4482 3.44653   1 
   9   3   2 101.236 3.58685   3 
   9   3   2 98.1336 3.49797   6 
   9   3   2 93.3286 3.87988   4 
 -10  -3  -2 3.99399 0.83708   5 
 -10  -3  -2 4.31706 0.85205   1 
  10   3   2 3.98504 0.97153   3 
  10   3   2 3.74977 0.90996   6 
  10   3   2 3.75939 1.14994   4 
 -11  -3  -2 105.944 3.96071   5 
 -11  -3  -2 111.532 4.07999   1 
  11   3   2 111.375 4.22894   3 
  11   3   2 113.946 4.22883   6 
  11   3   2 110.124 4.72794   4 
 -12  -3  -2 25.6630 1.89495   1 
 -12  -3  -2 24.6261 1.84846   5 
  12   3   2 25.4660 2.42677   4 
 -13  -3  -2 41.3186 2.46419   1 
  13   3   2 43.0577 3.13849   4 
  11  -4  -2 4.14800 1.19403   3 
  10  -4  -2 54.1166 3.43183   4 
  10  -4  -2 55.6272 2.54088   6 
  10  -4  -2 52.8325 2.97094   3 
 -10   4   2 54.4313 2.94700   5 
   9  -4  -2 38.7508 2.40682   3 
   9  -4  -2 38.2290 1.98128   6 
   9  -4  -2 37.5286 2.72656   4 
  -9   4   2 40.4998 2.36524   5 
   8  -4  -2 51.8101 2.24973   6 
   8  -4  -2 50.5198 2.99259   4 
   8  -4  -2 52.3080 2.64838   3 
  -8   4   2 52.5137 2.59403   5 
   7  -4  -2 14.1460 1.07382   6 
   7  -4  -2 12.1539 1.49983   4 
   7  -4  -2 14.9351 1.35089   3 
  -7   4   2 12.9795 1.21689   5 
   6  -4  -2 317.174 9.26054   3 
   6  -4  -2 319.689 9.70800   4 
   6  -4  -2 325.454 8.81695   6 
  -6   4   2 320.739 8.64356   1 
  -6   4   2 324.749 9.24039   5 
   5  -4  -2 193.358 6.32179   4 
   5  -4  -2 194.323 5.97275   3 
   5  -4  -2 196.189 5.55685   6 
  -5   4   2 198.028 5.41855   1 
  -5   4   2 199.370 5.93419   5 
   4  -4  -2 323.074 8.43248   6 
   4  -4  -2 320.305 8.42670   6 
   4  -4  -2 317.499 8.88061   3 
   4  -4  -2 312.516 9.14087   4 
   4  -4  -2 307.978 8.29834   2 
  -4   4   2 319.372 8.78355   5 
  -4   4   2 315.799 8.31782   1 
   3  -4  -2 1.19496 0.48614   3 
   3  -4  -2 0.66668 0.26225   6 
   3  -4  -2 1.03011 0.49834   4 
   3  -4  -2 1.24208 0.31596   2 
   3  -4  -2 1.04923 0.24741   6 
  -3   4   2 1.55246 0.26067   1 
  -3   4   2 0.91661 0.40385   5 
   2  -4  -2 579.657 15.3287   3 
   2  -4  -2 590.467 14.9145   6 
   2  -4  -2 570.109 15.4857   4 
   2  -4  -2 578.943 15.0204   2 
   2  -4  -2 593.973 14.9024   6 
  -2   4   2 583.111 15.1850   5 
  -2   4   2 595.771 14.8742   1 
   1  -4  -2 35.8685 1.12163   6 
   1  -4  -2 33.6816 1.28725   2 
   1  -4  -2 33.9901 1.47815   3 
   1  -4  -2 33.5634 1.56273   4 
   1  -4  -2 32.7888 1.06162   1 
   1  -4  -2 37.0988 1.15657   6 
  -1   4   2 36.4096 1.39319   5 
  -1   4   2 34.5506 1.08776   1 
   0  -4  -2 1048.39 26.6048   2 
   0  -4  -2 1026.85 26.4058   1 
   0  -4  -2 1089.72 26.4432   6 
   0  -4  -2 1062.36 26.7477   3 
   0  -4  -2 1015.20 26.3778   6 
   0   4   2 1050.84 26.5241   5 
   0   4   2 1045.04 26.8415   4 
  -1  -4  -2 126.213 3.34659   1 
  -1  -4  -2 121.830 3.53191   2 
  -1  -4  -2 123.489 3.61333   3 
  -1  -4  -2 120.924 3.34258   6 
  -1  -4  -2 124.771 3.33673   6 
   1   4   2 126.170 3.68405   4 
   1   4   2 122.265 3.32046   5 
  -2  -4  -2 13.2930 0.80430   3 
  -2  -4  -2 12.7054 0.67931   1 
  -2  -4  -2 12.5615 0.63912   6 
  -2  -4  -2 14.7568 0.61709   6 
  -2  -4  -2 12.7814 0.75192   2 
   2   4   2 12.0796 0.80282   3 
   2   4   2 13.8328 0.94628   4 
   2   4   2 13.0222 0.60035   6 
  -3  -4  -2 2.17787 0.34814   2 
  -3  -4  -2 2.22326 0.31183   6 
  -3  -4  -2 2.48313 0.35593   1 
   3   4   2 2.47534 0.42820   3 
   3   4   2 2.06288 0.44367   4 
   3   4   2 2.31060 0.29672   6 
  -4  -4  -2 60.7353 1.97930   6 
  -4  -4  -2 60.5877 1.69077   5 
  -4  -4  -2 58.6898 1.99001   1 
  -4  -4  -2 57.4666 1.97322   2 
   4   4   2 59.6955 2.11959   3 
   4   4   2 62.6469 2.23322   4 
   4   4   2 61.1141 1.96126   6 
  -5  -4  -2 32.2406 1.12675   5 
  -5  -4  -2 29.4597 1.31276   6 
  -5  -4  -2 32.0272 1.31444   2 
  -5  -4  -2 29.6938 1.33570   1 
   5   4   2 32.1804 1.32797   6 
   5   4   2 34.3763 1.52078   3 
   5   4   2 33.0118 1.60934   4 
  -6  -4  -2 309.144 8.69032   1 
  -6  -4  -2 311.769 8.54680   2 
  -6  -4  -2 318.887 8.44065   5 
  -6  -4  -2 325.531 8.71252   6 
   6   4   2 327.576 8.70889   6 
   6   4   2 323.558 8.85155   3 
   6   4   2 329.644 9.03898   4 
  -7  -4  -2 174.323 5.19729   1 
  -7  -4  -2 175.049 4.95502   5 
  -7  -4  -2 179.397 4.99037   2 
  -7  -4  -2 169.258 5.16258   6 
   7   4   2 177.019 5.34927   3 
   7   4   2 178.739 5.56340   4 
   7   4   2 174.545 5.20602   6 
  -8  -4  -2 207.912 5.62250   2 
  -8  -4  -2 197.227 5.70546   5 
  -8  -4  -2 196.414 5.92264   1 
   8   4   2 198.640 5.96999   6 
   8   4   2 199.784 6.33780   4 
   8   4   2 199.517 6.08023   3 
  -9  -4  -2 47.3246 1.99992   5 
  -9  -4  -2 46.8221 2.15953   1 
   9   4   2 47.2129 2.52332   4 
   9   4   2 47.8768 2.19482   6 
   9   4   2 44.0799 2.26912   3 
 -10  -4  -2 85.2465 3.08180   5 
 -10  -4  -2 82.6616 3.21866   1 
  10   4   2 86.2595 3.75875   4 
  10   4   2 85.8288 3.32769   6 
  10   4   2 78.3875 3.33827   3 
 -11  -4  -2 0.21837 0.69485   5 
 -11  -4  -2 1.15377 0.77489   1 
  11   4   2 2.00715 1.13000   4 
  11   4   2 2.38122 0.93991   3 
 -12  -4  -2 69.0168 3.13780   1 
  12   4   2 69.3213 3.32384   3 
  12   4   2 67.4319 3.70876   4 
 -13  -4  -2 0.34796 0.86510   1 
  13   4   2 -0.3500 1.24448   4 
  10  -5  -2 1.82091 1.02303   3 
  10  -5  -2 1.71591 1.16734   4 
  10  -5  -2 0.36401 0.68617   6 
 -10   5   2 1.54996 0.86823   5 
   9  -5  -2 154.844 6.24838   4 
   9  -5  -2 149.657 4.98602   6 
   9  -5  -2 160.497 5.67508   3 
  -9   5   2 156.510 5.64098   5 
   8  -5  -2 4.38136 0.75037   6 
   8  -5  -2 4.56310 1.28306   4 
   8  -5  -2 5.18678 1.09344   3 
  -8   5   2 3.15657 0.91910   5 
   7  -5  -2 94.0109 3.75137   3 
   7  -5  -2 93.9172 4.16252   4 
   7  -5  -2 90.9283 3.15998   6 
  -7   5   2 94.1950 3.67809   5 
   6  -5  -2 84.4315 3.72141   4 
   6  -5  -2 80.8751 2.77960   6 
   6  -5  -2 83.5120 3.36235   3 
  -6   5   2 82.0326 3.25903   5 
   5  -5  -2 211.375 6.70526   3 
   5  -5  -2 223.080 6.16155   6 
   5  -5  -2 226.282 7.14611   4 
  -5   5   2 224.830 6.66291   5 
   4  -5  -2 97.0333 3.01812   2 
   4  -5  -2 100.440 3.00951   6 
   4  -5  -2 98.0008 3.57801   3 
   4  -5  -2 100.372 3.81923   4 
  -4   5   2 101.081 3.45638   5 
  -4   5   2 103.464 2.99996   1 
   3  -5  -2 377.297 9.96192   6 
   3  -5  -2 392.119 9.99381   6 
   3  -5  -2 381.325 10.1056   2 
   3  -5  -2 387.829 10.5594   3 
   3  -5  -2 368.779 10.7531   4 
  -3   5   2 381.938 10.3872   5 
  -3   5   2 392.667 9.98834   1 
   2  -5  -2 0.47176 0.21655   6 
   2  -5  -2 0.63281 0.45645   3 
   2  -5  -2 0.97482 0.20755   6 
   2  -5  -2 0.42898 0.34157   2 
   2  -5  -2 1.03835 0.51119   4 
  -2   5   2 0.62713 0.24034   1 
  -2   5   2 0.96709 0.37325   5 
   1  -5  -2 425.136 10.5714   6 
   1  -5  -2 405.466 11.2098   4 
   1  -5  -2 424.891 10.5937   6 
   1  -5  -2 400.041 10.5689   1 
   1  -5  -2 411.657 10.8498   2 
   1  -5  -2 413.829 11.0921   3 
  -1   5   2 413.775 10.8558   5 
  -1   5   2 407.398 11.2316   4 
   0  -5  -2 14.7354 0.63080   6 
   0  -5  -2 15.8305 0.66813   6 
   0  -5  -2 14.3810 0.93147   2 
   0  -5  -2 16.1904 1.02776   3 
   0  -5  -2 15.8937 0.68369   1 
   0   5   2 14.6412 1.05363   4 
   0   5   2 16.4791 0.79603   5 
  -1  -5  -2 546.853 13.7466   6 
  -1  -5  -2 550.684 14.1399   3 
  -1  -5  -2 547.254 13.7697   1 
  -1  -5  -2 516.631 13.9932   2 
  -1  -5  -2 531.980 13.7094   6 
   1   5   2 537.537 14.1778   4 
   1   5   2 542.446 13.7689   5 
  -2  -5  -2 0.49221 0.25342   1 
  -2  -5  -2 -0.0238 0.27292   3 
  -2  -5  -2 0.35799 0.19934   6 
  -2  -5  -2 0.43904 0.18581   6 
  -2  -5  -2 -0.0450 0.16006   6 
  -2  -5  -2 0.08000 0.33119   2 
   2   5   2 -0.0353 0.11965   5 
   2   5   2 0.06309 0.34984   4 
  -3  -5  -2 654.228 16.7350   6 
  -3  -5  -2 639.529 16.7668   6 
  -3  -5  -2 664.370 16.8599   1 
  -3  -5  -2 633.066 16.9360   2 
   3   5   2 660.946 16.7386   6 
   3   5   2 668.057 17.0576   3 
   3   5   2 669.021 17.0767   4 
  -4  -5  -2 38.8330 1.47409   6 
  -4  -5  -2 41.8856 1.57548   1 
  -4  -5  -2 37.4650 1.54531   2 
   4   5   2 39.7939 1.45106   6 
   4   5   2 40.5228 1.73954   4 
   4   5   2 43.5381 1.74959   3 
  -5  -5  -2 521.073 14.1638   2 
  -5  -5  -2 518.709 14.1860   1 
  -5  -5  -2 564.784 13.8190   5 
  -5  -5  -2 535.987 14.1445   6 
   5   5   2 571.568 14.4936   4 
   5   5   2 530.723 14.3726   3 
   5   5   2 560.047 14.1654   6 
  -6  -5  -2 111.992 3.09454   5 
  -6  -5  -2 105.881 3.47381   1 
  -6  -5  -2 109.076 3.43032   6 
  -6  -5  -2 103.544 3.37849   2 
   6   5   2 112.978 3.67176   3 
   6   5   2 108.280 3.41273   6 
   6   5   2 112.471 3.73559   4 
  -7  -5  -2 527.707 13.8091   2 
  -7  -5  -2 500.773 13.9342   1 
  -7  -5  -2 512.299 13.8988   6 
  -7  -5  -2 536.652 13.5858   5 
   7   5   2 533.937 14.1542   3 
   7   5   2 540.367 14.3058   4 
   7   5   2 519.991 13.9329   6 
  -8  -5  -2 151.880 4.54322   2 
  -8  -5  -2 152.120 4.74721   6 
  -8  -5  -2 149.828 4.77310   1 
   8   5   2 148.289 4.92072   3 
   8   5   2 155.274 4.79016   6 
   8   5   2 154.082 5.11753   4 
  -9  -5  -2 192.123 5.89200   1 
  -9  -5  -2 192.908 5.54423   5 
   9   5   2 185.728 6.01241   3 
   9   5   2 192.661 6.25074   4 
 -10  -5  -2 2.29850 0.78408   1 
  10   5   2 -0.3332 0.72544   3 
  10   5   2 2.72076 1.02002   4 
 -11  -5  -2 104.830 3.94732   1 
  11   5   2 104.511 4.10779   3 
  11   5   2 98.1909 4.29353   4 
 -12  -5  -2 2.92891 0.93728   1 
  12   5   2 3.84419 1.17018   3 
  12   5   2 4.75461 1.31445   4 
 -13  -5  -2 49.2367 2.77929   1 
  13   5   2 53.6931 3.01323   3 
  13   5   2 52.9406 3.38263   4 
  14   5   2 2.92841 1.34337   4 
   9  -6  -2 -0.6760 0.96982   4 
   9  -6  -2 -0.7156 0.53831   6 
   9  -6  -2 -0.7823 0.81310   3 
  -9   6   2 0.34157 0.74924   5 
   8  -6  -2 65.6415 2.54235   6 
   8  -6  -2 63.6095 3.24315   3 
   8  -6  -2 68.4911 3.71310   4 
  -8   6   2 63.3439 3.11063   5 
   7  -6  -2 -0.1885 0.76344   3 
   7  -6  -2 -0.2662 0.40855   6 
   7  -6  -2 -1.0375 0.77416   4 
  -7   6   2 -0.0868 0.68678   5 
   6  -6  -2 118.920 4.83556   4 
   6  -6  -2 124.720 4.52109   3 
   6  -6  -2 122.947 3.78269   6 
  -6   6   2 122.949 4.40763   5 
   5  -6  -2 63.4503 2.82971   3 
   5  -6  -2 61.5776 3.07558   4 
   5  -6  -2 63.3275 2.16725   6 
  -5   6   2 61.6100 2.68869   5 
   4  -6  -2 69.5536 3.12154   4 
   4  -6  -2 66.4894 2.87875   3 
   4  -6  -2 70.9193 2.23848   6 
  -4   6   2 71.1686 2.78433   5 
   3  -6  -2 9.64386 1.07356   4 
   3  -6  -2 7.90754 0.98650   3 
   3  -6  -2 9.14334 0.66135   6 
   3  -6  -2 7.26330 0.54994   6 
   3  -6  -2 7.75504 0.70654   2 
  -3   6   2 8.96969 0.87225   5 
  -3   6   2 7.84926 0.63212   1 
   2  -6  -2 541.045 14.4300   2 
   2  -6  -2 541.149 14.7757   3 
   2  -6  -2 562.939 14.1118   6 
   2  -6  -2 533.815 14.9557   4 
   2  -6  -2 564.013 14.1058   6 
  -2   6   2 557.232 14.5650   5 
  -2   6   2 559.794 14.2021   1 
   1  -6  -2 12.3089 0.66812   1 
   1  -6  -2 11.8694 1.13932   4 
   1  -6  -2 13.4182 0.61361   6 
   1  -6  -2 13.0970 0.62215   6 
   1  -6  -2 10.6187 0.90948   2 
   1  -6  -2 11.8616 1.03302   3 
  -1   6   2 12.0917 0.88133   5 
  -1   6   2 12.9732 1.17413   4 
   0  -6  -2 57.7937 2.08291   2 
   0  -6  -2 56.8979 1.67549   6 
   0  -6  -2 58.3216 1.77821   1 
   0  -6  -2 56.4825 1.69957   6 
   0  -6  -2 57.0868 2.21255   3 
   0   6   2 55.4878 2.29281   4 
   0   6   2 56.6251 1.91737   5 
  -1  -6  -2 36.6642 1.20098   6 
  -1  -6  -2 34.0546 1.59401   3 
  -1  -6  -2 35.0875 1.27683   1 
  -1  -6  -2 36.3096 1.17751   6 
  -1  -6  -2 34.4841 1.50798   2 
   1   6   2 35.8046 1.27433   5 
   1   6   2 36.3953 1.68726   4 
  -2  -6  -2 705.132 18.0074   2 
  -2  -6  -2 669.565 17.6306   6 
  -2  -6  -2 713.930 17.6939   6 
  -2  -6  -2 685.833 18.0917   3 
  -2  -6  -2 691.380 17.7568   1 
  -2  -6  -2 694.266 17.6487   6 
   2   6   2 696.991 17.5958   5 
   2   6   2 694.586 18.0964   4 
  -3  -6  -2 16.1914 0.89367   1 
  -3  -6  -2 16.3222 1.04003   2 
  -3  -6  -2 16.3074 0.77075   6 
  -3  -6  -2 15.1417 0.80098   6 
   3   6   2 14.4390 1.10448   4 
   3   6   2 15.3852 1.11255   3 
  -4  -6  -2 521.354 13.8052   6 
  -4  -6  -2 533.398 14.0241   2 
  -4  -6  -2 537.095 13.9249   1 
  -4  -6  -2 515.879 13.7617   6 
   4   6   2 535.534 13.7911   6 
   4   6   2 545.235 14.1360   4 
   4   6   2 541.326 14.1720   3 
  -5  -6  -2 2.80960 0.54740   2 
  -5  -6  -2 4.21294 0.52046   6 
  -5  -6  -2 4.27314 0.61009   1 
   5   6   2 4.04295 0.48812   6 
   5   6   2 2.75188 0.64161   4 
   5   6   2 3.41118 0.66671   3 
  -6  -6  -2 314.223 8.80708   2 
  -6  -6  -2 313.582 8.75732   6 
  -6  -6  -2 316.689 8.85824   1 
  -6  -6  -2 327.365 8.27291   5 
   6   6   2 343.211 9.13588   4 
   6   6   2 317.862 9.04148   3 
  -7  -6  -2 171.165 5.13246   2 
  -7  -6  -2 169.919 5.21432   1 
  -7  -6  -2 168.562 5.12579   6 
   7   6   2 172.671 5.42239   3 
   7   6   2 178.222 5.49820   4 
  -8  -6  -2 202.967 6.35761   1 
  -8  -6  -2 221.259 6.27000   2 
  -8  -6  -2 221.443 6.37074   6 
   8   6   2 219.931 6.70399   4 
   8   6   2 207.565 6.55189   3 
  -9  -6  -2 11.6079 0.98161   2 
  -9  -6  -2 12.9199 1.10432   6 
  -9  -6  -2 12.7909 1.16775   1 
   9   6   2 13.4301 1.40845   4 
   9   6   2 11.3279 1.27272   3 
 -10  -6  -2 44.2841 2.25368   1 
  10   6   2 46.4029 2.46930   3 
  10   6   2 46.9792 2.64234   4 
 -11  -6  -2 2.33622 0.86035   1 
  11   6   2 1.63195 0.97046   3 
  11   6   2 2.37352 1.07777   4 
 -12  -6  -2 30.2995 2.06230   1 
  12   6   2 34.2396 2.52973   4 
  12   6   2 32.3228 2.28727   3 
 -13  -6  -2 -0.5052 0.84207   1 
  13   6   2 1.51200 1.15635   4 
  13   6   2 -0.5204 0.94341   3 
   8  -7  -2 6.33399 0.77664   6 
   8  -7  -2 5.90923 1.20917   3 
   8  -7  -2 4.63007 1.34590   4 
  -8   7   2 8.78612 1.29422   5 
   7  -7  -2 92.1471 4.33003   4 
   7  -7  -2 90.7938 3.89448   3 
   7  -7  -2 85.5672 2.98400   6 
  -7   7   2 88.3699 3.75847   5 
   6  -7  -2 -1.1287 0.64906   3 
   6  -7  -2 0.30338 0.86384   4 
   6  -7  -2 0.41845 0.38979   6 
  -6   7   2 0.62719 0.69542   5 
   5  -7  -2 17.7220 1.58560   3 
   5  -7  -2 18.6132 1.78893   4 
   5  -7  -2 21.0787 1.06184   6 
  -5   7   2 21.2671 1.59868   5 
   4  -7  -2 133.982 5.01278   4 
   4  -7  -2 136.247 4.76040   3 
   4  -7  -2 139.544 3.92669   6 
  -4   7   2 139.063 4.61861   5 
   3  -7  -2 83.9989 3.28870   3 
   3  -7  -2 82.4821 3.47330   4 
   3  -7  -2 84.2733 2.89599   2 
   3  -7  -2 82.3909 2.49077   6 
  -3   7   2 84.3265 3.10920   5 
   2  -7  -2 42.1688 1.38268   6 
   2  -7  -2 42.0738 1.79779   2 
   2  -7  -2 38.2066 2.00200   3 
   2  -7  -2 37.8533 2.12893   4 
   2  -7  -2 39.3294 1.36303   6 
  -2   7   2 42.4138 1.55128   1 
  -2   7   2 41.6723 1.86291   5 
   1  -7  -2 829.902 21.2436   2 
   1  -7  -2 842.974 20.6960   6 
   1  -7  -2 822.205 21.6607   4 
   1  -7  -2 816.144 20.7072   6 
   1  -7  -2 804.179 20.8212   1 
   1  -7  -2 785.558 21.4344   3 
  -1   7   2 842.906 21.1775   5 
  -1   7   2 794.195 21.6309   4 
   0  -7  -2 36.5776 1.77504   3 
   0  -7  -2 38.6867 1.19693   6 
   0  -7  -2 35.5115 1.20213   6 
   0  -7  -2 35.5453 1.65171   2 
   0  -7  -2 35.6369 1.33207   1 
   0   7   2 34.4857 1.87041   4 
   0   7   2 36.0769 1.49389   5 
  -1  -7  -2 498.404 13.7050   3 
  -1  -7  -2 514.914 13.1143   6 
  -1  -7  -2 506.415 13.0746   6 
  -1  -7  -2 516.317 13.6215   2 
  -1  -7  -2 515.379 13.2354   1 
   1   7   2 510.110 13.7949   4 
   1   7   2 523.236 13.2626   5 
  -2  -7  -2 357.109 9.06696   6 
  -2  -7  -2 335.671 9.58835   3 
  -2  -7  -2 346.605 9.52409   2 
  -2  -7  -2 343.891 9.19547   1 
  -2  -7  -2 355.236 9.08961   6 
   2   7   2 346.667 9.02964   5 
   2   7   2 352.925 9.64000   4 
  -3  -7  -2 302.174 8.06654   6 
  -3  -7  -2 309.267 8.59206   3 
  -3  -7  -2 292.073 8.44400   2 
  -3  -7  -2 318.603 8.11361   6 
  -3  -7  -2 307.546 8.23514   1 
   3   7   2 307.646 8.54238   4 
   3   7   2 306.314 8.58989   3 
  -4  -7  -2 19.2288 1.00059   6 
  -4  -7  -2 17.7476 1.23734   2 
  -4  -7  -2 20.5566 0.95521   6 
  -4  -7  -2 20.0016 1.12804   1 
   4   7   2 18.4838 1.30251   4 
   4   7   2 22.5539 1.41074   3 
  -5  -7  -2 346.493 9.70420   2 
  -5  -7  -2 348.141 9.47138   6 
  -5  -7  -2 359.204 9.62904   1 
   5   7   2 355.571 9.89155   3 
   5   7   2 362.889 9.83082   4 
  -6  -7  -2 1.92320 0.47686   6 
  -6  -7  -2 0.41053 0.51736   1 
  -6  -7  -2 0.05733 0.54013   2 
   6   7   2 0.74542 0.57101   3 
   6   7   2 1.40552 0.62307   4 
  -7  -7  -2 225.409 6.66849   1 
  -7  -7  -2 222.686 6.53710   6 
  -7  -7  -2 231.454 6.67389   2 
   7   7   2 233.115 6.88272   4 
   7   7   2 227.223 6.89592   3 
  -8  -7  -2 215.554 6.28843   2 
  -8  -7  -2 207.837 6.35392   1 
  -8  -7  -2 213.175 6.26745   6 
   8   7   2 212.056 6.56856   4 
   8   7   2 204.291 6.53696   3 
  -9  -7  -2 45.4869 2.14672   2 
  -9  -7  -2 50.5771 2.27104   6 
  -9  -7  -2 44.9522 2.27637   1 
   9   7   2 50.8932 2.51059   3 
   9   7   2 49.2480 2.52163   4 
 -10  -7  -2 20.1357 1.60007   1 
  10   7   2 18.2439 1.71099   3 
  10   7   2 20.1496 1.85388   4 
 -11  -7  -2 25.1707 1.80115   1 
  11   7   2 23.7471 1.96409   3 
  11   7   2 29.7810 2.14864   4 
 -12  -7  -2 1.41921 0.85762   1 
  12   7   2 0.45087 1.03767   4 
  12   7   2 0.15974 0.92797   3 
 -13  -7  -2 30.2864 2.16684   1 
  13   7   2 25.9384 2.28354   3 
  14   7   2 -0.6946 0.97840   3 
   7  -8  -2 21.9760 2.25426   4 
   7  -8  -2 26.2982 1.32165   6 
   7  -8  -2 23.5949 2.03573   3 
  -7   8   2 26.2890 2.04498   5 
   6  -8  -2 76.3064 3.93842   4 
   6  -8  -2 80.8221 3.63745   3 
   6  -8  -2 80.4683 2.65586   6 
  -6   8   2 83.4981 3.55358   5 
   5  -8  -2 1.32274 0.95474   4 
   5  -8  -2 1.52102 0.85037   3 
   5  -8  -2 2.06880 0.43981   6 
  -5   8   2 0.47281 0.73884   5 
   4  -8  -2 130.201 3.68135   6 
   4  -8  -2 126.680 4.65326   3 
   4  -8  -2 127.438 4.95598   4 
  -4   8   2 128.230 4.48362   5 
   3  -8  -2 19.7436 1.77789   4 
   3  -8  -2 19.2116 0.91406   6 
   3  -8  -2 18.1112 1.57984   3 
  -3   8   2 19.4205 1.49372   5 
   2  -8  -2 205.739 6.55484   3 
   2  -8  -2 212.843 5.62430   6 
   2  -8  -2 207.265 6.76559   4 
   2  -8  -2 216.363 5.65503   6 
   2  -8  -2 216.122 6.27770   2 
  -2   8   2 215.536 6.33673   5 
  -2   8   2 206.774 6.78163   4 
   1  -8  -2 39.6583 1.27124   6 
   1  -8  -2 36.3000 1.84002   2 
   1  -8  -2 37.1568 2.11891   4 
   1  -8  -2 37.8950 1.26803   6 
   1  -8  -2 39.8010 1.48461   1 
   1  -8  -2 38.6806 1.99723   3 
  -1   8   2 37.9889 2.13512   4 
  -1   8   2 39.0879 1.76733   5 
   0  -8  -2 227.746 6.14083   1 
   0  -8  -2 223.867 5.92699   6 
   0  -8  -2 223.959 6.76025   3 
   0  -8  -2 231.784 6.61879   2 
   0   8   2 213.824 6.83246   4 
   0   8   2 229.802 6.34730   5 
  -1  -8  -2 29.1454 1.26223   1 
  -1  -8  -2 27.0452 1.60289   2 
  -1  -8  -2 28.6408 1.06376   6 
  -1  -8  -2 28.8313 1.07857   6 
  -1  -8  -2 28.8375 1.64899   3 
   1   8   2 31.2536 1.32097   5 
   1   8   2 29.4312 1.74726   4 
  -2  -8  -2 1035.27 27.5789   3 
  -2  -8  -2 1077.58 27.5198   2 
  -2  -8  -2 1075.42 26.9365   6 
  -2  -8  -2 1076.34 27.1114   1 
  -2  -8  -2 1066.80 26.9025   6 
   2   8   2 1068.73 26.9542   5 
   2   8   2 1041.56 27.5828   4 
  -3  -8  -2 87.8712 2.81878   1 
  -3  -8  -2 82.1045 3.07609   2 
  -3  -8  -2 89.3186 2.64847   6 
  -3  -8  -2 86.3921 3.17997   3 
  -3  -8  -2 88.2428 2.61484   6 
  -3  -8  -2 83.7768 2.58507   6 
   3   8   2 84.7948 3.14082   4 
   3   8   2 86.2226 3.18548   3 
  -4  -8  -2 363.762 10.1681   2 
  -4  -8  -2 371.788 9.74779   6 
  -4  -8  -2 369.844 9.91919   1 
   4   8   2 359.757 10.1502   4 
   4   8   2 372.033 10.3137   3 
  -5  -8  -2 5.44192 0.68856   1 
  -5  -8  -2 5.47451 0.79163   2 
  -5  -8  -2 4.58719 0.56752   6 
   5   8   2 4.13283 0.81216   3 
   5   8   2 4.74985 0.81202   4 
  -6  -8  -2 67.2255 2.41279   6 
  -6  -8  -2 64.6750 2.64439   2 
  -6  -8  -2 68.4813 2.55843   1 
   6   8   2 67.9622 2.70984   4 
   6   8   2 66.0221 2.79691   3 
  -7  -8  -2 2.97182 0.60660   6 
  -7  -8  -2 3.49408 0.72235   1 
  -7  -8  -2 2.75639 0.74607   2 
   7   8   2 2.76436 0.80279   4 
   7   8   2 2.19535 0.77918   3 
  -8  -8  -2 74.9582 2.78180   6 
  -8  -8  -2 69.1163 2.81476   1 
  -8  -8  -2 68.3902 2.81178   2 
   8   8   2 75.0865 3.07876   4 
   8   8   2 67.6192 3.02904   3 
  -9  -8  -2 -0.3145 0.63786   1 
  -9  -8  -2 -0.1037 0.62276   2 
  -9  -8  -2 1.22244 0.68075   6 
   9   8   2 0.66517 0.84576   4 
   9   8   2 0.25719 0.79253   3 
 -10  -8  -2 117.893 3.92497   2 
 -10  -8  -2 102.403 3.97903   1 
 -10  -8  -2 110.240 3.96308   6 
  10   8   2 102.129 4.21542   3 
  10   8   2 109.030 4.25441   4 
 -11  -8  -2 1.29272 0.81495   1 
  11   8   2 0.58801 0.94988   3 
 -12  -8  -2 45.3664 2.53769   1 
  12   8   2 45.8059 2.76594   3 
 -13  -8  -2 -0.5069 0.77258   1 
  13   8   2 0.82461 1.07945   3 
  14   8   2 12.6429 1.73728   3 
   7  -9  -2 34.9598 2.45459   3 
  -7   9   2 37.9963 2.46558   5 
   6  -9  -2 -0.2422 0.36823   6 
   6  -9  -2 -0.1653 0.84023   3 
  -6   9   2 0.63937 0.75602   5 
   5  -9  -2 68.6800 3.63795   4 
   5  -9  -2 68.8569 2.23783   6 
   5  -9  -2 66.4459 3.28737   3 
  -5   9   2 73.7331 3.22913   5 
   4  -9  -2 8.80234 1.37126   4 
   4  -9  -2 6.90744 0.57680   6 
   4  -9  -2 9.76665 1.22413   3 
  -4   9   2 7.82622 1.11249   5 
   3  -9  -2 270.954 8.42943   3 
   3  -9  -2 272.992 8.73322   4 
   3  -9  -2 277.657 7.24739   6 
  -3   9   2 284.072 8.22415   5 
  -3   9   2 271.592 8.74890   4 
   2  -9  -2 12.4474 1.28880   3 
   2  -9  -2 13.1862 0.67960   6 
   2  -9  -2 12.8004 1.14375   2 
   2  -9  -2 10.6952 1.34792   4 
  -2   9   2 11.9537 1.12441   5 
  -2   9   2 13.0789 1.45466   4 
   1  -9  -2 465.593 12.1173   6 
   1  -9  -2 460.239 13.1845   3 
   1  -9  -2 489.463 12.1274   6 
   1  -9  -2 487.333 13.0068   2 
  -1   9   2 456.777 13.3685   4 
  -1   9   2 480.841 12.8152   5 
   0  -9  -2 5.72954 0.88562   3 
   0  -9  -2 6.26569 0.89367   2 
   0  -9  -2 5.29160 0.38609   6 
   0  -9  -2 4.88306 0.55365   1 
   0  -9  -2 5.92951 0.48724   6 
   0   9   2 5.78646 1.01647   4 
   0   9   2 6.10402 0.71069   5 
  -1  -9  -2 305.815 8.71941   2 
  -1  -9  -2 313.585 8.19893   1 
  -1  -9  -2 301.830 7.91592   6 
  -1  -9  -2 295.173 8.78941   3 
  -1  -9  -2 311.335 7.89764   6 
   1   9   2 288.154 8.83157   4 
  -2  -9  -2 63.1453 1.99121   6 
  -2  -9  -2 61.0041 2.66699   3 
  -2  -9  -2 60.9429 2.59764   2 
  -2  -9  -2 63.7021 1.97811   6 
  -2  -9  -2 65.3615 2.23990   1 
   2   9   2 62.4807 2.69501   4 
   2   9   2 62.1330 2.69920   3 
  -3  -9  -2 167.385 4.57158   6 
  -3  -9  -2 163.466 4.77650   1 
  -3  -9  -2 155.989 5.13544   2 
  -3  -9  -2 159.624 5.22859   3 
   3   9   2 160.570 5.24781   3 
   3   9   2 165.422 5.20682   4 
  -4  -9  -2 38.1470 1.67745   1 
  -4  -9  -2 35.3145 1.89859   2 
  -4  -9  -2 33.9428 1.44132   6 
   4   9   2 35.9808 1.92357   4 
   4   9   2 35.6186 1.99647   3 
  -5  -9  -2 153.324 4.60969   1 
  -5  -9  -2 145.546 4.82992   2 
  -5  -9  -2 145.860 4.38984   6 
   5   9   2 148.372 4.96819   3 
   5   9   2 149.856 4.82450   4 
  -6  -9  -2 10.9093 0.97746   1 
  -6  -9  -2 10.5098 1.07895   2 
  -6  -9  -2 9.58874 0.83544   6 
   6   9   2 9.98756 1.14210   3 
   6   9   2 12.1992 1.24342   4 
  -7  -9  -2 67.5379 2.53931   6 
  -7  -9  -2 67.5340 2.69637   1 
  -7  -9  -2 66.3049 2.81038   2 
   7   9   2 67.7171 2.99595   3 
   7   9   2 69.2599 2.86727   4 
  -8  -9  -2 7.39690 0.97909   1 
  -8  -9  -2 6.70401 0.85750   6 
  -8  -9  -2 7.07008 0.99325   2 
   8   9   2 8.24830 1.10508   4 
   8   9   2 6.75977 1.13720   3 
  -9  -9  -2 116.475 4.18810   2 
  -9  -9  -2 122.041 4.11629   6 
  -9  -9  -2 116.375 4.15287   1 
   9   9   2 119.475 4.36020   4 
   9   9   2 110.052 4.38235   3 
 -10  -9  -2 -0.0435 0.71589   1 
 -10  -9  -2 -0.6061 0.59762   6 
 -10  -9  -2 0.13467 0.67492   2 
  10   9   2 0.26257 0.91569   3 
 -11  -9  -2 101.995 3.97942   1 
  11   9   2 98.5618 4.19951   3 
 -12  -9  -2 0.56085 0.85335   1 
  12   9   2 2.03124 1.11624   3 
 -13  -9  -2 41.8672 2.57146   1 
  13   9   2 43.1993 2.80303   3 
   6 -10  -2 46.7547 1.67294   6 
   6 -10  -2 46.1134 2.80726   3 
  -6  10   2 50.9623 2.81882   5 
   5 -10  -2 14.3480 1.60398   3 
   5 -10  -2 13.1642 1.75365   4 
   5 -10  -2 14.8734 0.79579   6 
  -5  10   2 14.1836 1.50839   5 
  -5  10   2 14.0563 1.84611   4 
   4 -10  -2 94.9653 4.05312   3 
   4 -10  -2 96.0017 4.39818   4 
   4 -10  -2 98.0788 2.74881   6 
  -4  10   2 93.8870 3.84896   5 
  -4  10   2 95.4435 4.43530   4 
   3 -10  -2 0.19869 0.66863   3 
   3 -10  -2 -0.2294 0.76137   4 
  -3  10   2 -0.3661 0.75677   4 
  -3  10   2 0.13559 0.65181   5 
   2 -10  -2 87.6493 3.67293   3 
  -2  10   2 84.9698 3.86337   4 
  -2  10   2 91.7377 3.42672   5 
   1 -10  -2 32.0475 1.90525   2 
   1 -10  -2 31.9904 2.01815   3 
  -1  10   2 31.0791 2.14742   4 
   0 -10  -2 257.881 6.59744   6 
   0 -10  -2 255.231 6.60875   6 
   0 -10  -2 248.116 7.74715   3 
   0 -10  -2 260.812 7.63740   2 
   0  10   2 240.695 7.86400   4 
  -1 -10  -2 3.59707 0.37512   6 
  -1 -10  -2 2.67191 0.77053   2 
  -1 -10  -2 1.80013 0.69441   3 
   1  10   2 2.45845 0.87773   4 
  -2 -10  -2 316.635 8.38654   1 
  -2 -10  -2 299.863 8.98486   3 
  -2 -10  -2 312.229 8.05507   6 
  -2 -10  -2 310.988 8.92596   2 
   2  10   2 289.790 8.92911   4 
   2  10   2 298.585 9.01510   3 
  -3 -10  -2 189.983 5.36183   1 
  -3 -10  -2 174.755 5.82302   3 
  -3 -10  -2 184.080 5.82456   2 
  -3 -10  -2 180.756 5.03100   6 
   3  10   2 179.137 5.83046   4 
   3  10   2 176.993 5.86426   3 
  -4 -10  -2 18.6689 1.04165   6 
  -4 -10  -2 18.3305 1.54439   2 
  -4 -10  -2 17.8247 1.23320   1 
   4  10   2 16.9517 1.53854   3 
   4  10   2 18.2563 1.58402   4 
  -5 -10  -2 70.9781 3.02933   2 
  -5 -10  -2 72.9893 2.56021   6 
  -5 -10  -2 75.1296 2.80009   1 
   5  10   2 74.7699 3.17998   3 
   5  10   2 78.2402 3.09420   4 
  -6 -10  -2 0.00205 0.61667   2 
  -6 -10  -2 0.66165 0.45716   6 
  -6 -10  -2 1.28043 0.60944   1 
   6  10   2 0.11732 0.66753   4 
   6  10   2 0.75588 0.77105   3 
  -7 -10  -2 5.31397 0.75202   6 
  -7 -10  -2 5.72705 0.84894   1 
  -7 -10  -2 4.26290 0.91572   2 
   7  10   2 4.26829 0.99586   4 
   7  10   2 7.02748 1.14549   3 
  -8 -10  -2 68.5382 2.84641   1 
  -8 -10  -2 71.8791 2.75179   6 
  -8 -10  -2 69.7482 3.00358   2 
   8  10   2 66.5843 3.15445   3 
  -9 -10  -2 17.8704 1.59125   2 
  -9 -10  -2 16.9421 1.39667   6 
  -9 -10  -2 18.5274 1.53904   1 
   9  10   2 14.6496 1.59917   3 
 -10 -10  -2 71.6066 3.16118   1 
 -10 -10  -2 77.0598 3.12775   6 
 -10 -10  -2 81.0035 3.28388   2 
  10  10   2 66.7593 3.44833   3 
 -11 -10  -2 17.6431 1.53129   6 
 -11 -10  -2 15.9819 1.55821   1 
  11  10   2 16.0478 1.74342   3 
 -12 -10  -2 78.6828 3.62705   1 
  12  10   2 83.8339 3.94092   3 
 -13 -10  -2 -0.6225 0.89712   1 
  13  10   2 -1.4528 1.00382   3 
   5 -11  -2 25.9119 2.09681   3 
   4 -11  -2 43.0859 2.64500   3 
   4 -11  -2 43.2687 2.92598   4 
  -4  11   2 42.4791 2.97347   4 
   3 -11  -2 71.7928 3.40507   3 
  -3  11   2 68.3413 3.63853   4 
   2 -11  -2 6.62806 1.11390   3 
  -2  11   2 5.73597 1.29355   4 
   1 -11  -2 154.205 5.05443   2 
   1 -11  -2 138.757 5.18900   3 
  -1  11   2 141.895 5.41757   4 
   0 -11  -2 0.35667 0.64057   3 
   0 -11  -2 -0.4036 0.64801   2 
   0  11   2 -0.4303 0.72906   4 
  -1 -11  -2 156.335 5.21119   2 
  -1 -11  -2 139.284 5.16914   3 
  -1 -11  -2 157.936 4.11477   6 
   1  11   2 147.875 5.31805   4 
  -2 -11  -2 -0.3685 0.61912   2 
  -2 -11  -2 0.33738 0.28868   6 
  -2 -11  -2 -0.0422 0.55304   3 
   2  11   2 -0.3645 0.78007   4 
   2  11   2 -0.3483 0.67478   3 
  -3 -11  -2 76.5104 2.38964   6 
  -3 -11  -2 73.0996 3.15910   2 
  -3 -11  -2 75.8009 2.71920   1 
   3  11   2 74.1070 3.25923   3 
   3  11   2 68.1917 3.14550   4 
  -4 -11  -2 103.489 3.97198   2 
  -4 -11  -2 101.838 3.52381   1 
  -4 -11  -2 107.667 3.24467   6 
   4  11   2 103.775 4.05229   3 
   4  11   2 99.9543 3.95026   4 
  -5 -11  -2 205.988 6.00968   6 
  -5 -11  -2 214.582 6.75369   2 
  -5 -11  -2 223.277 6.35854   1 
   5  11   2 206.443 6.84293   3 
   5  11   2 207.436 6.66396   4 
  -6 -11  -2 -0.0705 0.41930   6 
  -6 -11  -2 -0.2485 0.56048   1 
  -6 -11  -2 0.04421 0.63801   2 
   6  11   2 -0.9999 0.77964   4 
   6  11   2 -0.6548 0.74713   3 
  -7 -11  -2 148.059 4.86502   1 
  -7 -11  -2 152.999 5.20501   2 
  -7 -11  -2 148.525 4.66810   6 
   7  11   2 144.874 5.31686   3 
  -8 -11  -2 0.64339 0.61331   6 
  -8 -11  -2 0.74965 0.81313   2 
  -8 -11  -2 1.74915 0.78453   1 
   8  11   2 1.42047 0.99171   3 
  -9 -11  -2 57.8585 2.60165   6 
  -9 -11  -2 62.6665 2.94379   2 
  -9 -11  -2 59.7794 2.73891   1 
   9  11   2 56.4211 3.06843   3 
 -10 -11  -2 50.1879 2.65625   2 
 -10 -11  -2 49.6064 2.46566   6 
 -10 -11  -2 50.7526 2.56593   1 
  10  11   2 50.8541 2.91480   3 
 -11 -11  -2 21.0191 1.67646   6 
 -11 -11  -2 19.0805 1.64274   1 
 -11 -11  -2 19.4766 1.75464   2 
  11  11   2 12.2486 1.70051   3 
 -12 -11  -2 0.65431 0.87345   1 
  12  11   2 -0.5613 0.97963   3 
   4 -12  -2 43.9335 2.74361   3 
   3 -12  -2 0.10855 0.61575   3 
  -3  12   2 -0.9795 0.90197   4 
   2 -12  -2 74.8610 3.57764   3 
  -2  12   2 72.2447 3.76303   4 
   1 -12  -2 38.3729 2.38029   3 
  -1  12   2 36.5685 2.56042   4 
   0 -12  -2 83.6003 3.46609   2 
   0 -12  -2 79.4784 3.54316   3 
   0  12   2 74.1822 3.62689   4 
  -1 -12  -2 0.83771 0.62966   3 
  -1 -12  -2 -0.7627 0.60273   2 
   1  12   2 -0.5170 0.78155   3 
   1  12   2 -0.1040 0.82534   4 
  -2 -12  -2 101.885 4.19814   3 
  -2 -12  -2 114.435 4.26116   2 
  -2 -12  -2 111.607 3.10436   6 
   2  12   2 102.109 4.23824   3 
   2  12   2 102.722 4.24965   4 
  -3 -12  -2 57.6757 1.91411   6 
  -3 -12  -2 56.9311 2.80990   2 
   3  12   2 49.6833 2.73973   4 
   3  12   2 53.2126 2.85338   3 
  -4 -12  -2 176.979 5.01991   6 
  -4 -12  -2 185.236 5.46578   1 
  -4 -12  -2 175.279 5.95178   2 
   4  12   2 168.722 5.90399   4 
   4  12   2 166.153 6.01786   3 
  -5 -12  -2 1.11402 0.83473   2 
  -5 -12  -2 -0.0450 0.59009   1 
  -5 -12  -2 -0.3476 0.45166   6 
   5  12   2 0.94304 0.92360   3 
  -6 -12  -2 195.951 5.99129   1 
  -6 -12  -2 182.758 6.34865   2 
  -6 -12  -2 193.295 5.67755   6 
   6  12   2 193.595 6.56835   3 
  -7 -12  -2 1.27073 0.60348   6 
  -7 -12  -2 2.05068 0.81587   1 
  -7 -12  -2 0.94823 0.83898   2 
   7  12   2 1.36448 0.97642   3 
  -8 -12  -2 153.875 5.09549   1 
  -8 -12  -2 151.940 5.41273   2 
  -8 -12  -2 153.788 4.89392   6 
   8  12   2 140.549 5.51790   3 
  -9 -12  -2 -0.2932 0.59221   6 
  -9 -12  -2 0.25783 0.74171   1 
  -9 -12  -2 -0.7269 0.76084   2 
   9  12   2 0.41734 1.03356   3 
 -10 -12  -2 64.6390 3.17751   2 
 -10 -12  -2 65.8842 3.02282   1 
 -10 -12  -2 67.2038 2.91178   6 
  10  12   2 59.2864 3.36459   3 
 -11 -12  -2 11.5458 1.44573   2 
 -11 -12  -2 10.5787 1.29338   6 
 -11 -12  -2 10.5513 1.39030   1 
  11  12   2 11.1284 1.66078   3 
 -12 -12  -2 40.4960 2.49685   1 
  12  12   2 45.1937 2.98470   3 
   2 -13  -2 6.06303 1.17453   3 
  -2  13   2 7.08200 1.43585   4 
   1 -13  -2 35.0839 2.37646   3 
  -1  13   2 32.0021 2.50561   4 
   0 -13  -2 38.3796 2.47378   3 
   0 -13  -2 39.6592 2.37032   2 
   0  13   2 36.7525 2.60832   3 
   0  13   2 35.0871 2.58422   4 
  -1 -13  -2 33.6672 2.15957   2 
  -1 -13  -2 30.0407 2.15461   3 
   1  13   2 30.1980 2.28813   3 
   1  13   2 29.2720 2.31211   4 
  -2 -13  -2 5.36548 1.07269   2 
   2  13   2 5.69521 1.19729   3 
   2  13   2 4.02170 1.15775   4 
  -3 -13  -2 76.0537 3.43906   2 
  -3 -13  -2 75.5908 2.40411   6 
   3  13   2 76.2609 3.60479   3 
  -4 -13  -2 67.6463 3.20195   2 
  -4 -13  -2 64.0490 2.25303   6 
   4  13   2 63.0866 3.25024   3 
  -5 -13  -2 57.1321 2.96349   2 
  -5 -13  -2 61.5357 2.24372   6 
   5  13   2 55.1250 3.08145   3 
  -6 -13  -2 26.7188 2.03611   2 
  -6 -13  -2 23.6386 1.69725   1 
  -6 -13  -2 26.0152 1.45513   6 
   6  13   2 25.8775 2.15715   3 
  -7 -13  -2 67.7486 2.90695   1 
  -7 -13  -2 71.1824 3.28738   2 
  -7 -13  -2 63.7621 2.56866   6 
   7  13   2 59.6910 3.29744   3 
  -8 -13  -2 5.33492 0.98886   1 
  -8 -13  -2 3.98867 0.77571   6 
  -8 -13  -2 2.36429 0.99846   2 
   8  13   2 3.39593 1.23236   3 
  -9 -13  -2 32.6545 2.06190   1 
  -9 -13  -2 36.8332 1.98434   6 
  -9 -13  -2 37.0785 2.43200   2 
   9  13   2 32.9508 2.51809   3 
 -10 -13  -2 1.75757 0.89437   1 
 -10 -13  -2 3.83472 0.92062   6 
 -10 -13  -2 0.91358 0.98777   2 
  10  13   2 4.48220 1.30287   3 
 -11 -13  -2 21.3668 1.71310   6 
 -11 -13  -2 23.0500 1.99313   2 
 -11 -13  -2 21.2920 1.84293   1 
  11  13   2 18.2144 2.07762   3 
 -12 -13  -2 0.32100 0.76323   6 
   0 -14  -2 107.911 4.65225   3 
   0  14   2 108.550 4.76036   3 
  -1 -14  -2 -0.1953 0.78300   2 
  -1 -14  -2 0.13421 0.64720   3 
   1  14   2 -0.6365 0.85992   3 
  -2 -14  -2 90.1333 3.90752   2 
   2  14   2 83.0184 4.03713   3 
  -3 -14  -2 52.2943 2.90433   2 
  -3 -14  -2 51.0429 1.71880   6 
   3  14   2 50.7864 3.02054   3 
  -4 -14  -2 28.8817 1.30922   6 
  -4 -14  -2 22.4228 1.97831   2 
   4  14   2 25.3883 2.23399   3 
  -5 -14  -2 9.71082 1.41645   2 
  -5 -14  -2 10.7478 0.88984   6 
   5  14   2 10.1786 1.52896   3 
  -6 -14  -2 109.674 4.46762   2 
  -6 -14  -2 108.549 3.58247   6 
   6  14   2 101.381 4.58446   3 
  -7 -14  -2 5.43348 0.81375   6 
  -7 -14  -2 4.76721 1.14995   2 
   7  14   2 6.76463 1.40740   3 
  -8 -14  -2 36.2478 2.44117   2 
  -8 -14  -2 33.8620 2.10662   1 
  -8 -14  -2 35.4980 1.87838   6 
   8  14   2 31.5677 2.48994   3 
  -9 -14  -2 2.82701 0.73571   6 
  -9 -14  -2 1.46538 0.82035   1 
  -9 -14  -2 1.89172 0.97240   2 
   9  14   2 2.75375 1.19014   3 
 -10 -14  -2 16.7573 1.42547   6 
 -10 -14  -2 17.3131 1.55822   1 
 -10 -14  -2 15.5579 1.68274   2 
  -4 -15  -2 6.86714 0.62596   6 
  -4 -15  -2 6.57898 1.29119   2 
  -5 -15  -2 4.28697 1.17151   2 
  -5 -15  -2 5.22083 0.66417   6 
   5  15   2 4.02923 1.23987   3 
   6  15   2 6.17613 1.39527   3 
   6  14  -3 3.00314 1.21657   3 
  -6 -14   3 3.44833 0.98762   1 
   5  14  -3 5.31223 1.33111   3 
  -5 -14   3 4.25175 1.02491   1 
  -4 -14   3 13.4074 1.40930   1 
   9  13  -3 1.34981 1.14113   3 
   9  13  -3 1.28416 0.99803   2 
  -9 -13   3 1.56203 0.90617   1 
   8  13  -3 51.1903 3.06729   3 
   8  13  -3 46.4734 2.81316   2 
  -8 -13   3 47.3717 2.17393   6 
  -8 -13   3 44.5292 2.59682   1 
  -8 -13   3 47.3599 2.80873   2 
   7  13  -3 0.08395 0.77857   2 
   7  13  -3 0.42765 1.08171   3 
  -7 -13   3 0.24319 0.49075   6 
  -7 -13   3 -0.4311 0.69167   2 
  -7 -13   3 -1.2036 0.63524   1 
   6  13  -3 70.6153 3.44111   2 
   6  13  -3 72.7909 3.63847   3 
  -6 -13   3 71.5286 3.43242   2 
  -6 -13   3 67.2975 2.48594   6 
  -6 -13   3 66.8609 3.18605   1 
   5  13  -3 -0.6288 0.98601   3 
   5  13  -3 -0.7629 0.76132   2 
  -5 -13   3 -0.3701 0.34346   6 
  -5 -13   3 -1.5398 0.72253   2 
  -5 -13   3 -0.1729 0.64667   1 
   4  13  -3 39.9533 2.65959   3 
   4  13  -3 41.5374 2.60728   2 
  -4 -13   3 43.5607 2.60866   2 
  -4 -13   3 39.9281 2.34646   1 
   3  13  -3 65.6295 3.37510   2 
  -3 -13   3 68.5967 3.38477   2 
  -3 -13   3 70.3731 3.12745   1 
   2  13  -3 76.2735 3.59303   2 
  -2 -13   3 71.6023 3.21839   1 
   1  13  -3 0.46138 0.82875   2 
  11  12  -3 8.11370 1.31881   2 
 -11 -12   3 6.94882 1.02602   6 
  10  12  -3 -0.6013 0.98188   3 
  10  12  -3 -1.3944 0.74616   2 
 -10 -12   3 -0.4010 0.80273   1 
 -10 -12   3 -0.2802 0.62330   6 
   9  12  -3 106.356 4.38780   2 
   9  12  -3 105.327 4.60914   3 
  -9 -12   3 99.6254 4.15279   1 
  -9 -12   3 105.340 4.34424   2 
  -9 -12   3 109.024 3.84957   6 
   8  12  -3 1.74076 0.91552   2 
   8  12  -3 2.00612 1.16486   3 
  -8 -12   3 3.61800 1.00925   1 
  -8 -12   3 3.70908 0.79072   6 
  -8 -12   3 2.13116 0.96833   2 
   7  12  -3 7.32521 1.42572   3 
   7  12  -3 8.38346 1.31114   2 
  -7 -12   3 8.44787 1.28820   2 
  -7 -12   3 9.98697 1.25582   1 
  -7 -12   3 10.1398 0.95267   6 
   6  12  -3 4.65351 1.18535   3 
   6  12  -3 6.19404 1.15917   2 
  -6 -12   3 5.41523 0.71805   6 
  -6 -12   3 8.16191 1.10877   1 
  -6 -12   3 5.51838 1.15333   2 
   5  12  -3 80.1721 3.67901   3 
   5  12  -3 79.2904 3.59123   2 
  -5 -12   3 86.0761 3.68914   2 
  -5 -12   3 78.4771 2.66296   6 
  -5 -12   3 80.5562 3.38198   1 
   4  12  -3 5.67660 1.23592   3 
   4  12  -3 5.67598 1.19386   2 
  -4 -12   3 4.77666 0.93089   1 
  -4 -12   3 4.77630 0.52830   6 
  -4 -12   3 3.85691 1.05870   2 
   3  12  -3 173.450 6.16367   3 
   3  12  -3 180.491 6.25188   2 
  -3 -12   3 183.603 6.25925   2 
  -3 -12   3 179.754 5.90580   1 
   2  12  -3 5.27067 1.21648   2 
  -2 -12   3 8.10285 1.09289   1 
  -2 -12   3 7.65055 1.20667   2 
   1  12  -3 146.218 5.35438   2 
  -1 -12   3 146.035 5.06573   1 
  11  11  -3 0.74808 0.98584   3 
  11  11  -3 0.75532 0.86083   2 
 -11 -11   3 0.14475 0.67947   6 
 -11 -11   3 0.69087 0.86518   1 
  10  11  -3 21.1405 2.05295   3 
  10  11  -3 24.7833 1.92903   2 
 -10 -11   3 22.5777 1.86854   1 
 -10 -11   3 22.5990 1.61104   6 
   9  11  -3 -0.1829 0.80373   2 
   9  11  -3 1.83166 1.10142   3 
  -9 -11   3 1.40314 0.71940   6 
  -9 -11   3 1.05662 0.86162   1 
  -9 -11   3 1.92907 0.87241   2 
   8  11  -3 85.5742 3.62139   2 
   8  11  -3 78.5508 3.74697   3 
  -8 -11   3 79.8145 3.41542   1 
  -8 -11   3 79.2837 3.52536   2 
  -8 -11   3 78.0152 3.02960   6 
   7  11  -3 37.7693 2.34180   2 
   7  11  -3 38.7536 2.48533   3 
  -7 -11   3 33.4372 1.77631   6 
  -7 -11   3 34.3694 2.12433   1 
  -7 -11   3 36.4669 2.29583   2 
   6  11  -3 84.4010 3.66618   2 
   6  11  -3 84.2250 3.77993   3 
  -6 -11   3 91.9838 3.72205   2 
  -6 -11   3 87.3928 3.00523   6 
  -6 -11   3 85.7447 3.50372   1 
   5  11  -3 8.10246 1.26844   3 
   5  11  -3 6.45336 1.17021   2 
  -5 -11   3 8.81852 1.10638   1 
  -5 -11   3 6.64547 1.12681   2 
  -5 -11   3 7.39172 0.73468   6 
   4  11  -3 174.753 6.00218   3 
   4  11  -3 182.510 6.05845   2 
  -4 -11   3 174.625 5.75712   1 
  -4 -11   3 177.118 5.99941   2 
  -4 -11   3 173.378 4.95302   6 
   3  11  -3 10.7028 1.34814   3 
   3  11  -3 8.81066 1.30183   2 
  -3 -11   3 10.7758 1.18067   1 
  -3 -11   3 10.8698 0.66242   6 
  -3 -11   3 11.4123 1.33073   2 
   2  11  -3 135.433 4.94999   3 
   2  11  -3 137.728 5.02652   2 
  -2 -11   3 138.950 5.02156   2 
  -2 -11   3 140.113 4.74773   1 
   1  11  -3 64.4870 3.11876   2 
  -1 -11   3 68.0646 3.14219   2 
  -1 -11   3 69.2129 2.92227   1 
   0  11  -3 96.0446 3.84176   2 
   0 -11   3 91.5734 3.59101   1 
   1 -11   3 4.62917 0.88738   1 
  12  10  -3 -0.3564 1.06861   3 
 -12 -10   3 0.65447 0.81928   1 
  11  10  -3 40.7777 2.35988   2 
  11  10  -3 39.8136 2.69279   3 
 -11 -10   3 37.8480 2.32154   1 
 -11 -10   3 38.7900 2.20855   6 
  10  10  -3 0.52570 0.98202   3 
  10  10  -3 0.08561 0.81222   2 
 -10 -10   3 0.70498 0.68478   6 
 -10 -10   3 0.97774 0.84667   1 
   9  10  -3 37.6087 2.48872   3 
   9  10  -3 40.1555 2.33876   2 
  -9 -10   3 37.0713 2.27241   2 
  -9 -10   3 38.0292 2.00286   6 
  -9 -10   3 37.1239 2.23471   1 
   8  10  -3 14.4930 1.64860   3 
   8  10  -3 16.3320 1.54494   2 
  -8 -10   3 14.8304 1.46672   2 
  -8 -10   3 18.9771 1.35632   6 
  -8 -10   3 18.2050 1.59074   1 
   7  10  -3 132.752 4.99029   3 
   7  10  -3 137.454 4.87253   2 
  -7 -10   3 131.953 4.29922   6 
  -7 -10   3 127.538 4.63097   1 
  -7 -10   3 138.712 4.85537   2 
   6  10  -3 63.3562 3.11279   3 
   6  10  -3 66.8865 3.06482   2 
  -6 -10   3 67.8062 3.05423   2 
  -6 -10   3 68.6339 2.52598   6 
  -6 -10   3 70.1552 2.95867   1 
   5  10  -3 100.293 3.92415   2 
   5  10  -3 103.013 3.98063   3 
  -5 -10   3 103.481 3.95453   2 
  -5 -10   3 97.7827 3.72232   1 
  -5 -10   3 98.2766 3.21843   6 
   4  10  -3 -0.3361 0.71075   3 
   4  10  -3 0.20310 0.69835   2 
  -4 -10   3 0.06439 0.61044   1 
  -4 -10   3 0.45182 0.37346   6 
  -4 -10   3 0.16186 0.68326   2 
   3  10  -3 210.258 6.85019   2 
   3  10  -3 211.902 6.80442   3 
  -3 -10   3 223.252 6.91480   2 
  -3 -10   3 218.017 5.83674   6 
  -3 -10   3 218.195 6.63105   1 
   2  10  -3 17.5242 1.57498   2 
   2  10  -3 14.5055 1.38728   3 
  -2 -10   3 17.8033 1.53003   2 
  -2 -10   3 15.5363 1.31512   1 
   1  10  -3 125.025 4.47708   3 
   1  10  -3 127.336 4.55361   2 
  -1 -10   3 126.205 4.18841   5 
  -1 -10   3 123.647 4.30648   1 
  -1 -10   3 124.901 4.53433   2 
   0  10  -3 9.04113 1.13036   2 
   0 -10   3 7.45145 0.94595   5 
   0 -10   3 7.63324 0.97559   1 
  -1  10  -3 82.8784 3.32076   1 
   1 -10   3 77.0882 3.17732   5 
  -2  10  -3 10.8555 1.18768   5 
  -2  10  -3 13.3992 1.31192   1 
   2 -10   3 12.7242 1.25164   5 
  -3  10  -3 49.8419 2.59571   5 
   3 -10   3 49.0841 2.56429   5 
  -4  10  -3 6.63117 1.14039   5 
   4 -10   3 6.26662 1.31297   4 
   5 -10   3 48.6085 3.12742   4 
  12   9  -3 55.7401 3.28248   3 
 -12  -9   3 58.4373 2.95553   1 
  11   9  -3 -0.7700 1.02549   3 
 -11  -9   3 0.49020 0.73647   6 
 -11  -9   3 1.40453 0.85659   1 
  10   9  -3 57.1801 3.13195   3 
  10   9  -3 61.8736 2.88720   2 
 -10  -9   3 59.5479 2.83885   1 
 -10  -9   3 60.2800 2.70430   6 
   9   9  -3 7.30351 1.30793   3 
   9   9  -3 4.78190 1.06934   2 
  -9  -9   3 5.50428 1.05232   2 
  -9  -9   3 5.66502 0.92180   6 
  -9  -9   3 6.21780 1.02826   1 
   8   9  -3 116.852 4.25840   2 
   8   9  -3 110.984 4.44306   3 
  -8  -9   3 114.683 4.21509   2 
  -8  -9   3 114.011 4.18370   1 
  -8  -9   3 114.216 3.91842   6 
   7   9  -3 69.4775 3.18538   3 
   7   9  -3 66.3445 2.98788   2 
  -7  -9   3 68.0675 2.91061   1 
  -7  -9   3 71.0014 2.67129   6 
  -7  -9   3 67.5952 2.97086   2 
   6   9  -3 112.728 4.22352   3 
   6   9  -3 109.652 4.09741   2 
  -6  -9   3 105.455 3.58028   6 
  -6  -9   3 113.028 3.99100   1 
  -6  -9   3 115.465 4.13702   2 
   5   9  -3 92.9358 3.63346   3 
   5   9  -3 92.4264 3.57242   2 
  -5  -9   3 88.8150 2.96224   6 
  -5  -9   3 92.7194 3.57234   2 
  -5  -9   3 87.0884 3.36133   1 
   4   9  -3 158.663 5.28446   2 
   4   9  -3 159.791 5.29184   3 
  -4  -9   3 169.133 5.36822   2 
  -4  -9   3 146.249 4.52056   6 
  -4  -9   3 163.181 5.11294   1 
   3   9  -3 10.8679 1.16786   3 
   3   9  -3 10.1757 1.13945   2 
  -3  -9   3 12.0227 1.05236   1 
  -3  -9   3 8.76618 1.07137   2 
  -3  -9   3 10.0810 0.69709   6 
  -3  -9   3 11.4804 0.94854   5 
   2   9  -3 197.753 6.33681   3 
   2   9  -3 212.471 6.49555   2 
  -2  -9   3 207.314 5.43311   6 
  -2  -9   3 208.342 6.01276   5 
  -2  -9   3 203.387 6.21425   1 
  -2  -9   3 206.902 5.43054   6 
  -2  -9   3 199.301 6.40422   2 
   1   9  -3 8.03724 1.03190   2 
   1   9  -3 9.29967 1.03973   3 
  -1  -9   3 6.76032 0.95258   2 
  -1  -9   3 7.46409 0.84522   5 
  -1  -9   3 8.68579 0.94416   1 
   0   9  -3 160.360 5.31277   2 
   0   9  -3 164.538 5.25837   3 
   0  -9   3 162.382 5.09863   5 
   0  -9   3 160.236 5.30891   2 
   0  -9   3 159.536 5.12834   1 
  -1   9  -3 2.38279 0.75751   1 
  -1   9  -3 2.59413 0.74094   2 
   1  -9   3 1.93652 0.65986   1 
   1  -9   3 1.51327 0.73416   4 
   1  -9   3 2.47169 0.68136   5 
  -2   9  -3 143.633 4.85916   1 
   2  -9   3 145.326 5.18679   4 
   2  -9   3 139.227 4.82782   5 
  -3   9  -3 5.15316 0.92985   5 
  -3   9  -3 5.80557 0.97886   1 
   3  -9   3 3.73274 0.84858   5 
   3  -9   3 3.83655 1.07735   4 
  -4   9  -3 89.4855 3.70450   5 
   4  -9   3 95.0356 4.16838   4 
   4  -9   3 83.9073 3.62670   5 
  -5   9  -3 25.7318 1.99411   5 
   5  -9   3 26.8973 2.37296   4 
  13   8  -3 43.6101 3.12729   3 
 -13  -8   3 46.9627 2.70243   1 
  12   8  -3 -1.8950 0.96836   3 
 -12  -8   3 1.17850 0.93873   1 
  11   8  -3 119.567 4.87492   3 
 -11  -8   3 119.702 4.49270   1 
  10   8  -3 0.32713 0.93371   3 
  10   8  -3 -1.0352 0.68687   2 
 -10  -8   3 0.47219 0.74444   1 
 -10  -8   3 -0.9846 0.64425   6 
   9   8  -3 18.2604 1.53522   2 
   9   8  -3 14.4338 1.57951   3 
  -9  -8   3 19.5963 1.42842   6 
  -9  -8   3 18.5378 1.53036   1 
   8   8  -3 84.4211 3.38031   2 
   8   8  -3 85.5811 3.62516   3 
  -8  -8   3 88.5458 3.41501   2 
  -8  -8   3 87.5191 3.20949   6 
  -8  -8   3 89.4368 3.38487   1 
   7   8  -3 188.959 5.90966   2 
   7   8  -3 181.471 6.05634   3 
  -7  -8   3 184.156 5.57939   6 
  -7  -8   3 187.160 5.84410   1 
   6   8  -3 8.15725 1.02867   2 
   6   8  -3 10.1207 1.20841   3 
  -6  -8   3 9.06593 1.07334   2 
  -6  -8   3 8.30266 0.99080   1 
  -6  -8   3 8.25278 0.89106   6 
   5   8  -3 267.474 8.01758   3 
   5   8  -3 270.943 7.99244   2 
  -5  -8   3 264.823 7.46404   6 
  -5  -8   3 288.091 7.43995   5 
  -5  -8   3 260.580 7.95260   2 
  -5  -8   3 267.624 7.83553   1 
   4   8  -3 1.76087 0.72783   3 
   4   8  -3 4.82799 0.83052   2 
  -4  -8   3 3.59353 0.52242   5 
  -4  -8   3 2.53991 0.70895   2 
  -4  -8   3 2.37503 0.67496   1 
  -4  -8   3 3.10415 0.48064   6 
   3   8  -3 108.201 3.83057   3 
   3   8  -3 107.903 3.86246   2 
  -3  -8   3 110.197 3.89879   2 
  -3  -8   3 110.296 3.70651   1 
  -3  -8   3 115.505 3.45642   5 
  -3  -8   3 104.640 3.18889   6 
   2   8  -3 36.8334 1.89323   3 
   2   8  -3 35.8297 1.94397   2 
  -2  -8   3 37.1924 1.64120   5 
  -2  -8   3 36.8571 1.26802   6 
  -2  -8   3 36.7143 1.95586   2 
  -2  -8   3 39.4185 1.29404   6 
  -2  -8   3 36.3227 1.78408   1 
   1   8  -3 55.6133 2.42087   3 
   1   8  -3 59.6645 2.39091   4 
   1   8  -3 60.5395 2.56448   2 
  -1  -8   3 60.0132 2.38111   1 
  -1  -8   3 59.0433 2.27648   5 
  -1  -8   3 59.7337 2.41410   4 
  -1  -8   3 54.7526 2.47720   2 
  -1  -8   3 57.6487 1.66072   6 
   0   8  -3 2.49217 0.65765   3 
   0   8  -3 3.17846 0.73866   2 
   0  -8   3 2.17988 0.67193   4 
   0  -8   3 3.05394 0.67043   1 
   0  -8   3 2.62015 0.69513   2 
   0  -8   3 3.78201 0.66019   5 
  -1   8  -3 510.073 13.7310   1 
  -1   8  -3 497.403 13.6808   2 
  -1   8  -3 495.887 13.6331   3 
   1  -8   3 516.343 13.9351   4 
   1  -8   3 498.034 13.6524   3 
   1  -8   3 510.972 13.6664   5 
   1  -8   3 489.306 13.5830   1 
  -2   8  -3 -0.5276 0.40834   2 
  -2   8  -3 -0.2923 0.53143   1 
   2  -8   3 -0.6590 0.62836   4 
   2  -8   3 -0.0732 0.51710   5 
  -3   8  -3 96.8444 3.56356   1 
   3  -8   3 94.9916 3.95237   4 
   3  -8   3 91.1406 3.56503   5 
  -4   8  -3 1.80576 0.76878   1 
  -4   8  -3 0.43439 0.68705   5 
   4  -8   3 1.52710 0.97950   4 
   4  -8   3 2.50603 0.79437   5 
  -5   8  -3 124.650 4.68475   5 
   5  -8   3 127.480 4.71191   5 
   5  -8   3 125.970 5.16594   4 
  -6   8  -3 23.1645 1.93204   5 
   6  -8   3 23.8707 2.29859   4 
  13   7  -3 16.1574 1.98188   3 
 -13  -7   3 17.4896 1.65566   1 
  12   7  -3 37.1062 2.68755   3 
 -12  -7   3 38.5321 2.35802   1 
  11   7  -3 15.0143 1.72974   3 
 -11  -7   3 17.9988 1.54241   1 
  10   7  -3 60.5623 3.11348   3 
  10   7  -3 58.9565 2.64139   2 
 -10  -7   3 62.8641 2.81850   1 
 -10  -7   3 64.9654 2.78189   6 
   9   7  -3 -0.6864 0.63425   2 
   9   7  -3 0.16881 0.82871   3 
  -9  -7   3 0.83656 0.66909   6 
  -9  -7   3 0.50563 0.72146   1 
   8   7  -3 42.8058 2.35909   3 
   8   7  -3 42.5869 2.08722   2 
  -8  -7   3 45.4852 2.17576   1 
  -8  -7   3 45.0458 2.03497   6 
  -8  -7   3 41.3405 2.09599   2 
   7   7  -3 21.3118 1.70633   3 
   7   7  -3 23.4783 1.55967   2 
  -7  -7   3 22.9318 1.50800   2 
  -7  -7   3 21.9867 1.35585   6 
  -7  -7   3 20.5479 1.44257   1 
  -7  -7   3 22.6819 1.17315   5 
   6   7  -3 132.793 4.38260   2 
   6   7  -3 124.770 4.47710   3 
  -6  -7   3 133.829 4.32830   1 
  -6  -7   3 133.188 3.90663   5 
  -6  -7   3 129.019 4.08455   6 
  -6  -7   3 133.710 4.38395   2 
   5   7  -3 1.97268 0.64907   2 
   5   7  -3 1.08471 0.67082   3 
  -5  -7   3 0.94557 0.44021   6 
  -5  -7   3 1.22316 0.56408   2 
  -5  -7   3 2.10321 0.61532   1 
   4   7  -3 1046.70 26.8051   3 
   4   7  -3 1012.97 26.7784   2 
  -4  -7   3 989.558 26.7625   2 
  -4  -7   3 1033.19 26.6327   1 
  -4  -7   3 997.465 26.2597   6 
  -4  -7   3 1095.62 26.3487   5 
   3   7  -3 3.92398 0.72741   2 
   3   7  -3 4.74528 0.75898   3 
  -3  -7   3 3.62826 0.70187   2 
  -3  -7   3 4.28095 0.43970   6 
  -3  -7   3 3.27804 0.52615   5 
  -3  -7   3 3.41885 0.64753   1 
  -3  -7   3 3.86463 0.44625   6 
   2   7  -3 96.0983 3.28633   3 
   2   7  -3 98.0931 3.01867   4 
   2   7  -3 90.2165 3.32204   2 
  -2  -7   3 83.5317 3.25246   2 
  -2  -7   3 95.1065 2.72576   6 
  -2  -7   3 90.4591 2.67788   6 
  -2  -7   3 98.3756 3.03527   5 
  -2  -7   3 92.6378 3.16618   1 
   1   7  -3 49.8373 2.21028   2 
   1   7  -3 50.8000 2.10934   3 
  -1  -7   3 49.0229 2.19137   2 
  -1  -7   3 51.9573 1.51645   6 
  -1  -7   3 51.5493 1.55031   6 
  -1  -7   3 50.0716 2.08271   1 
  -1  -7   3 49.4474 1.96900   5 
   0   7  -3 146.180 4.69943   2 
   0   7  -3 146.974 4.59846   3 
   0  -7   3 151.160 4.69651   4 
   0  -7   3 150.845 4.56876   5 
   0  -7   3 146.527 4.71267   2 
   0  -7   3 147.794 4.59186   1 
  -1   7  -3 30.5780 1.65045   2 
  -1   7  -3 33.1388 1.63606   3 
   1  -7   3 30.8688 1.65599   5 
   1  -7   3 32.5000 1.83632   4 
   1  -7   3 32.4624 1.60675   3 
   1  -7   3 30.4294 1.59914   1 
  -2   7  -3 211.372 6.16384   2 
  -2   7  -3 209.734 6.27251   1 
   2  -7   3 210.461 6.15063   3 
   2  -7   3 199.060 6.23231   5 
   2  -7   3 210.578 6.21416   1 
   2  -7   3 203.973 6.51602   4 
  -3   7  -3 51.4923 2.28403   1 
   3  -7   3 48.5669 2.59042   4 
   3  -7   3 46.7875 2.24743   5 
  -4   7  -3 87.3790 3.24756   1 
  -4   7  -3 79.6604 3.27212   5 
   4  -7   3 82.8103 3.69082   4 
   4  -7   3 80.8910 3.29577   5 
  -5   7  -3 128.547 4.35147   1 
  -5   7  -3 116.135 4.42482   5 
   5  -7   3 123.062 3.49124   6 
   5  -7   3 124.652 4.99451   4 
   5  -7   3 120.331 4.49841   5 
  -6   7  -3 146.888 5.31813   5 
  -6   7  -3 154.894 5.10408   1 
   6  -7   3 148.295 5.85543   4 
   6  -7   3 146.720 4.24762   6 
  -7   7  -3 4.10932 1.02855   5 
   7  -7   3 4.09871 1.30413   4 
   7  -7   3 5.24001 0.60466   6 
  13   6  -3 27.8280 2.47252   3 
 -13  -6   3 28.2878 2.15382   1 
  12   6  -3 22.0867 2.11028   3 
 -12  -6   3 27.1188 1.96933   1 
  11   6  -3 12.5281 1.57198   3 
 -11  -6   3 12.1529 1.32426   1 
  10   6  -3 70.7080 3.37935   3 
 -10  -6   3 76.1721 3.09918   1 
   9   6  -3 28.7290 1.63841   2 
   9   6  -3 30.5020 2.05329   3 
  -9  -6   3 28.3229 1.67559   6 
  -9  -6   3 27.5130 1.44581   5 
  -9  -6   3 30.0288 1.76708   1 
   8   6  -3 7.96796 0.90789   2 
   8   6  -3 7.09600 1.10562   3 
  -8  -6   3 8.45931 0.98458   6 
  -8  -6   3 8.29727 0.98035   1 
  -8  -6   3 8.71615 0.75412   5 
   7   6  -3 92.2141 3.55639   3 
   7   6  -3 92.7491 3.30490   2 
  -7  -6   3 94.9345 3.31257   2 
  -7  -6   3 95.6835 2.99233   5 
  -7  -6   3 94.0773 3.22288   6 
  -7  -6   3 91.0522 3.32979   1 
   6   6  -3 3.03416 0.64202   2 
   6   6  -3 2.53358 0.75423   3 
  -6  -6   3 2.37163 0.62391   1 
  -6  -6   3 2.10973 0.45047   5 
  -6  -6   3 1.38975 0.51131   6 
  -6  -6   3 2.05365 0.60828   2 
   5   6  -3 267.518 7.78484   2 
   5   6  -3 279.782 7.90678   3 
  -5  -6   3 282.230 7.41374   5 
  -5  -6   3 269.530 7.52063   6 
  -5  -6   3 263.218 7.69205   1 
  -5  -6   3 275.721 7.79847   2 
   4   6  -3 12.8271 1.18044   3 
   4   6  -3 13.3136 1.14936   2 
  -4  -6   3 12.4764 1.07973   2 
  -4  -6   3 11.7144 0.99821   1 
  -4  -6   3 12.8124 0.85988   6 
  -4  -6   3 11.4118 0.83577   5 
   3   6  -3 555.303 14.2726   4 
   3   6  -3 556.623 14.8125   3 
   3   6  -3 583.390 14.9085   2 
  -3  -6   3 554.152 14.7026   1 
  -3  -6   3 566.923 14.8830   2 
  -3  -6   3 550.887 14.3953   6 
  -3  -6   3 569.259 14.5074   5 
  -3  -6   3 521.965 14.3463   6 
   2   6  -3 12.4368 0.99838   3 
   2   6  -3 9.88285 0.91355   2 
   2   6  -3 12.6552 0.82631   4 
  -2  -6   3 11.3521 0.63821   6 
  -2  -6   3 11.5894 0.68186   6 
  -2  -6   3 12.0385 0.84996   5 
  -2  -6   3 11.1016 0.96885   1 
  -2  -6   3 11.4541 1.03086   2 
   1   6  -3 570.817 15.0190   2 
   1   6  -3 556.391 14.8752   3 
  -1  -6   3 558.697 14.3452   6 
  -1  -6   3 545.900 14.8315   1 
  -1  -6   3 561.233 15.0135   2 
  -1  -6   3 556.712 14.7549   5 
  -1  -6   3 572.923 14.3816   6 
  -1  -6   3 590.560 14.8052   4 
   0   6  -3 152.134 4.67021   3 
   0   6  -3 156.046 4.80304   2 
   0  -6   3 155.127 4.80873   2 
   0  -6   3 157.719 4.69196   5 
   0  -6   3 155.068 4.70018   1 
   0  -6   3 160.458 4.79335   4 
   0  -6   3 162.151 4.14143   6 
   0  -6   3 158.185 4.11843   6 
  -1   6  -3 468.274 12.5001   2 
  -1   6  -3 469.765 12.4305   3 
   1  -6   3 464.371 12.6792   4 
   1  -6   3 467.388 12.4293   3 
   1  -6   3 456.469 12.4609   1 
   1  -6   3 468.589 12.5014   5 
  -2   6  -3 105.863 3.43940   2 
  -2   6  -3 105.534 3.57037   1 
   2  -6   3 102.196 3.53601   5 
   2  -6   3 104.764 3.78346   4 
   2  -6   3 104.750 3.48911   1 
   2  -6   3 106.147 3.43290   3 
   2  -6   3 105.046 2.82478   6 
  -3   6  -3 22.7372 1.24487   2 
  -3   6  -3 18.3838 1.39987   1 
   3  -6   3 21.8321 1.67215   4 
   3  -6   3 20.2110 0.82436   6 
   3  -6   3 18.2746 1.28491   3 
   3  -6   3 20.4893 1.41513   5 
   3  -6   3 21.2698 0.79149   6 
  -4   6  -3 80.4418 3.06618   1 
   4  -6   3 81.2104 3.51475   4 
   4  -6   3 82.2417 2.45332   6 
   4  -6   3 81.2545 3.16990   5 
  -5   6  -3 43.5964 2.13897   1 
  -5   6  -3 42.5513 2.19714   5 
   5  -6   3 43.1044 2.58469   4 
   5  -6   3 41.8855 1.57268   6 
   5  -6   3 42.0846 2.22953   5 
  -6   6  -3 74.5186 2.99341   1 
  -6   6  -3 71.0028 3.13218   5 
   6  -6   3 70.3563 3.13412   5 
   6  -6   3 72.0099 2.42378   6 
   6  -6   3 68.2744 3.54865   4 
  -7   6  -3 136.030 4.64469   1 
  -7   6  -3 130.993 4.88832   5 
   7  -6   3 129.931 5.43300   4 
   7  -6   3 130.261 4.05069   6 
  -8   6  -3 6.54285 1.25853   5 
   8  -6   3 3.90458 1.33211   4 
   8  -6   3 6.23716 0.75122   6 
  13   5  -3 3.76214 1.31040   3 
 -13  -5   3 5.05338 1.22179   1 
  12   5  -3 23.3521 2.22314   3 
 -12  -5   3 28.9242 2.04973   1 
  11   5  -3 3.32558 1.22988   3 
 -11  -5   3 4.71633 0.89447   5 
 -11  -5   3 5.11146 1.08436   1 
  10   5  -3 87.2222 3.72854   3 
 -10  -5   3 84.2571 3.13074   5 
 -10  -5   3 87.8967 3.40764   1 
   9   5  -3 0.14677 0.81213   3 
   9   5  -3 -0.1762 0.51220   2 
  -9  -5   3 0.53641 0.60961   6 
  -9  -5   3 1.01472 0.68119   1 
  -9  -5   3 0.27761 0.48781   5 
   8   5  -3 135.251 4.32076   2 
   8   5  -3 133.071 4.74704   3 
  -8  -5   3 144.061 4.48830   6 
  -8  -5   3 137.517 4.49571   1 
  -8  -5   3 139.764 4.22797   5 
   7   5  -3 1.56915 0.54374   2 
   7   5  -3 0.92029 0.66582   3 
  -7  -5   3 1.48444 0.47792   5 
  -7  -5   3 1.49340 0.57239   1 
  -7  -5   3 1.85076 0.52860   6 
   6   5  -3 38.0299 1.75997   2 
   6   5  -3 37.7897 1.94129   3 
  -6  -5   3 39.4263 1.79706   1 
  -6  -5   3 36.2163 1.64519   6 
  -6  -5   3 37.8329 1.72300   2 
  -6  -5   3 39.0274 1.55970   5 
   5   5  -3 243.060 6.89223   2 
   5   5  -3 242.652 7.00872   3 
  -5  -5   3 256.436 6.62158   5 
  -5  -5   3 230.777 6.81237   1 
  -5  -5   3 237.069 6.87038   2 
  -5  -5   3 237.233 6.70834   6 
   4   5  -3 993.578 24.9134   3 
   4   5  -3 917.533 24.8042   2 
  -4  -5   3 962.440 24.7520   1 
  -4  -5   3 983.776 24.6011   6 
  -4  -5   3 937.474 24.5573   6 
  -4  -5   3 965.327 24.8443   2 
  -4  -5   3 971.344 24.5342   5 
   3   5  -3 1.06035 0.47484   3 
   3   5  -3 2.00955 0.51543   2 
  -3  -5   3 1.45105 0.38106   5 
  -3  -5   3 2.00682 0.48719   1 
  -3  -5   3 1.16019 0.46851   2 
  -3  -5   3 2.50552 0.35398   6 
  -3  -5   3 1.20762 0.33540   6 
   2   5  -3 661.352 17.1160   2 
   2   5  -3 674.405 16.7156   4 
   2   5  -3 648.205 17.0132   3 
  -2  -5   3 629.227 16.6519   6 
  -2  -5   3 663.872 17.1244   2 
  -2  -5   3 656.515 16.8512   5 
  -2  -5   3 641.021 16.6404   6 
  -2  -5   3 647.656 16.9605   1 
   1   5  -3 0.92007 0.37013   3 
   1   5  -3 0.41688 0.36787   2 
  -1  -5   3 0.82757 0.35265   5 
  -1  -5   3 0.75173 0.32657   4 
  -1  -5   3 1.24917 0.41263   2 
  -1  -5   3 0.74791 0.19966   6 
  -1  -5   3 0.99633 0.21818   6 
  -1  -5   3 1.36825 0.40974   1 
   0   5  -3 626.598 16.2627   3 
   0   5  -3 628.780 16.4014   2 
   0  -5   3 626.337 15.8568   6 
   0  -5   3 626.832 16.4072   2 
   0  -5   3 615.926 16.3006   1 
   0  -5   3 637.996 15.8623   6 
   0  -5   3 620.960 16.3366   4 
   0  -5   3 623.282 16.2899   5 
  -1   5  -3 287.135 7.97631   2 
   1  -5   3 295.759 7.89732   3 
   1  -5   3 306.492 7.45912   6 
   1  -5   3 285.225 7.96513   1 
   1  -5   3 286.084 7.99052   5 
   1  -5   3 281.585 7.43169   6 
   1  -5   3 285.608 8.11911   4 
  -2   5  -3 204.245 5.68690   2 
  -2   5  -3 194.148 5.80552   1 
   2  -5   3 202.063 5.19792   6 
   2  -5   3 199.382 5.19913   6 
   2  -5   3 192.827 5.82805   5 
   2  -5   3 201.687 6.05578   4 
   2  -5   3 200.014 5.64362   3 
   2  -5   3 193.984 5.73644   1 
  -3   5  -3 16.9453 1.24415   1 
  -3   5  -3 18.2952 1.05538   2 
   3  -5   3 19.0983 1.51030   4 
   3  -5   3 17.8573 0.78629   6 
   3  -5   3 17.0578 1.26241   5 
  -4   5  -3 356.150 9.96324   1 
   4  -5   3 348.427 9.38625   6 
   4  -5   3 357.949 10.0830   5 
   4  -5   3 358.933 10.4797   4 
   4  -5   3 372.804 9.83673   3 
  -5   5  -3 -0.8203 0.46532   1 
   5  -5   3 0.57718 0.34209   6 
   5  -5   3 0.45918 0.75897   4 
   5  -5   3 -0.0428 0.56448   5 
  -6   5  -3 122.114 4.19344   1 
  -6   5  -3 119.071 4.35358   5 
   6  -5   3 125.042 4.90148   4 
   6  -5   3 124.538 4.43428   5 
   6  -5   3 123.421 3.77596   6 
  -7   5  -3 -0.8847 0.53829   1 
  -7   5  -3 0.02625 0.68736   5 
   7  -5   3 0.62636 0.93952   4 
   7  -5   3 0.02174 0.42165   6 
  -8   5  -3 78.0345 3.47029   5 
  -8   5  -3 79.2887 3.21830   1 
   8  -5   3 78.5328 4.05073   4 
   8  -5   3 73.3323 2.80345   6 
  -9   5  -3 10.8343 1.38202   5 
   9  -5   3 14.3677 1.17673   6 
   9  -5   3 13.1690 1.90214   4 
 -14  -4   3 2.31907 0.99571   1 
  13   4  -3 8.48365 1.55065   3 
 -13  -4   3 8.18661 1.37262   1 
  12   4  -3 -0.3714 0.98196   3 
 -12  -4   3 -0.3841 0.68045   5 
 -12  -4   3 0.17703 0.83644   1 
  11   4  -3 130.906 5.13525   3 
 -11  -4   3 146.695 4.82851   1 
 -11  -4   3 128.616 4.56317   5 
  10   4  -3 6.99587 1.26990   3 
 -10  -4   3 9.74928 1.13625   1 
 -10  -4   3 10.5141 1.06101   5 
   9   4  -3 182.726 6.15628   3 
  -9  -4   3 193.376 5.86138   1 
  -9  -4   3 186.114 5.65546   5 
   8   4  -3 0.81178 0.70071   3 
   8   4  -3 -0.1530 0.44825   2 
  -8  -4   3 -0.5893 0.46978   6 
  -8  -4   3 -0.0176 0.47934   5 
  -8  -4   3 0.54490 0.58180   1 
   7   4  -3 200.264 5.91412   2 
   7   4  -3 205.844 6.32617   3 
  -7  -4   3 206.255 6.10113   1 
  -7  -4   3 208.949 6.07514   6 
  -7  -4   3 213.077 5.91420   5 
   6   4  -3 10.7142 0.74952   4 
   6   4  -3 10.1333 0.88804   2 
   6   4  -3 11.2809 1.01536   3 
   6   4  -3 9.72962 0.82732   6 
  -6  -4   3 12.4936 0.88083   5 
  -6  -4   3 10.3792 0.87412   1 
  -6  -4   3 9.55133 0.81842   6 
   5   4  -3 457.571 12.0519   3 
   5   4  -3 436.154 11.8375   2 
   5   4  -3 433.736 11.7806   6 
  -5  -4   3 458.795 11.6747   5 
  -5  -4   3 452.780 11.7999   6 
  -5  -4   3 431.007 11.8420   1 
   4   4  -3 29.6924 1.42171   2 
   4   4  -3 27.4423 1.46412   3 
   4   4  -3 29.0681 1.25060   6 
  -4  -4   3 30.9217 1.26399   5 
  -4  -4   3 28.7781 1.26014   6 
  -4  -4   3 30.8033 1.42656   2 
  -4  -4   3 28.9976 1.34421   1 
   3   4  -3 1123.18 28.6870   3 
   3   4  -3 1095.04 28.6775   2 
  -3  -4   3 1097.25 28.4298   6 
  -3  -4   3 1148.37 28.4876   5 
  -3  -4   3 1091.59 28.5803   1 
  -3  -4   3 1183.72 28.7374   2 
  -3  -4   3 1112.70 28.4496   6 
   2   4  -3 535.858 14.1427   3 
   2   4  -3 560.744 14.2535   2 
   2   4  -3 548.088 13.8739   4 
  -2  -4   3 539.541 14.2307   2 
  -2  -4   3 536.230 13.8857   6 
  -2  -4   3 548.698 14.0371   5 
  -2  -4   3 528.020 13.8941   6 
  -2  -4   3 541.927 14.1215   1 
   1   4  -3 376.752 9.92349   3 
   1   4  -3 382.019 10.0652   2 
  -1  -4   3 366.778 10.0443   2 
  -1  -4   3 347.293 9.91618   1 
  -1  -4   3 386.122 9.81186   4 
  -1  -4   3 398.183 9.93345   5 
  -1  -4   3 377.253 9.66249   6 
  -1  -4   3 370.741 9.64293   6 
   0   4  -3 185.259 5.11567   3 
   0   4  -3 181.192 5.24425   2 
   0  -4   3 185.174 5.19402   5 
   0  -4   3 188.062 4.85304   6 
   0  -4   3 184.510 5.19081   4 
   0  -4   3 183.560 4.82902   6 
   0  -4   3 185.535 5.21328   1 
  -1   4  -3 512.996 13.2770   2 
   1  -4   3 517.522 12.8727   6 
   1  -4   3 502.335 13.4047   4 
   1  -4   3 485.982 12.8548   6 
   1  -4   3 521.003 13.1661   3 
   1  -4   3 498.982 13.2754   1 
   1  -4   3 506.995 13.3078   5 
  -2   4  -3 21.8197 1.23862   1 
  -2   4  -3 23.2183 1.09786   2 
   2  -4   3 21.1933 1.23213   5 
   2  -4   3 23.3115 0.82660   6 
   2  -4   3 20.9732 1.17908   1 
   2  -4   3 21.9356 1.40052   4 
   2  -4   3 23.8273 1.10301   3 
   2  -4   3 23.4213 0.83675   6 
  -3   4  -3 555.379 14.6004   1 
  -3   4  -3 561.394 14.3469   2 
   3  -4   3 547.110 14.0952   6 
   3  -4   3 541.966 14.0876   6 
   3  -4   3 552.774 14.9486   4 
   3  -4   3 568.373 14.4095   3 
   3  -4   3 533.810 14.6191   5 
  -4   4  -3 11.3728 0.96887   1 
   4  -4   3 12.0306 0.67736   6 
   4  -4   3 12.8343 0.73660   6 
   4  -4   3 11.7189 0.95309   3 
   4  -4   3 10.0874 1.13827   4 
   4  -4   3 11.3040 0.98029   5 
  -5   4  -3 121.736 3.99640   1 
   5  -4   3 121.447 4.10603   5 
   5  -4   3 122.351 4.51455   4 
   5  -4   3 117.074 3.56222   6 
  -6   4  -3 29.5321 1.63151   1 
  -6   4  -3 27.4467 1.69255   5 
   6  -4   3 27.8177 1.72519   5 
   6  -4   3 27.5699 1.34095   6 
   6  -4   3 27.4011 2.09253   4 
  -7   4  -3 222.892 6.94916   5 
  -7   4  -3 235.011 6.75332   1 
   7  -4   3 218.219 6.93688   5 
   7  -4   3 215.636 6.35229   6 
   7  -4   3 211.009 7.45663   4 
  -8   4  -3 4.68989 0.89583   1 
  -8   4  -3 3.73820 0.98033   5 
   8  -4   3 5.27353 1.36260   4 
   8  -4   3 4.39595 0.72909   6 
  -9   4  -3 127.822 4.77579   5 
  -9   4  -3 125.734 4.39392   1 
   9  -4   3 119.886 5.36507   4 
   9  -4   3 112.924 4.09176   6 
  13   3  -3 3.72589 1.26774   3 
 -13  -3   3 3.44753 1.08729   1 
 -13  -3   3 3.04339 0.99946   5 
  12   3  -3 35.6355 2.51390   3 
 -12  -3   3 34.6763 2.15423   1 
 -12  -3   3 31.3115 2.03893   5 
  11   3  -3 2.59258 1.08522   3 
 -11  -3   3 3.97121 0.94305   1 
 -11  -3   3 2.94292 0.88188   5 
  10   3  -3 118.689 4.63494   3 
 -10  -3   3 119.408 4.23940   5 
 -10  -3   3 131.661 4.34168   1 
   9   3  -3 73.9255 3.00042   4 
   9   3  -3 69.3694 3.16509   3 
  -9  -3   3 71.0204 2.85081   1 
  -9  -3   3 73.1459 2.84929   5 
   8   3  -3 176.240 5.37170   4 
   8   3  -3 179.223 5.41087   6 
   8   3  -3 172.610 4.96968   2 
   8   3  -3 162.845 5.54235   3 
  -8  -3   3 174.390 5.29301   1 
  -8  -3   3 174.922 5.30863   6 
  -8  -3   3 166.681 5.20145   5 
   7   3  -3 47.1159 2.01962   4 
   7   3  -3 50.3394 1.88106   2 
   7   3  -3 49.2123 2.28498   3 
   7   3  -3 49.4287 2.10115   6 
  -7  -3   3 47.7391 2.02640   6 
  -7  -3   3 49.0715 2.07270   1 
  -7  -3   3 50.0531 2.01676   5 
   6   3  -3 162.717 4.83568   2 
   6   3  -3 168.700 5.02205   6 
   6   3  -3 172.563 5.22237   3 
   6   3  -3 167.963 4.84740   4 
  -6  -3   3 164.409 4.96638   1 
  -6  -3   3 175.011 4.91445   5 
  -6  -3   3 169.866 4.97447   6 
   5   3  -3 12.2354 0.72803   4 
   5   3  -3 12.0812 0.84216   6 
   5   3  -3 11.8644 1.04314   3 
   5   3  -3 13.6155 0.87558   2 
  -5  -3   3 13.9411 0.87337   6 
  -5  -3   3 12.0951 0.91358   1 
  -5  -3   3 11.9905 0.85183   5 
   4   3  -3 788.748 20.0349   2 
   4   3  -3 779.041 20.1480   3 
   4   3  -3 747.173 19.8081   4 
   4   3  -3 771.276 19.9724   6 
  -4  -3   3 818.564 19.9325   5 
  -4  -3   3 794.964 19.9710   6 
  -4  -3   3 744.870 19.9818   1 
   3   3  -3 48.4476 1.80297   2 
   3   3  -3 48.7461 1.66577   6 
   3   3  -3 48.0837 1.84615   3 
  -3  -3   3 49.6821 1.69935   6 
  -3  -3   3 51.1495 1.68458   6 
  -3  -3   3 48.5652 1.75168   1 
  -3  -3   3 52.1733 1.71759   5 
   2   3  -3 71.0059 2.36739   2 
   2   3  -3 76.4728 2.34817   3 
  -2  -3   3 72.0535 2.25271   5 
  -2  -3   3 68.7434 2.27907   1 
  -2  -3   3 72.7675 2.15744   6 
  -2  -3   3 74.0789 2.18810   6 
   1   3  -3 212.466 5.61729   3 
   1   3  -3 199.232 5.71104   2 
  -1  -3   3 210.157 5.47388   4 
  -1  -3   3 196.412 5.62668   1 
  -1  -3   3 213.651 5.46146   6 
  -1  -3   3 204.222 5.43098   6 
  -1  -3   3 212.353 5.64615   5 
   0   3  -3 178.878 4.79004   3 
   0   3  -3 172.779 4.93128   2 
   0  -3   3 173.149 4.62166   6 
   0  -3   3 169.258 4.88562   1 
   0  -3   3 177.425 4.90470   5 
   0  -3   3 180.926 4.87558   4 
   0  -3   3 180.893 4.64694   6 
  -1   3  -3 267.874 7.24593   2 
   1  -3   3 276.677 7.11944   3 
   1  -3   3 267.973 7.28315   1 
   1  -3   3 272.431 6.96621   6 
   1  -3   3 266.483 7.29527   5 
   1  -3   3 269.251 7.38279   4 
   1  -3   3 267.029 6.95344   6 
  -2   3  -3 103.431 3.32038   1 
  -2   3  -3 110.272 3.19135   2 
   2  -3   3 105.922 2.94570   6 
   2  -3   3 109.276 2.96679   6 
   2  -3   3 105.298 3.29996   1 
   2  -3   3 112.665 3.12341   3 
   2  -3   3 108.236 3.33958   5 
   2  -3   3 105.704 3.49209   4 
  -3   3  -3 43.7772 1.52886   2 
  -3   3  -3 40.3363 1.72941   1 
   3  -3   3 43.8273 1.57135   3 
   3  -3   3 41.7963 1.40469   6 
   3  -3   3 43.0876 1.81008   5 
   3  -3   3 42.8694 1.41180   6 
   3  -3   3 41.8873 1.98783   4 
  -4   3  -3 448.318 11.9835   1 
  -4   3  -3 450.562 11.6080   2 
   4  -3   3 461.505 11.7782   3 
   4  -3   3 430.019 12.3724   4 
   4  -3   3 444.189 11.5942   6 
   4  -3   3 441.106 12.0445   5 
   4  -3   3 452.237 11.6087   6 
  -5   3  -3 4.53020 0.68116   1 
   5  -3   3 4.35346 0.92207   4 
   5  -3   3 4.59895 0.62481   3 
   5  -3   3 5.63289 0.76791   5 
   5  -3   3 4.13600 0.50507   6 
  -6   3  -3 26.3514 1.59217   5 
  -6   3  -3 23.5760 1.45052   1 
   6  -3   3 25.0258 1.55213   5 
   6  -3   3 25.4502 1.26944   6 
   6  -3   3 27.4708 1.98951   4 
  -7   3  -3 52.6573 2.30378   1 
  -7   3  -3 51.3326 2.42346   5 
   7  -3   3 52.7651 2.93973   4 
   7  -3   3 51.8896 2.44360   5 
   7  -3   3 49.4959 2.06414   6 
  -8   3  -3 122.933 4.10580   1 
  -8   3  -3 118.382 4.32224   5 
   8  -3   3 110.081 4.84022   4 
   8  -3   3 113.432 3.85920   6 
  -9   3  -3 44.4081 2.27488   1 
  -9   3  -3 42.8742 2.45507   5 
   9  -3   3 41.3614 2.05488   6 
   9  -3   3 41.4917 2.93398   4 
 -10   3  -3 52.9494 2.59948   1 
 -10   3  -3 54.4655 2.87501   5 
  10  -3   3 50.2387 3.37384   4 
  10  -3   3 54.2432 2.49352   6 
  13   2  -3 11.6463 1.69726   3 
 -13  -2   3 8.39600 1.29466   5 
  12   2  -3 22.9496 2.14043   3 
 -12  -2   3 21.1735 1.79563   5 
 -12  -2   3 25.1837 1.88773   1 
  11   2  -3 50.3138 2.88809   3 
 -11  -2   3 51.1887 2.60200   5 
 -11  -2   3 58.4852 2.63412   1 
  10   2  -3 25.4600 2.05470   3 
  10   2  -3 21.6122 1.73227   6 
  10   2  -3 26.6861 2.03669   4 
 -10  -2   3 27.0593 1.78425   1 
 -10  -2   3 25.4099 1.73777   5 
   9   2  -3 227.046 6.85980   6 
   9   2  -3 215.566 7.04074   3 
   9   2  -3 232.805 7.08357   4 
  -9  -2   3 229.104 6.72040   1 
  -9  -2   3 219.430 6.73168   5 
   8   2  -3 97.7235 3.48200   4 
   8   2  -3 91.4450 3.35350   6 
   8   2  -3 88.6547 3.51857   3 
  -8  -2   3 90.4807 3.21915   1 
  -8  -2   3 87.2099 3.23552   5 
   7   2  -3 375.085 9.92953   2 
   7   2  -3 369.804 10.3340   6 
   7   2  -3 375.830 10.3665   4 
   7   2  -3 370.489 10.5162   3 
  -7  -2   3 382.180 10.2793   5 
  -7  -2   3 371.011 10.2524   6 
  -7  -2   3 387.383 10.2493   1 
   6   2  -3 130.544 3.81194   2 
   6   2  -3 131.703 4.24406   3 
   6   2  -3 132.548 4.08870   6 
   6   2  -3 132.251 4.03882   4 
  -6  -2   3 129.614 4.01405   6 
  -6  -2   3 127.717 3.97990   1 
  -6  -2   3 136.332 4.04937   5 
   5   2  -3 110.143 3.24803   2 
   5   2  -3 107.727 3.52157   3 
   5   2  -3 105.586 3.27282   4 
   5   2  -3 108.986 3.39933   6 
  -5  -2   3 109.551 3.34698   6 
  -5  -2   3 115.697 3.37923   5 
  -5  -2   3 105.017 3.32698   1 
   4   2  -3 1.33492 0.29259   4 
   4   2  -3 1.98517 0.36047   6 
   4   2  -3 1.55370 0.43818   3 
   4   2  -3 3.02218 0.42405   2 
  -4  -2   3 1.68114 0.34916   6 
  -4  -2   3 1.23636 0.36664   5 
  -4  -2   3 2.53388 0.41607   1 
   3   2  -3 1179.41 30.7153   4 
   3   2  -3 1166.99 30.4642   6 
   3   2  -3 1193.13 30.5248   2 
   3   2  -3 1219.24 30.6092   3 
  -3  -2   3 1189.48 30.4919   1 
  -3  -2   3 1237.70 30.5008   5 
  -3  -2   3 1240.10 30.4735   6 
   2   2  -3 24.7945 1.09674   2 
   2   2  -3 26.3492 1.10366   3 
   2   2  -3 25.0376 0.97952   6 
  -2  -2   3 24.8821 1.02458   1 
  -2  -2   3 25.9415 0.98524   6 
  -2  -2   3 25.9299 0.99762   6 
  -2  -2   3 25.6454 1.04961   5 
   1   2  -3 49.9928 1.60021   3 
   1   2  -3 50.5516 1.70374   2 
  -1  -2   3 50.3336 1.54199   6 
  -1  -2   3 50.1823 1.64937   5 
  -1  -2   3 51.0653 1.51752   6 
  -1  -2   3 47.5423 1.62183   1 
   0   2  -3 1.15595 0.29853   2 
   0  -2   3 0.77734 0.26172   1 
   0  -2   3 0.69803 0.26706   5 
   0  -2   3 0.49717 0.16399   6 
  -1   2  -3 725.686 18.8551   3 
  -1   2  -3 749.666 18.9903   2 
   1  -2   3 773.027 18.8208   6 
   1  -2   3 753.143 19.1222   4 
   1  -2   3 766.708 18.8847   3 
   1  -2   3 708.648 19.0016   1 
   1  -2   3 732.725 18.8033   6 
   1  -2   3 739.486 19.0418   5 
  -2   2  -3 435.429 11.3065   2 
  -2   2  -3 419.832 11.4506   1 
   2  -2   3 447.935 11.1806   6 
   2  -2   3 441.344 11.6445   4 
   2  -2   3 440.784 11.1929   6 
   2  -2   3 434.286 11.4690   5 
   2  -2   3 437.030 11.2086   3 
  -3   2  -3 798.128 20.6592   1 
  -3   2  -3 797.923 20.4025   2 
   3  -2   3 792.404 20.3431   6 
   3  -2   3 795.855 20.6729   5 
   3  -2   3 818.695 20.4078   3 
   3  -2   3 805.447 20.3683   6 
   3  -2   3 804.100 20.9417   4 
  -4   2  -3 22.6289 1.24330   1 
  -4   2  -3 22.1896 0.94723   2 
   4  -2   3 23.1557 1.27877   5 
   4  -2   3 23.3185 1.01148   6 
   4  -2   3 23.7935 1.09304   3 
   4  -2   3 23.2716 1.56528   4 
   4  -2   3 24.5504 1.01363   6 
  -5   2  -3 359.695 9.93328   1 
   5  -2   3 376.276 9.75050   3 
   5  -2   3 353.788 10.4315   4 
   5  -2   3 366.657 9.66402   6 
   5  -2   3 366.037 10.0285   5 
  -6   2  -3 13.8586 1.18045   5 
  -6   2  -3 14.1956 1.09822   1 
   6  -2   3 14.9662 0.95228   6 
   6  -2   3 13.2453 1.18424   5 
   6  -2   3 12.9046 1.35193   4 
   6  -2   3 16.0873 1.09467   3 
  -7   2  -3 196.601 6.01014   5 
  -7   2  -3 193.017 5.83089   1 
   7  -2   3 197.216 5.67504   6 
   7  -2   3 187.841 6.51981   4 
   7  -2   3 188.292 5.99053   5 
  -8   2  -3 18.3954 1.52811   5 
  -8   2  -3 20.7862 1.44287   1 
   8  -2   3 20.4015 1.35220   6 
   8  -2   3 17.5345 1.82152   4 
  -9   2  -3 138.124 4.90793   5 
  -9   2  -3 143.844 4.70240   1 
   9  -2   3 133.079 4.55099   6 
   9  -2   3 133.935 5.54693   4 
 -10   2  -3 24.1393 1.72193   1 
 -10   2  -3 21.5607 1.82110   5 
  10  -2   3 22.8671 2.31088   4 
  10  -2   3 21.7687 1.56874   6 
 -11   2  -3 62.7112 2.87077   1 
 -11   2  -3 57.0424 3.00172   5 
  11  -2   3 56.8375 3.63646   4 
  11  -2   3 54.1109 2.68233   6 
  13   1  -3 0.81484 1.14030   3 
 -13  -1   3 0.57740 0.89926   5 
  12   1  -3 64.4482 3.33316   3 
  12   1  -3 62.8903 3.49851   4 
 -12  -1   3 57.9027 2.99241   5 
  11   1  -3 25.8898 1.86565   6 
  11   1  -3 25.9857 2.21574   4 
  11   1  -3 24.8898 2.08855   3 
 -11  -1   3 24.0511 1.83923   5 
 -11  -1   3 24.5547 1.77669   1 
  10   1  -3 59.1715 3.03035   4 
  10   1  -3 57.1456 2.91214   3 
  10   1  -3 56.2867 2.68727   6 
 -10  -1   3 61.7821 2.62894   1 
 -10  -1   3 55.4517 2.66543   5 
   9   1  -3 36.9900 2.27379   3 
   9   1  -3 41.4400 2.40394   4 
   9   1  -3 40.2073 2.10556   6 
  -9  -1   3 38.4252 2.07308   5 
  -9  -1   3 41.1522 2.02971   1 
   8   1  -3 303.292 9.06056   3 
   8   1  -3 316.886 8.87453   6 
   8   1  -3 318.301 9.11773   4 
  -8  -1   3 307.645 8.68274   1 
  -8  -1   3 306.191 8.83316   5 
   7   1  -3 1.12573 0.53694   6 
   7   1  -3 0.18657 0.64802   3 
   7   1  -3 0.34318 0.32281   2 
   7   1  -3 0.44891 0.58901   4 
  -7  -1   3 0.21126 0.51144   5 
  -7  -1   3 0.45111 0.47959   1 
   6   1  -3 356.548 9.28295   2 
   6   1  -3 346.657 9.73409   4 
   6   1  -3 353.377 9.67000   6 
   6   1  -3 359.328 9.83631   3 
  -6  -1   3 356.346 9.53598   1 
  -6  -1   3 352.337 9.58266   6 
  -6  -1   3 355.351 9.66970   5 
   5   1  -3 71.1294 2.55430   4 
   5   1  -3 79.3099 2.36643   2 
   5   1  -3 75.7273 2.70492   3 
   5   1  -3 76.7566 2.59014   6 
  -5  -1   3 76.4603 2.52350   6 
  -5  -1   3 76.3692 2.48467   1 
  -5  -1   3 84.1473 2.64945   5 
   4   1  -3 399.798 10.7686   4 
   4   1  -3 415.541 10.9436   3 
   4   1  -3 391.331 10.7975   6 
   4   1  -3 420.158 10.6849   2 
  -4  -1   3 406.352 10.7397   1 
  -4  -1   3 406.437 10.7690   6 
  -4  -1   3 436.330 10.8605   5 
   3   1  -3 50.3220 1.64670   2 
   3   1  -3 48.3027 1.66566   6 
   3   1  -3 48.9997 1.80713   3 
   3   1  -3 48.9692 1.57742   4 
  -3  -1   3 49.3702 1.66861   6 
  -3  -1   3 50.6163 1.71119   5 
  -3  -1   3 50.0854 1.64160   1 
   2   1  -3 930.335 24.1803   6 
   2   1  -3 940.212 24.2299   2 
   2   1  -3 891.986 24.2323   3 
  -2  -1   3 981.487 24.2464   5 
  -2  -1   3 957.515 24.1794   1 
  -2  -1   3 967.478 24.1750   6 
  -2  -1   3 1018.59 24.3598   4 
   1   1  -3 193.144 5.38244   2 
   1   1  -3 207.386 5.32754   3 
   1   1  -3 197.579 5.29903   6 
  -1  -1   3 201.650 5.37049   5 
  -1  -1   3 204.576 5.27159   4 
  -1  -1   3 200.933 5.28508   6 
  -1  -1   3 204.298 5.31729   6 
  -1  -1   3 197.220 5.32598   1 
   0   1  -3 160.484 4.15643   3 
   0   1  -3 155.064 4.31136   2 
   0  -1   3 155.948 4.20208   6 
   0  -1   3 147.971 4.26275   1 
   0  -1   3 168.147 4.30399   4 
   0  -1   3 162.932 4.33341   5 
   0  -1   3 156.668 4.18497   6 
  -1   1  -3 5.64403 0.49483   1 
  -1   1  -3 6.33083 0.51077   2 
   1  -1   3 6.51962 0.61957   4 
   1  -1   3 5.99019 0.39260   6 
   1  -1   3 6.75844 0.42351   6 
   1  -1   3 5.46473 0.44576   1 
   1  -1   3 5.43417 0.44329   5 
  -2   1  -3 675.920 17.1393   2 
  -2   1  -3 673.059 17.2705   1 
   2  -1   3 676.418 17.2623   5 
   2  -1   3 684.615 17.4456   4 
   2  -1   3 653.825 17.0981   3 
   2  -1   3 694.371 17.0979   6 
   2  -1   3 649.980 17.0568   6 
  -3   1  -3 151.477 4.04878   2 
  -3   1  -3 141.392 4.24414   1 
   3  -1   3 149.876 4.28406   5 
   3  -1   3 148.865 4.52342   4 
   3  -1   3 150.766 4.05661   6 
   3  -1   3 144.897 3.98154   3 
   3  -1   3 149.791 4.08310   6 
  -4   1  -3 1102.87 27.2780   2 
  -4   1  -3 1092.44 27.5958   1 
   4  -1   3 1041.03 27.3422   6 
   4  -1   3 1110.45 27.4016   6 
   4  -1   3 1040.30 27.5851   5 
   4  -1   3 1103.39 27.3634   3 
   4  -1   3 1062.32 27.9407   4 
  -5   1  -3 66.0583 1.93016   2 
  -5   1  -3 63.3500 2.33603   1 
   5  -1   3 68.2075 2.20447   3 
   5  -1   3 64.6906 2.74827   4 
   5  -1   3 69.9847 2.21424   6 
   5  -1   3 62.9865 2.39816   5 
   5  -1   3 62.4589 2.16126   6 
  -6   1  -3 268.934 7.54353   1 
   6  -1   3 267.255 7.62227   5 
   6  -1   3 285.371 7.39906   3 
   6  -1   3 249.653 8.03604   4 
   6  -1   3 264.659 7.35151   6 
  -7   1  -3 9.64468 0.98313   5 
  -7   1  -3 10.5371 0.91090   1 
   7  -1   3 7.70738 0.92682   5 
   7  -1   3 7.40797 1.18728   4 
   7  -1   3 8.75080 0.82737   6 
   7  -1   3 8.01747 0.79728   3 
  -8   1  -3 213.332 6.49681   5 
  -8   1  -3 213.536 6.30651   1 
   8  -1   3 208.509 6.23474   6 
   8  -1   3 203.523 7.06261   4 
  -9   1  -3 -0.2318 0.56929   1 
  -9   1  -3 -1.1777 0.66390   5 
   9  -1   3 -1.2316 0.51228   6 
   9  -1   3 0.50096 0.97901   4 
 -10   1  -3 106.244 4.14724   5 
 -10   1  -3 109.423 3.96555   1 
  10  -1   3 107.604 3.95437   6 
  10  -1   3 105.782 4.82130   4 
 -11   1  -3 -0.0558 0.75484   5 
 -11   1  -3 0.51104 0.70612   1 
  11  -1   3 -0.5091 1.05105   4 
  11  -1   3 -0.5023 0.61424   6 
 -12   1  -3 16.5240 1.52337   1 
  12   0  -3 20.3896 1.77074   6 
  12   0  -3 19.8387 1.93415   3 
  12   0  -3 23.3116 2.35427   4 
 -12   0   3 23.1069 1.98432   5 
  11   0  -3 14.0153 1.41957   6 
  11   0  -3 16.7713 1.86883   4 
  11   0  -3 15.9894 1.67264   3 
 -11   0   3 14.8899 1.44991   5 
  10   0  -3 14.3737 1.53399   3 
  10   0  -3 13.2644 1.33091   6 
  10   0  -3 13.0667 1.60302   4 
 -10   0   3 13.1381 1.32673   5 
 -10   0   3 15.6103 1.28491   1 
   9   0  -3 148.272 5.21304   3 
   9   0  -3 150.584 5.00231   6 
   9   0  -3 160.233 5.49446   4 
  -9   0   3 153.476 4.81662   1 
  -9   0   3 146.524 5.03427   5 
   8   0  -3 126.747 4.52470   3 
   8   0  -3 128.740 4.66465   4 
   8   0  -3 130.431 4.32819   6 
  -8   0   3 127.463 4.36377   5 
  -8   0   3 136.592 4.14701   1 
   7   0  -3 328.007 9.63343   4 
   7   0  -3 337.441 9.56134   3 
   7   0  -3 335.972 9.36974   6 
  -7   0   3 347.151 9.17192   1 
  -7   0   3 333.916 9.40983   5 
   6   0  -3 -0.3308 0.42535   4 
   6   0  -3 0.24698 0.23102   2 
   6   0  -3 -0.1696 0.31840   6 
   6   0  -3 0.57882 0.53291   3 
  -6   0   3 -0.1707 0.41854   5 
  -6   0   3 0.30143 0.29913   6 
  -6   0   3 -0.2370 0.33345   1 
   5   0  -3 119.542 3.86052   3 
   5   0  -3 115.353 3.83593   4 
   5   0  -3 121.753 3.71984   6 
  -5   0   3 126.701 3.59540   1 
  -5   0   3 126.142 3.79644   5 
  -5   0   3 121.078 3.63197   6 
   4   0  -3 1.89763 0.30337   2 
   4   0  -3 2.38366 0.46932   3 
   4   0  -3 2.93957 0.47691   4 
   4   0  -3 3.02914 0.42506   6 
  -4   0   3 2.54984 0.44664   5 
  -4   0   3 1.94064 0.33704   6 
   3   0  -3 336.331 8.77767   4 
   3   0  -3 315.394 8.79858   3 
   3   0  -3 339.854 8.74805   6 
   3   0  -3 339.305 8.63051   2 
  -3   0   3 335.164 8.68136   6 
  -3   0   3 342.335 8.80602   5 
  -3   0   3 311.340 8.59844   1 
   2   0  -3 101.541 2.90100   6 
   2   0  -3 108.992 2.90618   2 
   2   0  -3 104.901 2.98799   3 
   2   0  -3 101.302 2.90400   4 
  -2   0   3 99.7493 2.86555   6 
  -2   0   3 101.874 2.91256   4 
  -2   0   3 96.8014 2.94197   5 
  -2   0   3 97.5270 2.79764   1 
   1   0  -3 430.611 11.2060   6 
   1   0  -3 425.957 11.2371   2 
   1   0  -3 421.254 11.2100   3 
  -1   0   3 435.337 11.1535   1 
  -1   0   3 423.560 11.1735   6 
  -1   0   3 475.565 11.2740   4 
  -1   0   3 448.111 11.2605   5 
   0   0  -3 1261.09 33.7586   3 
   0   0  -3 1258.19 33.5976   6 
   0   0  -3 1405.51 33.7169   2 
   0   0   3 1375.75 33.6928   5 
   0   0   3 1384.25 33.8178   4 
   0   0   3 1336.14 33.6105   6 
   0   0   3 1334.20 33.6361   1 
  -1   0  -3 909.212 22.3620   6 
  -1   0  -3 862.811 22.4200   1 
  -1   0  -3 877.958 22.4180   2 
   1   0   3 849.869 22.3373   6 
   1   0   3 872.175 22.3438   6 
   1   0   3 908.957 22.4475   5 
   1   0   3 914.302 22.5826   4 
  -2   0  -3 1190.78 30.7925   1 
  -2   0  -3 1291.26 30.7215   6 
  -2   0  -3 1221.14 30.7314   2 
   2   0   3 1165.54 30.6835   6 
   2   0   3 1196.79 30.6794   6 
   2   0   3 1187.44 30.6802   6 
   2   0   3 1234.20 30.7922   5 
   2   0   3 1256.33 31.0228   4 
  -3   0  -3 739.240 19.1635   6 
  -3   0  -3 776.506 19.1526   2 
  -3   0  -3 736.078 19.3084   1 
   3   0   3 766.256 19.5784   4 
   3   0   3 729.452 19.2820   5 
   3   0   3 787.158 19.1329   3 
   3   0   3 759.540 19.1704   6 
   3   0   3 735.818 19.1869   6 
  -4   0  -3 626.893 15.7267   2 
  -4   0  -3 634.742 15.8556   6 
  -4   0  -3 611.403 15.9989   1 
   4   0   3 631.552 15.7870   3 
   4   0   3 593.822 15.8688   6 
   4   0   3 598.402 15.9844   5 
   4   0   3 629.396 16.3665   4 
   4   0   3 611.724 15.8477   6 
  -5   0  -3 476.061 12.0864   2 
  -5   0  -3 451.854 12.4619   1 
   5   0   3 449.587 12.4807   5 
   5   0   3 476.978 12.9420   4 
   5   0   3 480.076 12.3573   6 
   5   0   3 481.649 12.2985   3 
   5   0   3 491.582 12.3996   6 
  -6   0  -3 95.3782 3.22923   1 
   6   0   3 102.649 3.17562   6 
   6   0   3 103.389 3.14533   3 
   6   0   3 97.1489 3.29329   5 
   6   0   3 99.4589 3.74021   4 
  -7   0  -3 96.6065 3.32291   5 
  -7   0  -3 92.0567 3.22165   1 
   7   0   3 93.3129 3.78150   4 
   7   0   3 97.0693 3.14605   3 
   7   0   3 100.888 3.19323   6 
   7   0   3 90.2895 3.28890   5 
  -8   0  -3 24.0689 1.48579   1 
  -8   0  -3 26.1216 1.58643   5 
   8   0   3 24.5102 2.01408   4 
   8   0   3 26.4327 1.49863   6 
   8   0   3 30.2105 1.54810   3 
  -9   0  -3 196.412 6.11344   5 
  -9   0  -3 188.089 5.92166   1 
   9   0   3 187.574 6.78478   4 
   9   0   3 199.189 6.00529   6 
 -10   0  -3 14.8169 1.38941   5 
 -10   0  -3 13.3980 1.25082   1 
  10   0   3 13.9647 1.30612   6 
  10   0   3 14.5798 1.84110   4 
 -11   0  -3 52.4023 2.51849   1 
 -11   0  -3 49.3816 2.60828   5 
  11   0   3 46.9631 2.51156   6 
  11   0   3 47.2426 3.21877   4 
 -12   0  -3 6.30716 1.14680   5 
 -12   0  -3 6.97559 1.15138   1 
  12   0   3 7.82022 1.15940   6 
  12   0   3 7.61220 1.68876   4 
  12  -1  -3 52.1604 3.03368   3 
  12  -1  -3 50.4327 2.73839   6 
  12  -1  -3 56.3719 3.46838   4 
 -12   1   3 51.8220 2.89410   5 
  11  -1  -3 12.3762 1.77706   4 
  11  -1  -3 14.1945 1.60880   3 
  11  -1  -3 11.3327 1.34563   6 
 -11   1   3 10.2517 1.35156   5 
  10  -1  -3 9.22993 1.35054   3 
  10  -1  -3 8.97106 1.44053   4 
  10  -1  -3 9.30328 1.11596   6 
 -10   1   3 5.77225 1.07023   5 
   9  -1  -3 -0.9826 0.68840   3 
   9  -1  -3 1.32367 0.93990   4 
   9  -1  -3 0.47898 0.60765   6 
  -9   1   3 1.58703 0.73699   5 
  -9   1   3 0.40277 0.60907   1 
   8  -1  -3 131.281 4.58999   3 
   8  -1  -3 130.508 4.32278   6 
   8  -1  -3 134.871 4.84251   4 
  -8   1   3 121.988 4.38372   5 
  -8   1   3 133.545 4.12030   1 
   7  -1  -3 0.95340 0.67182   3 
   7  -1  -3 0.38202 0.66101   4 
   7  -1  -3 0.42133 0.45654   6 
  -7   1   3 0.28956 0.43762   1 
  -7   1   3 -0.1383 0.51244   5 
   6  -1  -3 300.095 8.81156   4 
   6  -1  -3 310.833 8.68069   3 
   6  -1  -3 302.120 8.44438   6 
  -6   1   3 299.006 8.55421   5 
  -6   1   3 314.769 8.24328   1 
   5  -1  -3 74.0700 2.69880   4 
   5  -1  -3 68.1527 2.38068   6 
   5  -1  -3 68.5805 2.57907   3 
  -5   1   3 70.1239 2.21594   1 
  -5   1   3 65.2533 2.45990   5 
  -5   1   3 68.3159 2.27443   6 
   4  -1  -3 78.5752 2.64382   3 
   4  -1  -3 75.5590 2.23618   2 
   4  -1  -3 77.1921 2.49249   6 
   4  -1  -3 74.7840 2.67780   4 
  -4   1   3 76.7353 2.39291   6 
  -4   1   3 80.1187 2.61998   5 
  -4   1   3 77.7326 2.32353   1 
   3  -1  -3 578.008 14.4836   2 
   3  -1  -3 560.400 14.7354   3 
   3  -1  -3 573.944 14.8082   4 
   3  -1  -3 577.403 14.6208   6 
  -3   1   3 557.224 14.5335   6 
  -3   1   3 577.336 14.7358   5 
  -3   1   3 545.200 14.4456   1 
   2  -1  -3 340.603 9.21422   3 
   2  -1  -3 353.135 9.12850   6 
   2  -1  -3 354.921 9.27115   4 
   2  -1  -3 361.759 9.09194   2 
  -2   1   3 362.631 9.23401   5 
  -2   1   3 343.298 8.97152   1 
  -2   1   3 340.277 9.07343   6 
   1  -1  -3 113.646 3.12419   6 
   1  -1  -3 114.871 3.13753   2 
   1  -1  -3 107.983 3.15922   3 
  -1   1   3 112.687 3.16663   5 
  -1   1   3 110.799 2.96320   1 
  -1   1   3 112.461 3.09063   6 
  -1   1   3 114.781 3.22046   4 
   0  -1  -3 298.263 7.90189   1 
   0  -1  -3 309.034 8.01671   2 
   0  -1  -3 303.283 7.97207   6 
   0  -1  -3 291.437 7.95024   3 
   0   1   3 305.264 7.95435   6 
   0   1   3 321.211 7.99920   5 
   0   1   3 329.955 8.12111   4 
   0   1   3 308.704 7.89699   1 
  -1  -1  -3 256.439 6.98843   6 
  -1  -1  -3 265.009 7.03901   2 
  -1  -1  -3 266.413 6.99606   1 
  -1  -1  -3 262.845 6.94053   3 
   1   1   3 285.489 7.21490   4 
   1   1   3 268.311 6.98530   6 
   1   1   3 281.645 7.02595   5 
  -2  -1  -3 415.697 10.9897   1 
  -2  -1  -3 408.327 10.9438   2 
  -2  -1  -3 435.571 10.9686   6 
   2   1   3 418.085 10.9570   5 
   2   1   3 442.091 11.2396   4 
   2   1   3 423.839 10.9376   6 
   2   1   3 429.408 10.9433   6 
   2   1   3 436.087 10.9129   3 
  -3  -1  -3 66.2217 1.97388   2 
  -3  -1  -3 65.3626 2.10041   1 
  -3  -1  -3 65.0122 2.01765   6 
   3   1   3 65.0989 2.00474   6 
   3   1   3 65.4004 1.90008   3 
   3   1   3 62.3147 2.02427   5 
   3   1   3 66.8480 2.34256   4 
  -4  -1  -3 2098.53 51.7885   6 
  -4  -1  -3 2090.24 51.8800   1 
  -4  -1  -3 2084.46 51.7013   2 
   4   1   3 2031.05 51.7526   3 
   4   1   3 2001.83 51.8250   5 
   4   1   3 2091.64 52.2341   4 
   4   1   3 2007.30 51.7657   6 
  -5  -1  -3 247.081 6.52509   2 
  -5  -1  -3 254.512 6.87687   1 
  -5  -1  -3 247.853 6.77880   6 
   5   1   3 251.685 6.72335   3 
   5   1   3 248.241 6.84680   5 
   5   1   3 250.639 7.28586   4 
   5   1   3 244.378 6.76538   6 
  -6  -1  -3 318.635 8.46870   2 
  -6  -1  -3 329.997 8.92905   1 
   6   1   3 326.873 9.42075   4 
   6   1   3 327.731 8.84689   6 
   6   1   3 325.083 8.91623   5 
   6   1   3 336.380 8.82216   3 
  -7  -1  -3 0.93295 0.48380   5 
  -7  -1  -3 1.11343 0.48345   1 
   7   1   3 1.32082 0.53947   5 
   7   1   3 0.06424 0.47780   3 
   7   1   3 1.02247 0.76788   4 
   7   1   3 0.94135 0.45137   6 
  -8  -1  -3 14.4317 1.16360   1 
  -8  -1  -3 15.5391 1.23473   5 
   8   1   3 16.1473 1.16808   6 
   8   1   3 13.2067 1.44566   4 
   8   1   3 17.0902 1.18526   3 
  -9  -1  -3 -1.0168 0.58276   1 
  -9  -1  -3 -0.4169 0.54825   5 
   9   1   3 -1.3811 0.81263   4 
   9   1   3 0.37674 0.63092   6 
   9   1   3 -1.4933 0.48176   3 
 -10  -1  -3 67.4089 2.82373   1 
 -10  -1  -3 67.6790 2.88034   5 
  10   1   3 68.0848 2.86721   6 
  10   1   3 60.7453 3.47702   4 
 -11  -1  -3 7.13898 1.12102   5 
 -11  -1  -3 7.09070 1.05989   1 
  11   1   3 5.55984 1.49073   4 
  11   1   3 5.94713 1.04111   6 
 -12  -1  -3 9.41790 1.24355   1 
 -12  -1  -3 9.22664 1.24297   5 
  12   1   3 9.89630 1.33117   6 
  12   1   3 7.20463 1.66635   4 
 -13  -1  -3 15.2156 1.57329   5 
  12  -2  -3 4.03569 1.29812   3 
  12  -2  -3 3.49951 1.00753   6 
  12  -2  -3 4.08860 1.41867   4 
  11  -2  -3 54.7644 3.38645   4 
  11  -2  -3 52.8776 3.00342   3 
  11  -2  -3 52.6159 2.67351   6 
 -11   2   3 53.5771 2.90544   5 
  10  -2  -3 0.10214 1.02938   4 
  10  -2  -3 1.34758 0.87211   3 
  10  -2  -3 0.64497 0.64640   6 
 -10   2   3 -0.4399 0.72819   5 
   9  -2  -3 261.517 8.43313   4 
   9  -2  -3 258.966 7.64293   6 
   9  -2  -3 253.353 7.97171   3 
  -9   2   3 248.897 7.85931   5 
   8  -2  -3 8.09571 0.95541   6 
   8  -2  -3 6.84402 1.24706   4 
   8  -2  -3 5.60980 1.03816   3 
  -8   2   3 7.65213 1.01978   5 
   7  -2  -3 324.315 9.43174   3 
   7  -2  -3 329.159 9.74367   4 
   7  -2  -3 332.490 9.12903   6 
  -7   2   3 313.130 9.28087   5 
  -7   2   3 333.522 8.86221   1 
   6  -2  -3 2.65560 0.57312   6 
   6  -2  -3 2.07249 0.74608   3 
   6  -2  -3 3.16441 0.90341   4 
  -6   2   3 2.41525 0.64110   5 
  -6   2   3 2.82252 0.48685   1 
   5  -2  -3 317.803 8.94919   3 
   5  -2  -3 314.216 8.67923   6 
   5  -2  -3 320.330 9.14818   4 
  -5   2   3 321.321 8.44176   1 
  -5   2   3 325.474 8.87613   5 
   4  -2  -3 413.714 11.3029   3 
   4  -2  -3 428.109 11.0775   6 
   4  -2  -3 420.466 11.4570   4 
  -4   2   3 416.934 10.8370   1 
  -4   2   3 420.679 10.9601   6 
  -4   2   3 422.583 11.2424   5 
   3  -2  -3 157.826 4.63704   4 
   3  -2  -3 149.512 4.50189   3 
   3  -2  -3 148.704 4.28739   6 
   3  -2  -3 149.454 4.15335   2 
  -3   2   3 158.456 4.48037   5 
  -3   2   3 153.689 4.22803   6 
  -3   2   3 159.587 4.10606   1 
   2  -2  -3 18.3346 1.08407   4 
   2  -2  -3 16.9889 0.97848   3 
   2  -2  -3 18.1332 0.88806   6 
   2  -2  -3 17.8548 0.79922   2 
  -2   2   3 21.0060 0.97083   5 
  -2   2   3 17.7044 0.76404   6 
  -2   2   3 18.3631 0.62085   1 
   1  -2  -3 5193.56 138.283   3 
   1  -2  -3 5326.58 138.083   6 
   1  -2  -3 5824.55 138.456   2 
  -1   2   3 5510.16 137.888   6 
  -1   2   3 5455.07 138.991   5 
  -1   2   3 5670.17 138.915   4 
   0  -2  -3 1085.36 27.4184   6 
   0  -2  -3 1046.66 27.4902   3 
   0  -2  -3 1129.34 27.4816   2 
   0  -2  -3 1074.71 27.4963   1 
   0   2   3 1128.93 27.6460   4 
   0   2   3 1076.97 27.4274   5 
   0   2   3 1065.26 27.3840   6 
  -1  -2  -3 130.508 3.60402   6 
  -1  -2  -3 132.778 3.52933   1 
  -1  -2  -3 129.265 3.60642   3 
  -1  -2  -3 128.731 3.64031   2 
   1   2   3 132.592 3.55051   5 
   1   2   3 143.151 3.84924   4 
   1   2   3 131.813 3.58821   6 
  -2  -2  -3 402.245 10.3164   6 
  -2  -2  -3 400.922 10.2856   1 
  -2  -2  -3 390.795 10.3145   2 
   2   2   3 391.683 10.2351   5 
   2   2   3 399.706 10.2868   3 
   2   2   3 418.071 10.5848   4 
   2   2   3 394.754 10.2850   6 
  -3  -2  -3 589.597 15.1320   6 
  -3  -2  -3 579.125 15.0723   2 
  -3  -2  -3 559.143 15.0960   1 
   3   2   3 607.257 15.1082   3 
   3   2   3 606.726 15.1163   6 
   3   2   3 565.646 15.0332   5 
   3   2   3 623.424 15.4852   4 
  -4  -2  -3 233.834 6.35123   2 
  -4  -2  -3 230.000 6.48199   1 
  -4  -2  -3 235.683 6.46930   6 
   4   2   3 242.321 6.42281   5 
   4   2   3 247.548 6.44788   3 
   4   2   3 240.657 6.46511   6 
   4   2   3 251.718 6.87832   4 
  -5  -2  -3 3127.46 78.4864   6 
  -5  -2  -3 3075.03 78.5130   1 
  -5  -2  -3 3030.76 78.3406   2 
   5   2   3 3161.54 78.4811   5 
   5   2   3 3110.75 78.4977   3 
   5   2   3 3159.87 78.4885   6 
   5   2   3 3211.48 78.9963   4 
  -6  -2  -3 100.328 3.28558   1 
  -6  -2  -3 103.238 3.26349   6 
  -6  -2  -3 101.716 2.98858   2 
  -6  -2  -3 107.777 3.25950   5 
   6   2   3 100.017 3.23433   5 
   6   2   3 104.028 3.25479   3 
   6   2   3 106.717 3.76969   4 
   6   2   3 107.881 3.29074   6 
  -7  -2  -3 243.845 6.85068   5 
  -7  -2  -3 236.312 6.86901   1 
   7   2   3 249.981 6.87554   3 
   7   2   3 245.275 6.89405   6 
   7   2   3 242.579 6.86683   5 
   7   2   3 240.502 7.43047   4 
  -8  -2  -3 112.734 3.64867   5 
  -8  -2  -3 108.787 3.64113   1 
   8   2   3 113.076 3.64923   3 
   8   2   3 104.322 4.17074   4 
   8   2   3 106.285 3.63036   6 
  -9  -2  -3 42.6957 2.02675   5 
  -9  -2  -3 42.9825 2.03059   1 
   9   2   3 44.4629 2.09311   6 
   9   2   3 39.3836 2.53806   4 
   9   2   3 42.0767 2.04687   3 
 -10  -2  -3 2.55595 0.79263   5 
 -10  -2  -3 2.96593 0.76925   1 
  10   2   3 3.33427 0.85254   6 
  10   2   3 2.56317 1.15598   4 
 -11  -2  -3 68.5263 3.05863   1 
 -11  -2  -3 78.9291 3.19822   5 
  11   2   3 75.5578 3.23365   6 
  11   2   3 74.2255 3.90259   4 
 -12  -2  -3 5.52108 1.09684   1 
 -12  -2  -3 6.75568 1.07242   5 
  12   2   3 6.85856 1.17256   6 
  12   2   3 7.85709 1.69205   4 
 -13  -2  -3 18.9368 1.70609   1 
 -13  -2  -3 14.9654 1.49401   5 
  13   2   3 18.3130 1.69803   6 
  11  -3  -3 0.99616 0.99159   3 
  11  -3  -3 0.50877 0.70465   6 
  11  -3  -3 1.05239 1.18215   4 
 -11   3   3 1.05669 0.91314   5 
  10  -3  -3 24.2271 2.30978   4 
  10  -3  -3 24.5942 1.69874   6 
  10  -3  -3 26.4892 2.12635   3 
 -10   3   3 27.4283 2.02334   5 
   9  -3  -3 0.19965 0.83380   3 
   9  -3  -3 1.30559 0.65288   6 
   9  -3  -3 -0.9576 0.84088   4 
  -9   3   3 -1.6207 0.61679   5 
   8  -3  -3 71.2134 3.22053   3 
   8  -3  -3 79.8192 3.65396   4 
   8  -3  -3 78.2594 2.94398   6 
  -8   3   3 74.6950 3.17467   5 
   7  -3  -3 13.0836 1.43934   4 
   7  -3  -3 13.2806 1.05788   6 
   7  -3  -3 11.8189 1.26207   3 
  -7   3   3 12.3887 1.18140   5 
   6  -3  -3 497.558 13.8096   3 
   6  -3  -3 515.775 14.1903   4 
   6  -3  -3 513.998 13.4729   6 
  -6   3   3 502.267 13.1735   1 
  -6   3   3 499.607 13.7337   5 
   5  -3  -3 41.5941 1.42179   2 
   5  -3  -3 41.9071 2.03048   3 
   5  -3  -3 44.0890 1.74083   6 
   5  -3  -3 44.4837 2.25138   4 
  -5   3   3 42.9757 1.52394   1 
  -5   3   3 40.6527 1.91334   5 
   4  -3  -3 537.037 14.1005   6 
   4  -3  -3 530.965 14.4212   3 
   4  -3  -3 545.970 14.6666   4 
   4  -3  -3 536.834 13.8874   2 
   4  -3  -3 566.132 14.1096   6 
  -4   3   3 539.481 13.8608   1 
  -4   3   3 540.551 14.3583   5 
   3  -3  -3 332.767 9.13566   3 
   3  -3  -3 325.095 8.82246   6 
   3  -3  -3 327.719 9.28946   4 
   3  -3  -3 344.327 8.82922   6 
   3  -3  -3 343.666 8.74600   2 
  -3   3   3 341.635 9.07492   5 
  -3   3   3 332.186 8.60036   1 
   2  -3  -3 165.306 4.39556   6 
   2  -3  -3 162.454 4.78548   4 
   2  -3  -3 149.948 4.61839   3 
   2  -3  -3 158.958 4.36431   2 
  -2   3   3 160.651 4.15244   1 
  -2   3   3 163.717 4.58907   5 
   1  -3  -3 211.960 5.60897   2 
   1  -3  -3 209.238 5.79382   3 
   1  -3  -3 210.223 5.53377   6 
   1  -3  -3 212.085 5.56906   6 
  -1   3   3 203.006 5.68011   5 
  -1   3   3 210.757 5.92147   4 
   0  -3  -3 467.267 11.1355   6 
   0  -3  -3 414.015 11.2597   3 
   0  -3  -3 425.826 11.1694   2 
   0  -3  -3 417.265 11.0600   6 
   0   3   3 431.712 11.1375   5 
   0   3   3 446.857 11.4154   4 
   0   3   3 426.093 11.0711   6 
  -1  -3  -3 185.962 5.13993   2 
  -1  -3  -3 182.737 5.17368   3 
  -1  -3  -3 191.952 4.95844   1 
  -1  -3  -3 182.280 5.06720   6 
   1   3   3 199.138 5.00860   5 
   1   3   3 193.688 5.06357   6 
   1   3   3 200.596 5.35495   4 
  -2  -3  -3 39.9995 1.37823   6 
  -2  -3  -3 42.6616 1.44734   3 
  -2  -3  -3 42.2111 1.32347   1 
  -2  -3  -3 40.5592 1.43371   2 
   2   3   3 43.2154 1.37444   6 
   2   3   3 43.3123 1.65754   4 
   2   3   3 41.7865 1.24988   5 
  -3  -3  -3 52.2067 1.73914   6 
  -3  -3  -3 49.8785 1.69923   2 
  -3  -3  -3 51.6595 1.67040   1 
   3   3   3 51.7091 1.68214   6 
   3   3   3 51.4179 1.73627   3 
   3   3   3 55.8393 2.01372   4 
   3   3   3 52.3890 1.54293   5 
  -4  -3  -3 501.891 13.4380   6 
  -4  -3  -3 501.738 13.3712   2 
  -4  -3  -3 514.587 13.4277   1 
   4   3   3 523.733 13.4901   3 
   4   3   3 534.364 13.4503   6 
   4   3   3 512.434 13.2862   5 
   4   3   3 547.051 13.8533   4 
  -5  -3  -3 16.8094 0.91323   2 
  -5  -3  -3 15.9541 0.98968   1 
  -5  -3  -3 17.3846 0.96491   6 
   5   3   3 14.9007 0.90122   6 
   5   3   3 16.5787 1.25340   4 
   5   3   3 16.2902 1.01161   3 
   5   3   3 17.3640 0.85618   5 
  -6  -3  -3 303.145 7.97237   5 
  -6  -3  -3 294.086 8.09849   1 
  -6  -3  -3 296.822 7.88721   2 
  -6  -3  -3 298.716 8.10577   6 
   6   3   3 288.050 8.51787   4 
   6   3   3 296.577 8.09387   6 
   6   3   3 298.216 7.97167   5 
   6   3   3 296.293 8.12228   3 
  -7  -3  -3 -0.4238 0.41043   5 
  -7  -3  -3 0.37437 0.44448   1 
  -7  -3  -3 0.03063 0.31360   2 
   7   3   3 0.42072 0.66650   4 
   7   3   3 -0.0664 0.41732   6 
   7   3   3 0.16109 0.45755   3 
  -8  -3  -3 41.5716 1.87712   1 
  -8  -3  -3 42.3060 1.83753   5 
   8   3   3 39.6469 2.31695   4 
   8   3   3 44.9420 1.99210   3 
   8   3   3 42.9529 1.91457   6 
  -9  -3  -3 7.79047 0.88437   5 
  -9  -3  -3 8.86961 0.95460   1 
   9   3   3 8.43695 0.99560   6 
   9   3   3 7.86221 0.97327   3 
   9   3   3 7.88504 1.27297   4 
 -10  -3  -3 76.6082 3.12664   1 
 -10  -3  -3 81.0752 3.12029   5 
  10   3   3 80.9060 3.82275   4 
  10   3   3 85.0745 3.32442   6 
  10   3   3 85.8464 3.32074   3 
 -11  -3  -3 17.4254 1.51288   1 
 -11  -3  -3 13.6253 1.27156   5 
  11   3   3 13.7335 1.42270   6 
  11   3   3 14.6133 1.81238   4 
 -12  -3  -3 46.2067 2.43275   5 
 -12  -3  -3 46.2044 2.52142   1 
  12   3   3 47.3498 2.60664   6 
  12   3   3 45.7166 3.16738   4 
 -13  -3  -3 33.3440 2.21713   1 
  13   3   3 31.4529 2.75013   4 
  11  -4  -3 61.7917 3.35474   3 
  10  -4  -3 23.1889 2.03442   3 
  10  -4  -3 16.0252 1.96630   4 
  10  -4  -3 20.4651 1.53805   6 
 -10   4   3 17.6280 1.69981   5 
   9  -4  -3 10.4798 1.57086   4 
   9  -4  -3 11.9717 1.13173   6 
   9  -4  -3 11.8206 1.45231   3 
  -9   4   3 8.58167 1.22785   5 
   8  -4  -3 43.0970 2.49905   3 
   8  -4  -3 44.9038 2.05196   6 
   8  -4  -3 42.2977 2.74908   4 
  -8   4   3 42.8166 2.34992   5 
   7  -4  -3 53.4226 2.91423   4 
   7  -4  -3 53.3388 2.65615   3 
   7  -4  -3 56.0751 2.22877   6 
  -7   4   3 53.3828 2.51651   5 
   6  -4  -3 16.6909 1.56929   3 
   6  -4  -3 16.5853 1.11885   6 
   6  -4  -3 19.0000 1.70875   4 
  -6   4   3 15.0834 1.35269   5 
   5  -4  -3 386.052 10.8578   3 
   5  -4  -3 389.157 11.1684   4 
   5  -4  -3 391.595 10.3951   6 
  -5   4   3 387.634 10.7550   5 
   4  -4  -3 207.279 6.41542   4 
   4  -4  -3 205.150 6.15272   3 
   4  -4  -3 209.486 5.73278   6 
  -4   4   3 207.318 6.05892   5 
  -4   4   3 203.771 5.48664   1 
   3  -4  -3 385.720 9.83356   2 
   3  -4  -3 368.303 10.4271   4 
   3  -4  -3 363.856 10.2324   3 
   3  -4  -3 365.976 9.81229   6 
   3  -4  -3 388.368 9.84278   6 
  -3   4   3 370.840 9.59840   1 
  -3   4   3 381.775 10.1414   5 
   2  -4  -3 156.252 4.88562   4 
   2  -4  -3 158.004 4.43412   2 
   2  -4  -3 166.185 4.37492   6 
   2  -4  -3 162.139 4.38476   6 
   2  -4  -3 154.490 4.73264   3 
  -2   4   3 160.632 4.14588   1 
  -2   4   3 158.280 4.61389   5 
   1  -4  -3 1672.22 42.6800   2 
   1  -4  -3 1744.63 42.6010   6 
   1  -4  -3 1711.39 42.5394   6 
   1  -4  -3 1677.13 42.9002   3 
   1  -4  -3 1685.00 43.0637   4 
  -1   4   3 1668.58 42.7388   5 
  -1   4   3 1690.48 43.0671   4 
   0  -4  -3 120.634 3.13519   1 
   0  -4  -3 118.072 3.28222   6 
   0  -4  -3 117.110 3.58690   3 
   0  -4  -3 120.246 3.45429   2 
   0  -4  -3 121.357 3.32488   6 
   0   4   3 121.150 3.39001   5 
   0   4   3 120.253 3.70702   4 
  -1  -4  -3 280.371 7.71225   2 
  -1  -4  -3 283.024 7.80063   3 
  -1  -4  -3 290.150 7.51027   1 
  -1  -4  -3 294.268 7.57770   6 
  -1  -4  -3 299.705 7.60254   6 
   1   4   3 295.295 7.53416   5 
   1   4   3 298.185 7.93100   4 
   1   4   3 284.777 7.55698   6 
   1   4   3 293.048 7.56578   6 
  -2  -4  -3 54.3820 1.61011   1 
  -2  -4  -3 47.4886 1.76752   3 
  -2  -4  -3 49.1058 1.73375   2 
  -2  -4  -3 50.6520 1.65210   6 
   2   4   3 51.9922 1.94154   4 
   2   4   3 51.3608 1.44319   5 
   2   4   3 52.0552 1.61509   6 
  -3  -4  -3 26.7686 1.16085   6 
  -3  -4  -3 30.8853 1.12309   1 
  -3  -4  -3 27.9530 1.18898   2 
   3   4   3 27.2323 1.22043   3 
   3   4   3 29.2098 1.09792   6 
   3   4   3 30.6858 1.42499   4 
   3   4   3 28.2676 0.87945   5 
  -4  -4  -3 0.91842 0.32254   1 
  -4  -4  -3 0.73392 0.29926   2 
  -4  -4  -3 0.89230 0.28669   6 
   4   4   3 1.36344 0.47723   4 
   4   4   3 1.59030 0.30717   6 
   4   4   3 0.75239 0.19300   5 
   4   4   3 0.95153 0.36204   3 
  -5  -4  -3 432.820 10.9318   5 
  -5  -4  -3 409.896 11.1158   2 
  -5  -4  -3 407.958 11.1760   6 
  -5  -4  -3 412.554 11.1636   1 
   5   4   3 430.139 11.1784   6 
   5   4   3 429.236 10.9399   5 
   5   4   3 439.406 11.6085   4 
   5   4   3 432.072 11.3108   3 
  -6  -4  -3 167.595 5.01266   6 
  -6  -4  -3 180.907 4.81579   5 
  -6  -4  -3 169.326 5.02379   1 
  -6  -4  -3 165.590 4.87628   2 
   6   4   3 175.563 5.44477   4 
   6   4   3 178.045 5.04145   6 
   6   4   3 177.439 5.14384   3 
  -7  -4  -3 158.409 4.46703   5 
  -7  -4  -3 149.623 4.65773   1 
  -7  -4  -3 147.801 4.64758   6 
  -7  -4  -3 156.889 4.46762   2 
   7   4   3 156.857 4.78234   3 
   7   4   3 158.642 4.70295   6 
   7   4   3 154.323 5.10642   4 
  -8  -4  -3 163.627 4.88916   5 
  -8  -4  -3 160.210 5.07633   1 
   8   4   3 168.888 5.60231   4 
   8   4   3 171.722 5.22715   3 
   8   4   3 173.044 5.15065   6 
  -9  -4  -3 105.640 3.48429   5 
  -9  -4  -3 101.284 3.65728   1 
   9   4   3 105.164 4.18341   4 
   9   4   3 106.793 3.72899   6 
   9   4   3 106.328 3.76760   3 
 -10  -4  -3 1.03717 0.66259   1 
 -10  -4  -3 0.67610 0.61655   5 
  10   4   3 2.79521 0.83247   6 
  10   4   3 1.01611 0.76612   3 
  10   4   3 -0.2549 0.98420   4 
 -11  -4  -3 98.9855 3.82919   1 
 -11  -4  -3 107.631 3.77512   5 
  11   4   3 102.255 4.00594   3 
  11   4   3 97.7879 4.43436   4 
 -12  -4  -3 17.6181 1.57903   1 
  12   4   3 20.4824 2.17325   4 
 -13  -4  -3 43.8435 2.52111   1 
  13   4   3 44.7315 3.20255   4 
  10  -5  -3 56.3277 2.60733   6 
  10  -5  -3 62.1716 3.26004   3 
  10  -5  -3 59.8075 3.63870   4 
 -10   5   3 54.1883 3.06834   5 
   9  -5  -3 5.11266 1.37057   4 
   9  -5  -3 2.54546 0.74924   6 
   9  -5  -3 4.20037 1.15208   3 
  -9   5   3 4.42370 1.08535   5 
   8  -5  -3 64.5449 3.51919   4 
   8  -5  -3 68.0786 2.64756   6 
   8  -5  -3 66.4039 3.21659   3 
  -8   5   3 65.0459 3.07909   5 
   7  -5  -3 10.1113 1.29731   3 
   7  -5  -3 10.5883 0.95298   6 
   7  -5  -3 9.85179 1.44971   4 
  -7   5   3 10.3552 1.15647   5 
   6  -5  -3 230.582 7.57766   4 
   6  -5  -3 233.624 7.19568   3 
   6  -5  -3 230.639 6.57870   6 
  -6   5   3 232.021 7.08237   5 
   5  -5  -3 29.3619 2.02048   4 
   5  -5  -3 30.0574 1.36899   6 
   5  -5  -3 27.6395 1.84439   3 
  -5   5   3 27.8155 1.66560   5 
   4  -5  -3 154.311 5.03298   3 
   4  -5  -3 157.169 5.30082   4 
   4  -5  -3 158.133 4.49089   6 
  -4   5   3 158.977 4.91698   5 
   3  -5  -3 99.9104 2.96518   6 
   3  -5  -3 103.493 2.98628   6 
   3  -5  -3 98.3261 3.04417   2 
   3  -5  -3 98.4769 3.63923   4 
   3  -5  -3 101.582 3.50956   3 
  -3   5   3 99.2785 3.31494   5 
  -3   5   3 97.9905 2.77387   1 
   2  -5  -3 395.402 10.6230   2 
   2  -5  -3 401.369 10.9775   3 
   2  -5  -3 398.237 11.1567   4 
   2  -5  -3 403.321 10.4788   6 
   2  -5  -3 419.193 10.4797   6 
  -2   5   3 398.826 10.7866   5 
  -2   5   3 408.348 10.3150   1 
   1  -5  -3 -0.1948 0.22906   6 
   1  -5  -3 0.30984 0.41173   3 
   1  -5  -3 -0.1965 0.16467   6 
   1  -5  -3 0.94566 0.45703   4 
   1  -5  -3 0.18183 0.32534   2 
  -1   5   3 -0.4588 0.16429   1 
  -1   5   3 0.55635 0.29031   5 
  -1   5   3 0.12760 0.41121   4 
   0  -5  -3 1384.44 34.7198   6 
   0  -5  -3 1391.68 35.1207   3 
   0  -5  -3 1397.34 34.9454   2 
   0  -5  -3 1369.53 34.6475   1 
   0  -5  -3 1352.75 34.6599   6 
   0   5   3 1388.09 35.2615   4 
   0   5   3 1359.06 34.8293   5 
  -1  -5  -3 18.6819 1.00336   2 
  -1  -5  -3 16.8131 0.71221   1 
  -1  -5  -3 15.8591 0.72835   6 
  -1  -5  -3 15.9603 1.00604   3 
  -1  -5  -3 15.1392 0.74133   6 
   1   5   3 18.1977 0.76299   5 
   1   5   3 18.0756 1.15065   4 
  -2  -5  -3 725.354 17.9050   6 
  -2  -5  -3 698.562 18.0832   2 
  -2  -5  -3 696.219 18.1514   3 
  -2  -5  -3 690.097 17.8476   6 
  -2  -5  -3 685.067 17.8628   1 
   2   5   3 710.779 18.2750   4 
   2   5   3 700.968 17.7402   5 
  -3  -5  -3 7.01568 0.63162   2 
  -3  -5  -3 8.26335 0.65141   1 
  -3  -5  -3 8.40048 0.60754   6 
  -3  -5  -3 8.97361 0.80439   3 
   3   5   3 9.27734 0.57011   6 
   3   5   3 8.77213 0.77941   3 
   3   5   3 9.15778 0.93971   4 
  -4  -5  -3 132.797 3.77306   1 
  -4  -5  -3 128.085 3.73767   6 
  -4  -5  -3 123.829 3.80785   2 
   4   5   3 128.842 3.70900   6 
   4   5   3 132.165 4.08213   4 
   4   5   3 125.313 3.90786   3 
  -5  -5  -3 25.2972 1.23517   1 
  -5  -5  -3 26.3192 0.88413   5 
  -5  -5  -3 23.9964 1.22487   2 
  -5  -5  -3 24.8048 1.21095   6 
   5   5   3 26.2563 1.40141   3 
   5   5   3 24.0047 1.48591   4 
   5   5   3 24.0354 1.17289   6 
  -6  -5  -3 446.955 12.2324   6 
  -6  -5  -3 469.607 11.8988   5 
  -6  -5  -3 451.843 12.2558   1 
  -6  -5  -3 451.503 12.1982   2 
   6   5   3 463.729 12.4369   3 
   6   5   3 477.277 12.7007   4 
   6   5   3 473.086 12.2618   6 
  -7  -5  -3 157.213 4.73839   2 
  -7  -5  -3 155.078 4.87656   6 
  -7  -5  -3 160.385 4.90401   1 
  -7  -5  -3 164.635 4.56794   5 
   7   5   3 163.404 5.32745   4 
   7   5   3 170.470 4.94336   6 
   7   5   3 167.336 5.07359   3 
  -8  -5  -3 166.640 5.18598   1 
  -8  -5  -3 168.193 4.95666   2 
  -8  -5  -3 172.652 4.87120   5 
  -8  -5  -3 173.304 5.19539   6 
   8   5   3 165.767 5.31148   3 
   8   5   3 172.256 5.20022   6 
   8   5   3 165.727 5.59685   4 
  -9  -5  -3 13.7215 1.17424   1 
  -9  -5  -3 15.4635 1.07129   5 
   9   5   3 13.2229 1.26253   3 
   9   5   3 13.4189 1.47781   4 
 -10  -5  -3 120.973 4.32042   1 
  10   5   3 127.683 4.87485   4 
  10   5   3 127.968 4.49894   3 
 -11  -5  -3 16.3806 1.43750   1 
  11   5   3 16.9109 1.83619   4 
  11   5   3 15.5318 1.56880   3 
 -12  -5  -3 77.2430 3.35969   1 
  12   5   3 69.4825 3.76425   4 
 -13  -5  -3 7.86841 1.27679   1 
  13   5   3 6.08505 1.61897   4 
  10  -6  -3 2.21931 1.03209   3 
   9  -6  -3 39.8944 2.00291   6 
   9  -6  -3 42.3377 2.69229   3 
   9  -6  -3 37.0710 2.89410   4 
  -9   6   3 38.2806 2.49814   5 
   8  -6  -3 4.74746 0.78156   6 
   8  -6  -3 3.92977 1.29871   4 
   8  -6  -3 5.97526 1.17865   3 
  -8   6   3 3.85343 1.00530   5 
   7  -6  -3 189.934 6.30659   3 
   7  -6  -3 181.279 5.46731   6 
   7  -6  -3 175.485 6.61400   4 
  -7   6   3 186.030 6.15151   5 
   6  -6  -3 15.9213 1.65661   4 
   6  -6  -3 14.0859 1.00497   6 
   6  -6  -3 15.5588 1.48273   3 
  -6   6   3 14.6700 1.33527   5 
   5  -6  -3 161.021 4.65280   6 
   5  -6  -3 158.131 5.65658   4 
   5  -6  -3 156.613 5.33136   3 
  -5   6   3 162.536 5.22842   5 
   4  -6  -3 202.098 5.54637   6 
   4  -6  -3 191.980 6.45126   4 
   4  -6  -3 200.329 6.24935   3 
  -4   6   3 200.537 6.07330   5 
   3  -6  -3 66.4087 2.08680   6 
   3  -6  -3 62.4289 2.81621   4 
   3  -6  -3 60.5722 2.64775   3 
  -3   6   3 64.9283 2.49879   5 
   2  -6  -3 3.25833 0.39531   6 
   2  -6  -3 4.23392 0.58826   2 
   2  -6  -3 3.86604 0.38439   6 
   2  -6  -3 3.09806 0.69703   4 
   2  -6  -3 2.76642 0.66321   3 
  -2   6   3 3.40319 0.33627   1 
  -2   6   3 2.92698 0.55667   5 
  -2   6   3 3.59775 0.74577   4 
   1  -6  -3 511.224 13.7923   3 
   1  -6  -3 512.389 13.9545   4 
   1  -6  -3 516.226 13.5078   2 
   1  -6  -3 518.220 13.2032   6 
   1  -6  -3 526.700 13.1831   6 
  -1   6   3 498.018 13.9293   4 
  -1   6   3 522.534 13.1132   1 
  -1   6   3 503.436 13.4809   5 
   0  -6  -3 74.9529 2.20004   6 
   0  -6  -3 70.5113 2.62862   3 
   0  -6  -3 74.2439 2.09784   1 
   0  -6  -3 73.3642 2.49905   2 
   0  -6  -3 75.4583 2.16793   6 
   0   6   3 73.4477 2.35509   5 
   0   6   3 69.6336 2.74508   4 
  -1  -6  -3 654.799 16.5783   1 
  -1  -6  -3 664.079 16.9529   2 
  -1  -6  -3 654.896 17.0963   3 
  -1  -6  -3 637.070 16.6257   6 
  -1  -6  -3 647.107 16.5997   6 
   1   6   3 647.126 16.6579   5 
   1   6   3 655.929 17.1909   4 
  -2  -6  -3 169.319 4.60363   6 
  -2  -6  -3 165.525 4.95536   3 
  -2  -6  -3 169.208 4.87362   2 
  -2  -6  -3 168.084 4.59312   1 
  -2  -6  -3 166.252 4.57213   6 
   2   6   3 164.420 4.40758   5 
   2   6   3 167.973 5.05403   4 
  -3  -6  -3 71.1807 2.28542   1 
  -3  -6  -3 71.5294 2.26171   6 
  -3  -6  -3 70.6835 2.22148   6 
  -3  -6  -3 68.6865 2.44125   2 
  -3  -6  -3 71.7592 2.23793   6 
  -3  -6  -3 72.3976 2.54913   3 
   3   6   3 73.0889 2.64143   4 
   3   6   3 72.1352 2.57202   3 
  -4  -6  -3 -0.4240 0.31440   1 
  -4  -6  -3 0.07492 0.34884   2 
  -4  -6  -3 -0.3569 0.20758   6 
   4   6   3 -0.0341 0.39721   3 
   4   6   3 0.27149 0.23011   6 
   4   6   3 -0.0877 0.45979   4 
  -5  -6  -3 596.386 15.6683   6 
  -5  -6  -3 591.900 15.7131   1 
  -5  -6  -3 585.671 15.7693   2 
   5   6   3 620.866 16.0839   4 
   5   6   3 593.983 15.9247   3 
   5   6   3 623.280 15.6687   6 
  -6  -6  -3 9.29849 0.84760   1 
  -6  -6  -3 9.37479 0.51563   5 
  -6  -6  -3 8.98939 0.78325   6 
  -6  -6  -3 9.20714 0.82821   2 
   6   6   3 8.74236 0.75467   6 
   6   6   3 8.80084 1.02782   4 
   6   6   3 10.1723 0.97773   3 
  -7  -6  -3 194.188 5.80084   6 
  -7  -6  -3 196.942 5.76902   2 
  -7  -6  -3 195.705 5.86676   1 
   7   6   3 199.996 6.04891   3 
   7   6   3 204.726 6.26168   4 
  -8  -6  -3 144.437 4.44335   2 
  -8  -6  -3 148.829 4.59544   6 
  -8  -6  -3 136.236 4.56454   1 
   8   6   3 142.872 4.76501   3 
   8   6   3 145.436 4.98205   4 
  -9  -6  -3 168.401 5.35635   1 
   9   6   3 169.792 5.75422   4 
   9   6   3 166.618 5.49510   3 
 -10  -6  -3 3.93349 0.90037   1 
  10   6   3 3.18572 0.98261   3 
  10   6   3 2.88202 1.09389   4 
 -11  -6  -3 52.2279 2.58527   1 
  11   6   3 53.8903 3.00223   4 
  11   6   3 52.9956 2.72574   3 
 -12  -6  -3 10.9264 1.34461   1 
  12   6   3 7.76598 1.37186   3 
  12   6   3 8.75311 1.59144   4 
 -13  -6  -3 52.3621 2.79065   1 
  13   6   3 43.0353 3.07514   4 
  14   6   3 -0.1732 1.19580   4 
   9  -7  -3 11.1148 1.52330   3 
   8  -7  -3 36.0747 2.53775   3 
   8  -7  -3 39.6528 1.86477   6 
   8  -7  -3 40.5795 2.89099   4 
  -8   7   3 40.2538 2.50805   5 
   7  -7  -3 0.37731 0.94261   4 
   7  -7  -3 1.18694 0.86006   3 
   7  -7  -3 0.55232 0.46803   6 
  -7   7   3 0.44293 0.72238   5 
   6  -7  -3 158.372 5.55976   3 
   6  -7  -3 159.238 5.93072   4 
   6  -7  -3 150.501 4.62005   6 
  -6   7   3 153.547 5.35256   5 
   5  -7  -3 -0.5952 0.67947   3 
   5  -7  -3 0.34986 0.36292   6 
   5  -7  -3 0.83886 0.78080   4 
  -5   7   3 -1.0359 0.48236   5 
   4  -7  -3 69.2896 3.06032   3 
   4  -7  -3 71.9376 2.34170   6 
   4  -7  -3 71.9065 3.30923   4 
  -4   7   3 71.1981 2.90259   5 
   3  -7  -3 264.731 7.30776   2 
   3  -7  -3 257.779 6.95780   6 
   3  -7  -3 251.013 7.97978   4 
   3  -7  -3 259.083 7.78169   3 
  -3   7   3 264.276 7.56936   5 
   2  -7  -3 114.382 3.13860   6 
   2  -7  -3 108.199 3.11482   6 
   2  -7  -3 102.726 3.95110   4 
   2  -7  -3 105.825 3.82053   3 
   2  -7  -3 106.088 3.46633   2 
  -2   7   3 109.262 3.58060   5 
  -2   7   3 103.840 3.97001   4 
   1  -7  -3 0.35090 0.27148   6 
   1  -7  -3 0.45796 0.24487   1 
   1  -7  -3 1.87337 0.50721   2 
   1  -7  -3 0.78355 0.25076   6 
   1  -7  -3 0.66099 0.52440   3 
  -1   7   3 0.17331 0.54526   4 
  -1   7   3 0.67415 0.41011   5 
   0  -7  -3 686.074 17.8497   2 
   0  -7  -3 695.473 17.3886   1 
   0  -7  -3 678.165 18.0711   3 
   0  -7  -3 668.738 17.4214   6 
   0  -7  -3 680.640 17.3845   6 
   0   7   3 680.239 18.2349   4 
   0   7   3 691.247 17.6741   5 
  -1  -7  -3 131.128 3.65455   6 
  -1  -7  -3 128.966 4.04569   2 
  -1  -7  -3 130.909 3.63448   1 
  -1  -7  -3 132.756 4.22122   3 
  -1  -7  -3 131.915 3.63208   6 
   1   7   3 127.714 3.71975   5 
   1   7   3 127.312 4.26526   4 
  -2  -7  -3 355.878 9.45356   6 
  -2  -7  -3 368.503 9.50468   6 
  -2  -7  -3 362.945 9.50729   1 
  -2  -7  -3 364.602 9.86819   2 
  -2  -7  -3 362.532 9.99012   3 
   2   7   3 358.506 9.36350   5 
   2   7   3 363.955 10.0508   4 
  -3  -7  -3 234.241 6.39529   6 
  -3  -7  -3 241.563 6.72711   2 
  -3  -7  -3 232.402 6.34696   6 
  -3  -7  -3 238.762 6.37160   6 
  -3  -7  -3 234.205 6.80507   3 
  -3  -7  -3 237.934 6.45030   1 
   3   7   3 229.461 6.79615   3 
   3   7   3 237.631 6.89638   4 
  -4  -7  -3 173.755 4.89530   6 
  -4  -7  -3 174.816 4.97558   1 
  -4  -7  -3 171.134 5.14658   2 
   4   7   3 171.405 5.25713   3 
   4   7   3 172.929 5.31753   4 
  -5  -7  -3 10.8802 0.94710   1 
  -5  -7  -3 9.60515 0.74401   6 
  -5  -7  -3 7.98117 0.82352   2 
   5   7   3 8.48841 0.98584   4 
   5   7   3 8.70421 0.91945   3 
  -6  -7  -3 637.362 16.6690   1 
  -6  -7  -3 635.433 16.5590   6 
  -6  -7  -3 618.612 16.6739   2 
   6   7   3 624.915 16.8858   3 
   6   7   3 646.503 16.9966   4 
  -7  -7  -3 57.8607 2.36685   1 
  -7  -7  -3 57.1819 2.26895   6 
  -7  -7  -3 60.7710 2.42234   2 
   7   7   3 56.0093 2.63214   4 
   7   7   3 60.3381 2.59083   3 
  -8  -7  -3 61.1391 2.59332   1 
  -8  -7  -3 67.0315 2.61580   2 
  -8  -7  -3 66.2401 2.60883   6 
   8   7   3 65.1699 2.83502   3 
   8   7   3 68.5677 3.00618   4 
  -9  -7  -3 28.3647 1.67476   2 
  -9  -7  -3 30.3637 1.75260   6 
  -9  -7  -3 29.2937 1.76393   1 
   9   7   3 27.9497 2.08674   4 
   9   7   3 29.8186 1.91956   3 
 -10  -7  -3 84.6053 3.35545   1 
  10   7   3 81.6568 3.48341   3 
  10   7   3 83.5082 3.69177   4 
 -11  -7  -3 11.1625 1.27550   1 
  11   7   3 11.2177 1.40937   3 
  11   7   3 13.2337 1.59358   4 
 -12  -7  -3 27.1585 2.00468   1 
  12   7   3 31.3320 2.43874   4 
  12   7   3 29.4373 2.17021   3 
 -13  -7  -3 6.44518 1.23264   1 
  13   7   3 6.70787 1.55653   4 
  13   7   3 6.84887 1.35571   3 
   8  -8  -3 28.3726 2.23816   3 
   7  -8  -3 41.9042 2.97396   4 
   7  -8  -3 44.7538 1.86506   6 
   7  -8  -3 42.1731 2.68755   3 
  -7   8   3 42.6550 2.55480   5 
   6  -8  -3 1.77579 0.89991   3 
   6  -8  -3 1.41755 0.94584   4 
   6  -8  -3 1.18710 0.48605   6 
  -6   8   3 2.07337 0.82192   5 
   5  -8  -3 203.216 5.64708   6 
   5  -8  -3 196.242 7.02080   4 
   5  -8  -3 201.953 6.70345   3 
  -5   8   3 197.181 6.46334   5 
   4  -8  -3 20.3866 1.87071   4 
   4  -8  -3 21.7647 1.78202   3 
   4  -8  -3 22.5833 1.08080   6 
  -4   8   3 18.4824 1.52406   5 
   3  -8  -3 37.4959 1.42551   6 
   3  -8  -3 39.8044 2.19261   3 
   3  -8  -3 35.7532 2.27945   4 
  -3   8   3 39.3922 2.00184   5 
  -3   8   3 35.5137 2.28026   4 
   2  -8  -3 77.6274 3.41920   4 
   2  -8  -3 81.8219 2.50145   6 
   2  -8  -3 84.9061 3.32804   3 
   2  -8  -3 86.5600 3.02950   2 
  -2   8   3 84.8568 3.10156   5 
  -2   8   3 80.7757 3.46110   4 
   1  -8  -3 161.961 4.91014   2 
   1  -8  -3 167.247 4.36992   6 
   1  -8  -3 155.574 5.15682   3 
   1  -8  -3 152.531 4.35527   6 
  -1   8   3 153.426 5.31419   4 
  -1   8   3 160.023 4.83049   5 
   0  -8  -3 83.2950 2.92894   2 
   0  -8  -3 78.0670 2.40262   6 
   0  -8  -3 78.7758 3.08062   3 
   0  -8  -3 81.2479 2.43268   1 
   0  -8  -3 82.0905 2.39529   6 
   0   8   3 77.6370 3.20475   4 
   0   8   3 81.4534 2.70744   5 
  -1  -8  -3 1054.98 26.5903   6 
  -1  -8  -3 1028.01 27.3153   3 
  -1  -8  -3 1033.98 26.6242   6 
  -1  -8  -3 1067.85 26.6662   1 
  -1  -8  -3 1071.26 27.1767   2 
   1   8   3 1066.03 26.7830   5 
   1   8   3 1030.41 27.4290   4 
  -2  -8  -3 6.08437 0.49427   6 
  -2  -8  -3 5.67645 0.51354   6 
  -2  -8  -3 6.38655 0.58316   1 
  -2  -8  -3 5.16571 0.79100   2 
  -2  -8  -3 5.06640 0.75694   3 
   2   8   3 6.13571 0.89877   4 
  -3  -8  -3 285.029 7.63838   6 
  -3  -8  -3 287.576 8.07217   2 
  -3  -8  -3 275.566 8.14173   3 
  -3  -8  -3 290.630 7.72719   1 
   3   8   3 283.376 8.21274   4 
   3   8   3 284.906 8.17999   3 
  -4  -8  -3 54.5324 1.92053   6 
  -4  -8  -3 48.5727 2.20052   2 
  -4  -8  -3 53.8921 2.02449   1 
   4   8   3 54.2103 2.39584   4 
   4   8   3 52.2940 2.31921   3 
  -5  -8  -3 172.028 5.01832   1 
  -5  -8  -3 161.408 4.86761   6 
  -5  -8  -3 169.062 5.19347   2 
   5   8   3 167.007 5.32102   3 
   5   8   3 170.960 5.33558   4 
  -6  -8  -3 21.7352 1.50113   2 
  -6  -8  -3 22.6423 1.27219   6 
  -6  -8  -3 23.8350 1.39633   1 
   6   8   3 23.6544 1.64023   4 
   6   8   3 25.5478 1.64224   3 
  -7  -8  -3 173.838 5.44566   1 
  -7  -8  -3 174.494 5.50115   2 
  -7  -8  -3 182.936 5.37993   6 
   7   8   3 175.279 5.70886   3 
   7   8   3 186.020 5.79823   4 
  -8  -8  -3 29.8068 1.82129   2 
  -8  -8  -3 30.9958 1.79193   1 
  -8  -8  -3 36.4119 1.81740   6 
   8   8   3 33.8851 2.11094   4 
   8   8   3 32.3547 1.99682   3 
  -9  -8  -3 120.084 4.11861   6 
  -9  -8  -3 122.646 4.14666   2 
  -9  -8  -3 117.754 4.18957   1 
   9   8   3 119.509 4.50404   4 
   9   8   3 116.478 4.40122   3 
 -10  -8  -3 5.13349 1.01330   1 
  10   8   3 6.91239 1.15989   3 
  10   8   3 5.62835 1.27574   4 
 -11  -8  -3 5.63673 1.08410   1 
  11   8   3 7.11204 1.21838   3 
  11   8   3 7.60159 1.36858   4 
 -12  -8  -3 7.22766 1.24814   1 
  12   8   3 6.28842 1.40616   4 
  12   8   3 6.09729 1.29829   3 
 -13  -8  -3 28.3522 2.11595   1 
  13   8   3 28.8352 2.29736   3 
   7  -9  -3 10.2395 1.46205   3 
  -7   9   3 7.61597 1.28919   5 
   6  -9  -3 64.1508 3.60842   4 
   6  -9  -3 60.9964 2.22049   6 
   6  -9  -3 59.7229 3.23886   3 
  -6   9   3 62.4792 3.10907   5 
  -6   9   3 61.6894 3.62964   4 
   5  -9  -3 43.0209 2.55227   3 
   5  -9  -3 38.4758 2.73463   4 
   5  -9  -3 43.9060 1.67913   6 
  -5   9   3 41.5696 2.82019   4 
  -5   9   3 41.2396 2.38186   5 
   4  -9  -3 144.966 5.43459   3 
   4  -9  -3 157.567 4.36020   6 
   4  -9  -3 149.828 5.75791   4 
  -4   9   3 159.900 5.27816   5 
  -4   9   3 148.955 5.75899   4 
   3  -9  -3 50.0601 2.57210   3 
   3  -9  -3 48.9654 2.78090   4 
   3  -9  -3 49.7326 1.69754   6 
  -3   9   3 45.5372 2.71322   4 
  -3   9   3 45.3134 2.34484   5 
   2  -9  -3 178.833 5.47778   2 
   2  -9  -3 174.344 5.80755   3 
   2  -9  -3 170.870 4.75906   6 
  -2   9   3 163.551 5.94931   4 
  -2   9   3 180.297 5.49949   5 
   1  -9  -3 5.93289 0.94077   3 
   1  -9  -3 4.92282 0.46152   6 
   1  -9  -3 5.12533 0.82230   2 
  -1   9   3 4.84686 0.75121   5 
  -1   9   3 4.84377 0.98856   4 
   0  -9  -3 311.198 8.27695   6 
   0  -9  -3 329.417 9.02082   2 
   0  -9  -3 307.202 9.18159   3 
   0   9   3 321.924 8.70459   5 
   0   9   3 306.543 9.31840   4 
  -1  -9  -3 85.3775 2.60830   1 
  -1  -9  -3 81.8063 2.49805   6 
  -1  -9  -3 82.3376 3.09324   2 
  -1  -9  -3 80.0993 3.19730   3 
   1   9   3 79.9285 3.29695   4 
  -2  -9  -3 202.961 6.39859   3 
  -2  -9  -3 220.057 5.84938   1 
  -2  -9  -3 205.507 5.71002   6 
  -2  -9  -3 210.696 6.32414   2 
   2   9   3 206.377 6.51438   4 
  -3  -9  -3 127.345 3.74367   1 
  -3  -9  -3 123.149 4.22033   3 
  -3  -9  -3 122.546 3.61275   6 
  -3  -9  -3 118.167 4.10149   2 
   3   9   3 121.568 4.23089   3 
   3   9   3 118.315 4.22716   4 
  -4  -9  -3 380.817 10.3178   6 
  -4  -9  -3 406.486 10.8749   2 
  -4  -9  -3 392.512 10.4590   1 
   4   9   3 384.106 10.9100   4 
   4   9   3 378.426 10.9329   3 
  -5  -9  -3 0.72179 0.49060   1 
  -5  -9  -3 -0.4495 0.32667   6 
  -5  -9  -3 -0.2464 0.51464   2 
   5   9   3 -0.5017 0.66839   4 
   5   9   3 -0.2493 0.61382   3 
  -6  -9  -3 174.629 5.71525   2 
  -6  -9  -3 187.921 5.45431   6 
  -6  -9  -3 189.264 5.58247   1 
   6   9   3 188.463 5.90695   4 
   6   9   3 185.232 5.94207   3 
  -7  -9  -3 -0.1078 0.53749   1 
  -7  -9  -3 -0.7109 0.55364   2 
  -7  -9  -3 -0.0205 0.46629   6 
   7   9   3 -0.7083 0.76754   4 
   7   9   3 0.03234 0.67470   3 
  -8  -9  -3 20.1892 1.57050   2 
  -8  -9  -3 21.2819 1.48890   1 
  -8  -9  -3 20.0324 1.39616   6 
   8   9   3 20.6957 1.70811   3 
   8   9   3 22.4918 1.79240   4 
  -9  -9  -3 46.5334 2.32478   1 
  -9  -9  -3 45.4609 2.21996   6 
  -9  -9  -3 48.1548 2.38679   2 
   9   9   3 46.8687 2.64646   4 
   9   9   3 45.3685 2.52397   3 
 -10  -9  -3 87.5391 3.38503   2 
 -10  -9  -3 86.6926 3.40370   6 
 -10  -9  -3 80.7060 3.37961   1 
  10   9   3 86.4399 3.78176   4 
  10   9   3 79.9144 3.61735   3 
 -11  -9  -3 -0.8290 0.67229   1 
  11   9   3 -1.0268 0.82216   3 
  11   9   3 -0.3021 0.91336   4 
 -12  -9  -3 84.7463 3.73958   1 
  12   9   3 89.0748 3.96345   3 
 -13  -9  -3 1.89139 0.95522   1 
  13   9   3 4.16632 1.25286   3 
  14   9   3 31.8986 2.50240   3 
   6 -10  -3 25.2026 1.18578   6 
   6 -10  -3 24.1973 2.08406   3 
  -6  10   3 17.0274 1.74294   5 
   5 -10  -3 74.6355 3.93494   4 
   5 -10  -3 73.1555 3.60558   3 
   5 -10  -3 76.1735 2.44859   6 
  -5  10   3 78.6239 3.50768   5 
  -5  10   3 75.5440 4.01579   4 
   4 -10  -3 4.39159 0.49568   6 
   4 -10  -3 3.73548 1.15756   4 
   4 -10  -3 5.61296 1.10228   3 
  -4  10   3 3.50286 1.21532   4 
  -4  10   3 3.15986 0.91674   5 
   3 -10  -3 119.777 3.39182   6 
   3 -10  -3 117.056 4.60351   3 
  -3  10   3 113.587 4.83406   4 
  -3  10   3 119.922 4.32820   5 
   2 -10  -3 26.6961 1.10300   6 
   2 -10  -3 25.6991 1.88357   3 
  -2  10   3 27.2178 2.12602   4 
  -2  10   3 30.1869 1.81155   5 
   1 -10  -3 176.338 5.93554   3 
   1 -10  -3 185.767 5.70624   2 
   1 -10  -3 172.724 4.79045   6 
  -1  10   3 170.119 6.06794   4 
   0 -10  -3 0.11779 0.27749   6 
   0 -10  -3 -0.2166 0.52162   3 
   0 -10  -3 -0.8198 0.53713   2 
   0  10   3 -0.0112 0.73683   4 
  -1 -10  -3 275.278 7.25267   6 
  -1 -10  -3 278.857 8.07271   2 
  -1 -10  -3 271.561 8.21578   3 
   1  10   3 261.812 8.26325   4 
  -2 -10  -3 5.59563 0.94751   2 
  -2 -10  -3 6.33649 0.94208   3 
  -2 -10  -3 5.71203 0.54115   6 
   2  10   3 6.29584 1.09234   4 
  -3 -10  -3 165.626 5.50899   2 
  -3 -10  -3 168.503 5.62847   3 
  -3 -10  -3 177.913 4.90721   6 
  -3 -10  -3 180.095 5.07295   1 
   3  10   3 168.125 5.64788   3 
   3  10   3 172.722 5.68278   4 
  -4 -10  -3 35.4643 2.01699   2 
  -4 -10  -3 37.9046 1.70040   1 
  -4 -10  -3 38.1550 1.55674   6 
   4  10   3 33.8714 2.14265   4 
   4  10   3 34.5940 2.08178   3 
  -5 -10  -3 44.0556 2.23926   2 
  -5 -10  -3 44.3068 1.95027   1 
  -5 -10  -3 45.2492 1.80900   6 
   5  10   3 43.5330 2.38132   4 
   5  10   3 42.9639 2.34856   3 
  -6 -10  -3 26.5870 1.55060   1 
  -6 -10  -3 21.9652 1.68810   2 
  -6 -10  -3 26.1333 1.39616   6 
   6  10   3 26.9743 1.85319   4 
   6  10   3 26.1373 1.84591   3 
  -7 -10  -3 35.1491 1.72949   6 
  -7 -10  -3 35.6967 1.84411   1 
  -7 -10  -3 36.1218 2.16257   2 
   7  10   3 34.4131 2.15687   3 
   7  10   3 36.0055 2.15607   4 
  -8 -10  -3 42.8435 1.99131   6 
  -8 -10  -3 40.3145 2.06393   1 
  -8 -10  -3 38.2767 2.17175   2 
   8  10   3 39.9213 2.35321   4 
   8  10   3 38.8507 2.34877   3 
  -9 -10  -3 66.4922 2.93576   1 
  -9 -10  -3 72.9792 3.07293   2 
  -9 -10  -3 70.4201 2.89067   6 
   9  10   3 66.5323 3.23059   3 
   9  10   3 71.5288 3.26924   4 
 -10 -10  -3 -1.2308 0.65781   1 
 -10 -10  -3 -0.0852 0.69752   2 
 -10 -10  -3 -0.8989 0.57005   6 
  10  10   3 -0.7099 0.84794   3 
 -11 -10  -3 42.5246 2.42422   1 
  11  10   3 46.0582 2.71078   3 
  12  10   3 -0.8142 1.02114   3 
 -13 -10  -3 52.2429 2.97853   1 
  13  10   3 57.4716 3.26662   3 
   5 -11  -3 39.0971 2.58474   3 
   5 -11  -3 36.8391 1.36821   6 
   4 -11  -3 68.9095 3.42318   3 
   4 -11  -3 67.6554 2.07901   6 
  -4  11   3 65.1487 3.67188   4 
   3 -11  -3 18.7330 1.81977   3 
   3 -11  -3 21.9260 0.90204   6 
  -3  11   3 21.0073 2.11931   4 
   2 -11  -3 54.4688 1.69955   6 
   2 -11  -3 54.8431 2.90125   3 
  -2  11   3 51.6211 3.03162   4 
   1 -11  -3 0.06019 0.64103   2 
   1 -11  -3 0.29049 0.27671   6 
   1 -11  -3 0.40961 0.65107   3 
  -1  11   3 -0.7530 0.77454   4 
   0 -11  -3 188.519 5.93515   2 
   0 -11  -3 177.485 4.87503   6 
   0 -11  -3 180.356 6.10623   3 
   0  11   3 171.529 6.18143   4 
  -1 -11  -3 1.86304 0.73620   3 
  -1 -11  -3 1.32826 0.35289   6 
  -1 -11  -3 1.49982 0.73662   2 
   1  11   3 0.83919 0.79264   4 
  -2 -11  -3 148.084 4.11974   6 
  -2 -11  -3 138.331 5.03480   3 
  -2 -11  -3 149.488 5.02116   2 
   2  11   3 144.128 5.13865   3 
   2  11   3 137.897 5.10402   4 
  -3 -11  -3 11.8898 1.24505   2 
  -3 -11  -3 11.7402 1.22834   3 
  -3 -11  -3 11.6405 0.84870   6 
   3  11   3 10.6172 1.33507   4 
   3  11   3 8.78590 1.23829   3 
  -4 -11  -3 289.717 7.90403   6 
  -4 -11  -3 299.941 8.15673   1 
  -4 -11  -3 283.044 8.64406   2 
   4  11   3 288.495 8.79630   3 
   4  11   3 284.794 8.72613   4 
  -5 -11  -3 55.4266 2.29300   1 
  -5 -11  -3 51.7583 2.05912   6 
  -5 -11  -3 53.0536 2.62326   2 
   5  11   3 52.6951 2.71068   4 
   5  11   3 53.2933 2.72122   3 
  -6 -11  -3 6.33882 0.75904   6 
  -6 -11  -3 7.82244 0.93906   1 
  -6 -11  -3 7.54691 1.08573   2 
   6  11   3 6.07470 1.11826   3 
   6  11   3 6.50443 1.15430   4 
  -7 -11  -3 34.2627 2.10970   2 
  -7 -11  -3 36.5374 1.93192   1 
  -7 -11  -3 31.7142 1.71000   6 
   7  11   3 36.3911 2.21159   4 
   7  11   3 34.4628 2.23226   3 
  -8 -11  -3 80.0310 3.03753   6 
  -8 -11  -3 74.3740 3.35917   2 
  -8 -11  -3 83.2055 3.21141   1 
   8  11   3 79.4634 3.58335   3 
   8  11   3 83.2595 3.51749   4 
  -9 -11  -3 30.5476 1.90866   1 
  -9 -11  -3 28.0030 2.01275   2 
  -9 -11  -3 29.2641 1.80988   6 
   9  11   3 31.6225 2.28129   3 
 -10 -11  -3 59.2248 2.81492   6 
 -10 -11  -3 65.3112 2.93259   1 
 -10 -11  -3 64.5882 3.06856   2 
  10  11   3 62.5619 3.25713   3 
 -11 -11  -3 15.0908 1.49861   2 
 -11 -11  -3 14.9452 1.50690   1 
 -11 -11  -3 13.0868 1.37074   6 
  11  11   3 14.6306 1.70152   3 
 -12 -11  -3 45.4636 2.59870   1 
  12  11   3 41.8181 2.81023   3 
  13  11   3 4.92694 1.37952   3 
   3 -12  -3 43.5557 2.70929   3 
  -3  12   3 41.5863 2.91079   4 
   2 -12  -3 60.8890 3.18554   3 
  -2  12   3 62.8784 3.47269   4 
   1 -12  -3 26.5998 2.02640   3 
  -1  12   3 24.0386 2.11362   4 
   0 -12  -3 4.01601 0.99479   3 
   0 -12  -3 4.13890 0.98611   2 
   0 -12  -3 3.61343 0.37822   6 
   0  12   3 3.40578 1.06867   4 
  -1 -12  -3 109.767 4.16733   2 
  -1 -12  -3 109.568 3.07915   6 
  -1 -12  -3 102.449 4.20788   3 
   1  12   3 99.5758 4.30588   4 
  -2 -12  -3 -0.2503 0.33861   6 
  -2 -12  -3 -0.0868 0.58939   3 
  -2 -12  -3 -0.7277 0.63906   2 
   2  12   3 -0.1604 0.80146   3 
   2  12   3 -1.3959 0.73356   4 
  -3 -12  -3 64.5763 2.16184   6 
  -3 -12  -3 63.4128 2.96561   2 
  -3 -12  -3 63.4748 3.02334   3 
   3  12   3 60.2915 3.04287   4 
   3  12   3 57.9042 3.01570   3 
  -4 -12  -3 14.8358 1.04995   6 
  -4 -12  -3 19.0235 1.69982   2 
   4  12   3 18.5187 1.88319   4 
   4  12   3 16.9555 1.62200   3 
  -5 -12  -3 129.377 4.71216   2 
  -5 -12  -3 126.951 3.95879   6 
  -5 -12  -3 127.404 4.19543   1 
   5  12   3 127.366 4.76879   4 
   5  12   3 121.040 4.78595   3 
  -6 -12  -3 32.7214 2.17800   2 
  -6 -12  -3 31.1551 1.60288   6 
  -6 -12  -3 30.3420 1.80556   1 
   6  12   3 29.4269 2.20719   4 
   6  12   3 33.4572 2.27061   3 
  -7 -12  -3 111.425 3.90031   1 
  -7 -12  -3 105.767 3.67580   6 
  -7 -12  -3 110.556 4.26649   2 
   7  12   3 106.159 4.40225   3 
  -8 -12  -3 -1.1466 0.75375   2 
  -8 -12  -3 0.84442 0.77391   1 
  -8 -12  -3 0.40933 0.62842   6 
   8  12   3 -0.4998 0.91512   3 
  -9 -12  -3 121.882 4.28247   6 
  -9 -12  -3 121.298 4.65572   2 
  -9 -12  -3 123.616 4.41638   1 
   9  12   3 117.341 4.83372   3 
 -10 -12  -3 0.31249 0.77760   1 
 -10 -12  -3 -0.5321 0.87283   2 
 -10 -12  -3 -0.0222 0.65405   6 
  10  12   3 0.30311 1.05850   3 
 -11 -12  -3 28.2668 2.02378   1 
 -11 -12  -3 28.5026 1.94866   6 
 -11 -12  -3 27.4242 2.14529   2 
  11  12   3 26.3304 2.33912   3 
 -12 -12  -3 4.94328 1.15817   1 
  12  12   3 2.93762 1.29465   3 
   2 -13  -3 53.2453 3.09007   3 
  -2  13   3 53.9740 3.27574   4 
   1 -13  -3 6.35224 1.18372   3 
  -1  13   3 6.07817 1.40485   4 
   0 -13  -3 90.8767 3.73653   2 
   0 -13  -3 81.4909 3.81203   3 
   0  13   3 81.3782 3.98290   4 
  -1 -13  -3 4.68644 1.00468   2 
  -1 -13  -3 6.96403 1.17101   3 
   1  13   3 4.62561 1.26904   3 
   1  13   3 4.16995 1.21274   4 
  -2 -13  -3 36.2243 1.32396   6 
  -2 -13  -3 36.2857 2.27136   2 
  -2 -13  -3 30.3840 2.17725   3 
   2  13   3 28.1941 2.21192   3 
   2  13   3 28.2528 2.27240   4 
  -3 -13  -3 38.5166 2.34487   2 
  -3 -13  -3 38.2268 1.50585   6 
   3  13   3 34.4362 2.40371   3 
   3  13   3 33.5081 2.43406   4 
  -4 -13  -3 127.901 4.77361   2 
  -4 -13  -3 125.436 3.78438   6 
   4  13   3 120.178 4.79636   4 
   4  13   3 116.225 4.78886   3 
  -5 -13  -3 26.7644 2.03309   2 
  -5 -13  -3 25.1340 1.37559   6 
   5  13   3 24.1704 2.06665   3 
  -6 -13  -3 122.855 4.72424   2 
  -6 -13  -3 120.449 3.93461   6 
   6  13   3 120.933 4.84684   3 
  -7 -13  -3 2.79339 0.84044   1 
  -7 -13  -3 2.50290 0.70823   6 
  -7 -13  -3 2.21817 0.98470   2 
   7  13   3 2.47703 1.16470   3 
  -8 -13  -3 141.960 4.81451   1 
  -8 -13  -3 138.109 5.21872   2 
  -8 -13  -3 139.452 4.64014   6 
   8  13   3 134.437 5.36652   3 
  -9 -13  -3 2.41340 0.88791   1 
  -9 -13  -3 -1.2193 0.82450   2 
  -9 -13  -3 2.58650 0.80601   6 
   9  13   3 1.12032 1.11492   3 
 -10 -13  -3 66.8604 2.93321   6 
 -10 -13  -3 61.9991 2.97744   1 
 -10 -13  -3 61.9602 3.21418   2 
  10  13   3 59.6500 3.36421   3 
 -11 -13  -3 0.88422 0.97411   2 
 -11 -13  -3 0.41214 0.75952   6 
 -11 -13  -3 -0.2584 0.75240   1 
  11  13   3 -0.1934 1.09025   3 
   0 -14  -3 0.26567 0.78775   3 
   0  14   3 0.75741 1.14043   3 
   0  14   3 1.77120 1.17862   4 
  -1 -14  -3 72.0363 3.60534   3 
  -1 -14  -3 77.6388 3.56368   2 
   1  14   3 72.7445 3.82864   4 
   1  14   3 73.2854 3.74055   3 
  -2 -14  -3 24.1570 1.99147   2 
   2  14   3 22.5975 2.10214   3 
  -3 -14  -3 18.6420 1.01070   6 
  -3 -14  -3 15.9499 1.65866   2 
   3  14   3 17.6033 1.82794   3 
  -4 -14  -3 11.3306 1.45753   2 
  -4 -14  -3 13.0342 0.94992   6 
   4  14   3 11.5199 1.62000   3 
  -5 -14  -3 87.8471 2.96254   6 
  -5 -14  -3 84.7444 3.85921   2 
   5  14   3 81.9336 3.98746   3 
  -6 -14  -3 19.5013 1.30382   6 
   6  14   3 19.7523 1.95467   3 
  -7 -14  -3 32.0801 2.28509   2 
  -7 -14  -3 30.2686 1.70313   6 
   7  14   3 30.7819 2.37377   3 
  -8 -14  -3 8.43502 1.02972   6 
  -8 -14  -3 8.94991 1.39249   2 
   8  14   3 7.51613 1.44910   3 
  -9 -14  -3 18.0702 1.80277   2 
  -9 -14  -3 22.1082 1.74035   1 
  -9 -14  -3 20.8796 1.52489   6 
   9  14   3 19.9426 2.06038   3 
 -10 -14  -3 4.88889 1.03485   1 
 -10 -14  -3 1.57601 1.03795   2 
 -10 -14  -3 4.20837 0.92487   6 
  -2 -15  -3 121.046 4.94785   2 
  -3 -15  -3 0.39270 0.86254   2 
  -3 -15  -3 1.08701 0.38093   6 
  -4 -15  -3 72.8817 3.59570   2 
  -4 -15  -3 75.2936 2.50203   6 
   4  15   3 70.0983 3.74713   3 
  -5 -15  -3 57.8668 3.19310   2 
  -5 -15  -3 58.2973 2.22491   6 
   5  15   3 55.7472 3.31914   3 
  -6 -15  -3 17.4889 1.80383   2 
   6  15   3 16.3751 1.96652   3 
   8  13  -4 9.17502 1.64041   3 
   7  13  -4 51.8681 3.11485   3 
  -7 -13   4 51.8631 2.83081   1 
   6  13  -4 -2.5054 0.89655   3 
   6  13  -4 0.72495 0.85705   2 
  -6 -13   4 -1.2913 0.36714   6 
  -6 -13   4 0.83448 0.75142   1 
   5  13  -4 35.7442 2.41950   2 
  -5 -13   4 33.8829 2.21696   1 
  -5 -13   4 33.7946 1.42810   6 
   4  13  -4 9.90562 1.48699   2 
  -4 -13   4 10.8627 1.30968   1 
   3  13  -4 2.27237 1.09512   2 
  -3 -13   4 2.56826 0.89175   1 
   2  13  -4 38.2195 2.54700   2 
  -2 -13   4 36.6543 2.25889   1 
  10  12  -4 32.0954 2.32954   2 
  10  12  -4 27.4425 2.42146   3 
 -10 -12   4 28.7309 1.82647   6 
   9  12  -4 10.1888 1.41049   2 
   9  12  -4 10.5240 1.63488   3 
  -9 -12   4 7.69089 1.29076   1 
  -9 -12   4 8.08257 1.09025   6 
   8  12  -4 7.48172 1.44318   3 
  -8 -12   4 5.73036 1.15519   1 
  -8 -12   4 6.49221 0.91153   6 
   7  12  -4 18.4646 1.73888   2 
   7  12  -4 20.0758 1.93125   3 
  -7 -12   4 19.2580 1.69105   1 
  -7 -12   4 18.9327 1.26217   6 
   6  12  -4 49.9647 2.76299   2 
   6  12  -4 44.4581 2.78180   3 
  -6 -12   4 47.9422 2.55471   1 
  -6 -12   4 42.8683 1.89224   6 
   5  12  -4 1.68715 1.04702   3 
   5  12  -4 2.17315 0.96930   2 
  -5 -12   4 2.22161 0.48181   6 
  -5 -12   4 0.59250 0.72181   1 
   4  12  -4 106.658 4.40792   2 
  -4 -12   4 106.339 3.18867   6 
  -4 -12   4 111.815 4.23312   1 
   3  12  -4 1.17246 0.92728   2 
  -3 -12   4 1.09174 0.71540   1 
   2  12  -4 111.364 4.55322   2 
  -2 -12   4 109.761 4.23802   1 
   1  12  -4 53.1266 2.97883   2 
  -1 -12   4 57.7522 2.79926   1 
   0 -12   4 30.7978 2.00610   1 
  11  11  -4 24.3755 2.25342   3 
  11  11  -4 26.8535 2.06169   2 
 -11 -11   4 24.4459 1.73975   6 
  10  11  -4 -1.1576 0.86633   3 
  10  11  -4 -0.6116 0.84550   2 
 -10 -11   4 -0.1356 0.73950   1 
 -10 -11   4 0.60054 0.70231   6 
   9  11  -4 53.3470 2.79752   2 
   9  11  -4 40.2253 2.82586   3 
  -9 -11   4 45.7249 2.58386   1 
  -9 -11   4 52.1186 2.36832   6 
   8  11  -4 1.01433 0.83767   2 
   8  11  -4 1.25334 1.00165   3 
  -8 -11   4 0.76766 0.62029   6 
  -8 -11   4 0.92718 0.81244   1 
   7  11  -4 147.227 5.36863   2 
   7  11  -4 149.700 5.50156   3 
  -7 -11   4 141.709 5.15690   1 
  -7 -11   4 147.235 4.66293   6 
   6  11  -4 7.52205 1.32352   3 
   6  11  -4 6.99081 1.23237   2 
  -6 -11   4 6.21933 1.12709   2 
  -6 -11   4 5.87205 0.76017   6 
  -6 -11   4 6.49082 1.07753   1 
   5  11  -4 41.1777 2.50322   3 
   5  11  -4 40.2561 2.43296   2 
  -5 -11   4 39.2035 1.68729   6 
  -5 -11   4 40.3445 2.39397   2 
  -5 -11   4 40.6086 2.26964   1 
   4  11  -4 3.55635 1.05350   3 
   4  11  -4 1.37297 0.85495   2 
  -4 -11   4 3.43531 0.87022   1 
  -4 -11   4 2.56189 0.47980   6 
   3  11  -4 222.747 7.13699   2 
  -3 -11   4 213.499 6.82770   1 
  -3 -11   4 212.549 5.77765   6 
   2  11  -4 3.59179 1.01720   2 
  -2 -11   4 3.43161 0.86341   1 
   1  11  -4 200.160 6.67598   2 
  -1 -11   4 197.838 6.40224   1 
   0  11  -4 0.00514 0.77086   2 
   0  11  -4 1.34790 0.92247   1 
   0 -11   4 0.82511 0.65312   1 
  -1  11  -4 122.784 4.65410   1 
   3 -11   4 109.068 4.41000   5 
  11  10  -4 1.55774 0.92009   2 
  11  10  -4 -0.7356 0.99911   3 
 -11 -10   4 -1.1352 0.65276   6 
 -11 -10   4 -1.3414 0.70321   1 
  10  10  -4 59.4238 3.21691   3 
  10  10  -4 53.7850 2.82034   2 
 -10 -10   4 56.8344 2.62320   6 
 -10 -10   4 54.2523 2.80463   1 
   9  10  -4 0.76199 1.00647   3 
   9  10  -4 0.79263 0.85769   2 
  -9 -10   4 -0.2812 0.59536   6 
  -9 -10   4 0.88878 0.81438   1 
   8  10  -4 88.8521 3.93433   3 
   8  10  -4 87.1670 3.72874   2 
  -8 -10   4 90.9488 3.65070   1 
  -8 -10   4 87.1390 3.28186   6 
   7  10  -4 45.8744 2.53582   2 
   7  10  -4 46.5139 2.68218   3 
  -7 -10   4 43.3708 2.02022   6 
  -7 -10   4 45.5934 2.42572   1 
   6  10  -4 68.0274 3.13580   3 
   6  10  -4 60.5214 2.95233   2 
  -6 -10   4 59.8905 2.81365   1 
  -6 -10   4 62.4436 2.40211   6 
  -6 -10   4 60.3429 2.91975   2 
   5  10  -4 38.5784 2.25329   2 
   5  10  -4 37.7661 2.28958   3 
  -5 -10   4 34.4819 1.58772   6 
  -5 -10   4 34.3376 2.03863   1 
  -5 -10   4 37.1298 2.23028   2 
   4  10  -4 136.140 4.94290   2 
   4  10  -4 142.291 4.96008   3 
  -4 -10   4 141.687 5.00036   2 
  -4 -10   4 133.920 4.04215   6 
  -4 -10   4 137.451 4.76081   1 
   3  10  -4 1.43783 0.81302   3 
   3  10  -4 0.59343 0.81705   2 
  -3 -10   4 0.70768 0.64019   1 
  -3 -10   4 1.94513 0.38676   6 
   2  10  -4 198.068 6.36053   2 
  -2 -10   4 193.910 6.10357   1 
  -2 -10   4 185.846 5.06340   6 
   1  10  -4 49.0249 2.58178   2 
  -1 -10   4 46.4401 2.21065   5 
  -1 -10   4 44.4548 2.29171   1 
   0  10  -4 52.3671 2.66284   2 
   0 -10   4 51.4723 2.43656   5 
   0 -10   4 52.8548 2.50393   1 
  -1  10  -4 15.6026 1.46938   1 
   1 -10   4 18.0351 1.47518   5 
   1 -10   4 17.0901 1.44816   1 
  -2  10  -4 72.5386 3.23826   1 
   2 -10   4 73.1507 3.19255   5 
  -3  10  -4 10.2570 1.30742   5 
   3 -10   4 11.6887 1.28886   5 
  -4  10  -4 51.3573 2.80331   5 
   4 -10   4 55.4698 2.90044   5 
  12   9  -4 5.40612 1.38932   3 
 -12  -9   4 8.88418 1.31031   1 
  11   9  -4 35.4972 2.20925   2 
  11   9  -4 31.1086 2.48026   3 
 -11  -9   4 35.0447 2.09635   6 
 -11  -9   4 32.5725 2.15996   1 
  10   9  -4 -0.1988 0.86614   3 
  10   9  -4 -0.5188 0.76375   2 
 -10  -9   4 0.44400 0.78362   1 
 -10  -9   4 0.25400 0.69164   6 
   9   9  -4 59.4076 2.83361   2 
   9   9  -4 58.6258 3.08119   3 
  -9  -9   4 53.6102 2.67705   1 
  -9  -9   4 55.4997 2.51994   6 
   8   9  -4 21.3857 1.81657   2 
   8   9  -4 20.8791 1.94110   3 
  -8  -9   4 21.7276 1.49219   6 
  -8  -9   4 23.1876 1.65519   1 
   7   9  -4 148.986 5.19758   2 
   7   9  -4 151.396 5.33410   3 
  -7  -9   4 146.705 5.06205   1 
  -7  -9   4 153.183 4.76762   6 
   6   9  -4 116.189 4.28891   3 
   6   9  -4 109.206 4.15776   2 
  -6  -9   4 110.600 3.63000   6 
  -6  -9   4 109.415 4.13810   2 
  -6  -9   4 107.135 3.99544   1 
   5   9  -4 57.8274 2.73615   3 
   5   9  -4 56.6198 2.68578   2 
  -5  -9   4 50.9792 2.07372   6 
  -5  -9   4 60.1431 2.74694   2 
  -5  -9   4 54.2356 2.53759   1 
   4   9  -4 25.8144 1.82920   3 
   4   9  -4 27.8766 1.82928   2 
  -4  -9   4 26.8812 1.72072   1 
  -4  -9   4 24.9576 1.78471   2 
  -4  -9   4 26.0716 1.23189   6 
   3   9  -4 234.019 7.32437   2 
   3   9  -4 231.807 7.19055   3 
  -3  -9   4 244.529 6.84467   5 
  -3  -9   4 234.426 7.10455   1 
  -3  -9   4 236.122 6.39335   6 
  -3  -9   4 236.029 7.33572   2 
   2   9  -4 32.0176 1.89676   3 
   2   9  -4 30.0938 1.93172   2 
  -2  -9   4 31.1740 1.61775   5 
  -2  -9   4 31.5202 1.79302   1 
  -2  -9   4 28.3696 1.10746   6 
   1   9  -4 70.5126 3.03472   2 
  -1  -9   4 73.5093 2.79498   5 
  -1  -9   4 68.4774 2.86315   1 
   0   9  -4 1.96302 0.71942   2 
   0  -9   4 2.02894 0.67244   1 
   0  -9   4 1.59146 0.62367   5 
  -1   9  -4 175.993 5.71024   2 
  -1   9  -4 176.046 5.75085   1 
   1  -9   4 172.283 5.60373   1 
   1  -9   4 176.123 5.65030   5 
  -2   9  -4 4.08191 0.92249   1 
   2  -9   4 3.12946 0.81199   5 
  -3   9  -4 90.1351 3.64370   1 
   3  -9   4 87.1243 3.59322   5 
  -4   9  -4 18.1526 1.62728   5 
  -4   9  -4 21.7456 1.73608   1 
   4  -9   4 21.6233 2.04929   4 
   4  -9   4 21.4014 1.75846   5 
  -5   9  -4 55.9828 2.98460   5 
   5  -9   4 59.3602 3.05748   5 
   5  -9   4 60.3173 3.41268   4 
  12   8  -4 57.9404 3.37711   3 
 -12  -8   4 61.1744 3.00019   1 
  11   8  -4 1.60529 1.05871   3 
 -11  -8   4 -0.1649 0.78197   1 
  10   8  -4 133.523 5.25332   3 
 -10  -8   4 142.588 4.94911   1 
   9   8  -4 -0.3022 0.66561   2 
   9   8  -4 -0.4975 0.89870   3 
  -9  -8   4 0.56904 0.69481   1 
  -9  -8   4 0.20684 0.59427   6 
   8   8  -4 125.551 4.72246   3 
   8   8  -4 127.499 4.51587   2 
  -8  -8   4 127.680 4.25803   6 
  -8  -8   4 127.025 4.46182   1 
   7   8  -4 3.31315 0.97641   3 
   7   8  -4 2.34370 0.81426   2 
  -7  -8   4 2.54407 0.77794   1 
  -7  -8   4 1.02646 0.61259   6 
   6   8  -4 111.247 4.06686   3 
   6   8  -4 101.762 3.88416   2 
  -6  -8   4 101.050 3.75392   1 
  -6  -8   4 107.202 3.91511   2 
  -6  -8   4 107.156 3.50797   6 
   5   8  -4 51.7666 2.50414   3 
   5   8  -4 58.7386 2.59098   2 
  -5  -8   4 48.5907 2.00465   6 
  -5  -8   4 57.8396 2.11276   5 
  -5  -8   4 51.4041 2.35357   1 
  -5  -8   4 50.5293 2.46765   2 
   4   8  -4 133.765 4.75002   2 
   4   8  -4 144.146 4.80185   3 
  -4  -8   4 149.610 4.88007   2 
  -4  -8   4 137.020 4.16508   6 
  -4  -8   4 141.025 4.65158   1 
  -4  -8   4 150.334 4.38192   5 
   3   8  -4 1.62426 0.78213   3 
   3   8  -4 1.60212 0.67610   2 
  -3  -8   4 1.68773 0.50638   5 
  -3  -8   4 1.03399 0.57065   1 
  -3  -8   4 1.41333 0.66407   2 
  -3  -8   4 1.53971 0.37060   6 
   2   8  -4 185.825 5.87191   2 
   2   8  -4 182.128 5.70500   3 
  -2  -8   4 182.515 4.99169   6 
  -2  -8   4 188.729 5.51488   5 
  -2  -8   4 183.342 5.67946   1 
   1   8  -4 87.7609 3.37279   2 
   1   8  -4 86.5996 3.20584   3 
  -1  -8   4 85.5629 3.19002   1 
  -1  -8   4 87.0999 2.46444   6 
  -1  -8   4 86.9605 2.46336   6 
  -1  -8   4 90.0749 2.51540   6 
  -1  -8   4 87.7155 3.11546   5 
   0   8  -4 212.453 6.54033   2 
   0  -8   4 213.791 6.36858   5 
   0  -8   4 209.993 6.39923   1 
  -1   8  -4 21.9585 1.54676   2 
  -1   8  -4 20.1046 1.57234   1 
   1  -8   4 18.6460 1.40563   1 
   1  -8   4 22.1903 1.63321   4 
   1  -8   4 22.1296 1.44830   5 
  -2   8  -4 156.029 5.17252   1 
   2  -8   4 158.255 5.38711   4 
   2  -8   4 150.796 5.10165   5 
  -3   8  -4 5.37811 0.96788   1 
   3  -8   4 5.60670 0.96539   5 
   3  -8   4 5.20874 1.08395   4 
  -4   8  -4 181.360 6.17414   5 
  -4   8  -4 186.441 6.10610   1 
   4  -8   4 180.538 6.17478   5 
   4  -8   4 202.250 6.73463   4 
  -5   8  -4 16.0026 1.44611   1 
  -5   8  -4 10.2287 1.31857   5 
   5  -8   4 14.5398 1.45133   5 
   5  -8   4 13.4053 1.67509   4 
  -6   8  -4 93.6318 4.07843   5 
   6  -8   4 98.0261 4.55200   4 
  13   7  -4 34.5691 2.77896   3 
 -13  -7   4 36.8039 2.38707   1 
  12   7  -4 15.0612 1.89075   3 
 -12  -7   4 15.1877 1.58579   1 
  11   7  -4 58.3369 3.28390   3 
 -11  -7   4 65.7606 3.01519   1 
  10   7  -4 -1.2717 0.68750   2 
  10   7  -4 -0.3371 0.87635   3 
 -10  -7   4 0.30501 0.75030   1 
 -10  -7   4 -0.9813 0.65573   6 
   9   7  -4 161.788 5.79240   3 
   9   7  -4 169.750 5.46594   2 
  -9  -7   4 173.021 5.53945   1 
   8   7  -4 0.36369 0.81658   3 
   8   7  -4 1.05468 0.70233   2 
  -8  -7   4 1.48546 0.70476   1 
  -8  -7   4 0.80268 0.58783   6 
   7   7  -4 67.6847 3.00310   3 
   7   7  -4 67.7487 2.81137   2 
  -7  -7   4 67.0429 2.59114   6 
  -7  -7   4 65.2079 2.73966   1 
  -7  -7   4 67.6370 2.41876   5 
   6   7  -4 218.679 6.67725   2 
   6   7  -4 221.244 6.78192   3 
  -6  -7   4 209.319 6.31418   6 
  -6  -7   4 234.165 6.25489   5 
  -6  -7   4 212.360 6.54491   1 
   5   7  -4 69.8704 2.91588   2 
   5   7  -4 76.9354 3.03339   3 
  -5  -7   4 73.7608 2.56866   6 
  -5  -7   4 75.8656 2.58053   5 
  -5  -7   4 72.6871 2.83704   1 
   4   7  -4 10.1693 1.06185   2 
   4   7  -4 11.6520 1.10198   3 
  -4  -7   4 11.5621 1.02828   1 
  -4  -7   4 10.5826 0.83910   6 
  -4  -7   4 11.5194 1.08396   2 
  -4  -7   4 10.9619 0.93441   5 
   3   7  -4 513.690 13.6678   3 
   3   7  -4 494.777 13.7502   2 
  -3  -7   4 509.971 13.6005   1 
  -3  -7   4 487.466 13.0913   6 
  -3  -7   4 516.903 13.3759   5 
   2   7  -4 4.42200 0.70584   3 
   2   7  -4 4.86477 0.78416   2 
  -2  -7   4 3.94950 0.41641   6 
  -2  -7   4 3.77319 0.60475   5 
  -2  -7   4 3.28440 0.38292   6 
  -2  -7   4 3.15658 0.66562   1 
   1   7  -4 63.0408 2.63845   2 
   1   7  -4 62.3741 2.46147   3 
  -1  -7   4 61.7814 2.49200   1 
  -1  -7   4 68.1344 2.44152   4 
  -1  -7   4 68.2722 1.99771   6 
  -1  -7   4 66.3608 2.46500   5 
  -1  -7   4 63.1722 1.92476   6 
   0   7  -4 384.588 10.6309   3 
   0   7  -4 378.774 10.8126   2 
   0  -7   4 401.328 9.99333   6 
   0  -7   4 377.182 9.95070   6 
   0  -7   4 391.797 10.6904   5 
   0  -7   4 384.405 10.7222   1 
   0  -7   4 405.446 10.7809   4 
  -1   7  -4 214.094 6.36890   2 
   1  -7   4 206.956 6.30642   1 
   1  -7   4 212.500 6.47441   4 
   1  -7   4 212.044 6.33643   5 
  -2   7  -4 7.13264 0.95023   1 
  -2   7  -4 7.95307 0.89836   2 
   2  -7   4 8.84946 0.98165   1 
   2  -7   4 6.54236 1.03074   4 
   2  -7   4 6.87625 0.87948   5 
  -3   7  -4 301.966 8.70422   1 
   3  -7   4 294.885 9.03168   4 
   3  -7   4 294.091 8.72475   5 
  -4   7  -4 9.71494 1.15227   1 
   4  -7   4 11.2440 0.62785   6 
   4  -7   4 11.6867 1.18517   5 
   4  -7   4 8.45997 1.34280   4 
  -5   7  -4 100.702 4.08152   5 
  -5   7  -4 114.222 4.11053   1 
   5  -7   4 109.790 4.19192   5 
   5  -7   4 109.476 4.60925   4 
   5  -7   4 107.739 3.15955   6 
  -6   7  -4 50.4483 2.71602   5 
  -6   7  -4 55.6514 2.62523   1 
   6  -7   4 48.1475 2.68417   5 
   6  -7   4 50.3886 1.81784   6 
   6  -7   4 51.1670 3.13914   4 
  -7   7  -4 47.0025 2.69030   5 
   7  -7   4 43.9903 3.04532   4 
   7  -7   4 45.7751 1.74553   6 
  13   6  -4 0.49840 1.30995   3 
 -13  -6   4 0.40021 0.89366   1 
  12   6  -4 49.6099 3.11974   3 
 -12  -6   4 50.8134 2.67276   1 
  11   6  -4 73.8034 3.66193   3 
 -11  -6   4 77.9663 3.28052   1 
  10   6  -4 17.5321 1.75018   3 
 -10  -6   4 19.1119 1.63370   1 
   9   6  -4 24.4887 1.56352   2 
   9   6  -4 24.0979 1.91076   3 
  -9  -6   4 24.3345 1.67339   1 
  -9  -6   4 24.8993 1.58532   6 
  -9  -6   4 22.8804 1.38477   5 
   8   6  -4 2.59775 0.92043   3 
   8   6  -4 3.07643 0.73188   2 
  -8  -6   4 4.27536 0.74097   6 
  -8  -6   4 2.61352 0.58782   5 
  -8  -6   4 3.51299 0.80310   1 
   7   6  -4 2.64007 0.70228   2 
   7   6  -4 1.11368 0.77087   3 
  -7  -6   4 1.74499 0.62292   1 
  -7  -6   4 1.19939 0.51503   6 
  -7  -6   4 2.17563 0.51241   5 
   6   6  -4 90.2582 3.27945   2 
   6   6  -4 91.2852 3.44158   3 
  -6  -6   4 94.2801 2.98493   5 
  -6  -6   4 89.2512 3.07705   6 
  -6  -6   4 88.7946 3.23826   1 
   5   6  -4 59.9596 2.53675   3 
   5   6  -4 58.4626 2.45955   2 
  -5  -6   4 60.4844 2.37304   1 
  -5  -6   4 57.5733 2.16921   6 
  -5  -6   4 60.0081 2.16888   5 
   4   6  -4 153.178 4.76969   3 
   4   6  -4 145.481 4.75797   2 
  -4  -6   4 147.102 4.63051   1 
  -4  -6   4 146.878 4.36294   6 
  -4  -6   4 157.783 4.47149   5 
   3   6  -4 22.6746 1.44473   2 
   3   6  -4 22.8689 1.42586   3 
  -3  -6   4 24.4371 1.26679   5 
  -3  -6   4 23.8995 1.08206   6 
  -3  -6   4 24.2784 1.36427   1 
   2   6  -4 999.863 25.8561   3 
   2   6  -4 1035.78 26.0510   2 
  -2  -6   4 1030.12 25.7525   5 
  -2  -6   4 947.098 25.8235   1 
  -2  -6   4 1017.73 25.4439   6 
  -2  -6   4 980.346 25.3945   6 
   1   6  -4 42.2430 1.94545   2 
   1   6  -4 40.1731 1.73844   3 
  -1  -6   4 42.5760 1.71999   4 
  -1  -6   4 38.4632 1.33843   6 
  -1  -6   4 36.8657 1.77446   1 
  -1  -6   4 42.2385 1.77433   5 
  -1  -6   4 42.7423 1.40170   6 
   0   6  -4 222.834 6.29826   3 
   0   6  -4 219.990 6.49431   2 
   0  -6   4 225.964 6.43831   1 
   0  -6   4 220.703 6.37666   5 
   0  -6   4 216.260 5.78223   6 
  -1   6  -4 33.1927 1.56436   3 
  -1   6  -4 34.9334 1.69828   2 
   1  -6   4 33.4091 1.12170   6 
   1  -6   4 34.1956 1.68004   1 
   1  -6   4 33.8503 1.69517   5 
   1  -6   4 33.2587 1.75972   4 
   1  -6   4 33.6760 1.08746   6 
  -2   6  -4 193.280 5.60330   2 
  -2   6  -4 186.891 5.73053   1 
   2  -6   4 180.387 5.69551   5 
   2  -6   4 182.964 5.88157   4 
   2  -6   4 178.102 4.91136   6 
   2  -6   4 184.160 5.65434   1 
   2  -6   4 198.375 4.94727   6 
  -3   6  -4 27.1811 1.66735   1 
   3  -6   4 28.1093 1.02348   6 
   3  -6   4 25.6512 1.85640   4 
   3  -6   4 25.6486 1.61793   5 
   3  -6   4 26.4694 1.01210   6 
  -4   6  -4 98.4037 3.59251   1 
   4  -6   4 93.7627 2.84772   6 
   4  -6   4 100.724 4.02333   4 
   4  -6   4 96.1150 3.65130   5 
  -5   6  -4 129.920 4.52892   1 
   5  -6   4 134.406 5.12204   4 
   5  -6   4 129.673 3.83431   6 
   5  -6   4 132.524 4.68126   5 
  -6   6  -4 37.4453 2.12682   1 
  -6   6  -4 35.3589 2.16750   5 
   6  -6   4 36.7138 2.56994   4 
   6  -6   4 35.5630 1.50798   6 
   6  -6   4 33.9239 2.13947   5 
  -7   6  -4 49.5227 2.49617   1 
  -7   6  -4 46.7858 2.66884   5 
   7  -6   4 48.3861 3.11924   4 
   7  -6   4 51.1676 1.99878   6 
   8  -6   4 70.0726 3.88002   4 
   8  -6   4 63.0066 2.46672   6 
  13   5  -4 49.9927 3.25897   3 
 -13  -5   4 58.5422 2.93107   1 
  12   5  -4 -0.9023 1.03885   3 
 -12  -5   4 -0.2634 0.75613   1 
  11   5  -4 39.8635 2.64301   3 
 -11  -5   4 44.3275 2.35540   1 
 -11  -5   4 41.9303 2.12890   5 
  10   5  -4 48.7224 2.78357   3 
 -10  -5   4 49.3816 2.23980   5 
 -10  -5   4 52.3640 2.45518   1 
   9   5  -4 61.4702 2.97576   3 
   9   5  -4 60.4356 2.50071   2 
  -9  -5   4 66.8449 2.73865   1 
  -9  -5   4 65.5962 2.68288   6 
  -9  -5   4 63.4968 2.50402   5 
   8   5  -4 5.98682 1.02220   3 
   8   5  -4 4.63199 0.73923   2 
  -8  -5   4 5.29353 0.77631   6 
  -8  -5   4 5.31143 0.85240   1 
  -8  -5   4 6.01835 0.73890   5 
   7   5  -4 67.5497 2.89961   3 
   7   5  -4 67.3470 2.63153   2 
  -7  -5   4 72.9697 2.51461   5 
  -7  -5   4 70.1748 2.69509   1 
  -7  -5   4 70.3564 2.63816   6 
   6   5  -4 59.1751 2.36816   2 
   6   5  -4 59.1375 2.53346   3 
  -6  -5   4 60.9610 2.17093   5 
  -6  -5   4 58.6326 2.33503   1 
  -6  -5   4 56.5352 2.23027   6 
   5   5  -4 163.852 5.23021   2 
   5   5  -4 179.091 5.39490   3 
  -5  -5   4 182.851 5.01439   5 
  -5  -5   4 173.919 5.06203   6 
  -5  -5   4 168.059 5.18173   1 
   4   5  -4 0.27190 0.45657   3 
   4   5  -4 0.52258 0.44307   2 
  -4  -5   4 -0.6429 0.25537   6 
  -4  -5   4 -0.3591 0.37015   1 
  -4  -5   4 1.51422 0.41025   5 
   3   5  -4 479.042 12.7197   3 
   3   5  -4 474.169 12.8047   2 
  -3  -5   4 482.289 12.5527   5 
  -3  -5   4 464.704 12.3873   6 
  -3  -5   4 476.314 12.4348   6 
  -3  -5   4 482.205 12.6881   1 
   2   5  -4 4.98259 0.67649   2 
   2   5  -4 5.38653 0.63574   3 
  -2  -5   4 4.47358 0.41930   6 
  -2  -5   4 6.11929 0.47829   6 
  -2  -5   4 5.34642 0.60418   5 
  -2  -5   4 6.44097 0.53631   4 
  -2  -5   4 5.67433 0.66599   1 
   1   5  -4 1292.25 33.1889   3 
   1   5  -4 1313.11 33.4002   2 
  -1  -5   4 1295.63 32.8522   6 
  -1  -5   4 1304.32 32.8680   6 
  -1  -5   4 1312.27 33.2264   5 
  -1  -5   4 1366.58 33.1150   4 
  -1  -5   4 1236.22 33.2354   1 
   0   5  -4 210.008 6.06710   2 
   0   5  -4 204.853 5.84609   3 
   0  -5   4 211.511 5.97285   4 
   0  -5   4 205.415 5.96859   5 
   0  -5   4 204.136 5.49762   6 
   0  -5   4 208.531 6.00818   1 
   0  -5   4 217.760 5.54367   6 
  -1   5  -4 807.173 20.6387   3 
  -1   5  -4 810.292 20.8457   2 
   1  -5   4 845.021 20.3178   6 
   1  -5   4 806.630 20.9487   4 
   1  -5   4 775.094 20.8368   5 
   1  -5   4 787.711 20.8433   1 
   1  -5   4 778.868 20.2825   6 
  -2   5  -4 79.6725 2.66561   3 
  -2   5  -4 83.3453 2.82355   2 
  -2   5  -4 81.8758 2.97230   1 
   2  -5   4 85.5009 3.16469   4 
   2  -5   4 78.6719 2.92968   5 
   2  -5   4 80.2097 2.33135   6 
   2  -5   4 83.3548 2.68118   3 
   2  -5   4 81.3442 2.90428   1 
  -3   5  -4 338.640 9.00345   2 
  -3   5  -4 324.495 9.25577   1 
   3  -5   4 326.263 8.57977   6 
   3  -5   4 329.352 9.56722   4 
   3  -5   4 323.448 9.28839   5 
   3  -5   4 332.928 8.58866   6 
  -4   5  -4 9.69248 0.98925   1 
   4  -5   4 9.69154 1.01791   5 
   4  -5   4 9.50928 0.67899   6 
   4  -5   4 9.04432 1.17975   4 
  -5   5  -4 16.2023 1.40568   1 
   5  -5   4 20.0267 1.81745   4 
   5  -5   4 18.7909 0.98855   6 
   5  -5   4 18.5988 1.46188   5 
  -6   5  -4 47.8557 2.41723   5 
  -6   5  -4 49.4105 2.34841   1 
   6  -5   4 48.1198 1.88196   6 
   6  -5   4 49.1682 2.48821   5 
   6  -5   4 46.5849 2.86042   4 
  -7   5  -4 102.769 3.77700   1 
  -7   5  -4 97.1348 3.90040   5 
   7  -5   4 93.7913 3.24988   6 
   7  -5   4 100.047 4.46916   4 
   7  -5   4 94.0706 3.92342   5 
  -8   5  -4 12.9221 1.33161   1 
  -8   5  -4 9.81203 1.31715   5 
   8  -5   4 11.8577 1.00970   6 
   8  -5   4 14.9832 1.89183   4 
  13   4  -4 -0.5484 1.09029   3 
 -13  -4   4 -0.1808 0.90111   1 
  12   4  -4 42.5927 2.84762   3 
 -12  -4   4 44.7540 2.46961   1 
 -12  -4   4 42.5335 2.33358   5 
  11   4  -4 31.2051 2.33844   3 
 -11  -4   4 31.3564 2.05753   1 
  10   4  -4 31.1056 2.23599   3 
 -10  -4   4 32.1648 1.95316   1 
 -10  -4   4 29.9281 1.76712   5 
   9   4  -4 4.02018 1.03980   3 
  -9  -4   4 5.57092 0.91710   1 
  -9  -4   4 4.34500 0.76198   5 
   8   4  -4 171.832 5.66978   3 
   8   4  -4 169.945 5.15516   2 
  -8  -4   4 171.886 5.33153   6 
  -8  -4   4 170.406 5.31962   1 
  -8  -4   4 174.116 5.20093   5 
   7   4  -4 1.81860 0.55696   2 
   7   4  -4 1.67267 0.72346   3 
  -7  -4   4 1.40413 0.52602   6 
  -7  -4   4 1.92636 0.57255   5 
  -7  -4   4 2.84517 0.67235   1 
   6   4  -4 254.559 7.59320   3 
   6   4  -4 258.575 7.37087   2 
  -6  -4   4 268.329 7.37677   6 
  -6  -4   4 252.778 7.36732   1 
  -6  -4   4 272.698 7.27339   5 
   5   4  -4 82.0402 2.88015   2 
   5   4  -4 84.8443 3.01166   3 
  -5  -4   4 84.2163 2.77347   6 
  -5  -4   4 80.9903 2.84000   1 
  -5  -4   4 85.7376 2.74193   5 
   4   4  -4 231.412 6.53656   3 
   4   4  -4 218.267 6.46866   2 
  -4  -4   4 218.871 6.38139   1 
  -4  -4   4 223.501 6.27181   6 
  -4  -4   4 244.880 6.33318   5 
   3   4  -4 254.039 7.29026   2 
   3   4  -4 258.253 7.23552   3 
  -3  -4   4 259.261 7.01108   6 
  -3  -4   4 257.719 7.19666   1 
  -3  -4   4 274.524 7.07907   6 
  -3  -4   4 261.814 7.11835   5 
   2   4  -4 614.994 16.3434   3 
   2   4  -4 610.105 16.4780   2 
  -2  -4   4 638.188 16.3931   1 
  -2  -4   4 641.907 16.1613   6 
  -2  -4   4 628.074 16.1206   6 
  -2  -4   4 645.684 16.3426   5 
   1   4  -4 0.30327 0.34480   2 
   1   4  -4 0.47377 0.29641   3 
  -1  -4   4 0.47880 0.22363   6 
  -1  -4   4 1.15769 0.30090   4 
  -1  -4   4 0.59592 0.21269   6 
  -1  -4   4 1.01839 0.36840   5 
  -1  -4   4 0.74209 0.37081   1 
   0   4  -4 386.302 10.2887   2 
   0   4  -4 379.451 10.0500   3 
   0  -4   4 396.409 9.87765   6 
   0  -4   4 384.331 10.1621   4 
   0  -4   4 381.372 10.2326   5 
   0  -4   4 370.128 9.83165   6 
   0  -4   4 378.306 10.2263   1 
  -1   4  -4 179.069 5.16663   2 
  -1   4  -4 178.829 4.93901   3 
   1  -4   4 181.886 5.21442   5 
   1  -4   4 185.691 5.28875   4 
   1  -4   4 169.787 5.16610   1 
   1  -4   4 171.661 4.72854   6 
   1  -4   4 181.672 4.76609   6 
  -2   4  -4 559.671 14.7460   2 
  -2   4  -4 561.007 14.9329   1 
   2  -4   4 554.181 14.3749   6 
   2  -4   4 572.695 14.9282   5 
   2  -4   4 556.406 14.8712   1 
   2  -4   4 573.121 14.3965   6 
   2  -4   4 566.636 14.5743   3 
   2  -4   4 563.942 15.0801   4 
  -3   4  -4 35.0110 1.46384   2 
  -3   4  -4 31.1164 1.65598   1 
   3  -4   4 34.8267 1.37846   3 
   3  -4   4 30.9239 1.62440   5 
   3  -4   4 33.3914 1.22441   6 
   3  -4   4 34.2306 1.92202   4 
   3  -4   4 32.5667 1.20231   6 
  -4   4  -4 70.4991 2.73879   1 
   4  -4   4 71.6273 2.25601   6 
   4  -4   4 71.6649 2.79178   5 
   4  -4   4 72.4920 3.10553   4 
  -5   4  -4 6.72018 0.86832   1 
   5  -4   4 6.76232 0.60102   6 
   5  -4   4 6.43733 0.91173   5 
   5  -4   4 6.65665 1.13303   4 
  -6   4  -4 125.093 4.32590   1 
   6  -4   4 130.562 4.50207   5 
   6  -4   4 130.130 4.96776   4 
   6  -4   4 125.689 3.89095   6 
  -7   4  -4 0.06050 0.67281   5 
  -7   4  -4 0.52816 0.62127   1 
   7  -4   4 1.70882 1.02762   4 
   7  -4   4 -0.2789 0.62020   5 
   7  -4   4 0.38913 0.50770   6 
  -8   4  -4 108.057 4.24612   5 
  -8   4  -4 114.750 4.07467   1 
   8  -4   4 105.236 4.81335   4 
   8  -4   4 104.344 3.65711   6 
  -9   4  -4 0.81472 0.74450   1 
  -9   4  -4 1.30194 0.73502   5 
   9  -4   4 -1.4488 0.95683   4 
   9  -4   4 0.12847 0.49398   6 
 -10   4  -4 29.2519 2.03267   1 
  13   3  -4 3.59248 1.34758   3 
 -13  -3   4 3.58634 1.02183   5 
  12   3  -4 5.94713 1.41750   3 
 -12  -3   4 4.67027 1.02004   5 
 -12  -3   4 4.82029 1.06993   1 
  11   3  -4 29.7185 2.30647   3 
 -11  -3   4 32.0259 2.01504   1 
 -11  -3   4 27.8669 1.87836   5 
  10   3  -4 24.3143 2.02931   3 
 -10  -3   4 26.8342 1.74896   5 
 -10  -3   4 27.3779 1.79029   1 
   9   3  -4 265.431 8.13470   3 
  -9  -3   4 264.569 7.69851   1 
  -9  -3   4 258.623 7.65848   5 
   8   3  -4 -0.6608 0.64015   3 
   8   3  -4 -0.5463 0.41346   2 
  -8  -3   4 0.11788 0.53312   5 
  -8  -3   4 0.12517 0.45627   6 
  -8  -3   4 -0.6062 0.48851   1 
   7   3  -4 208.890 6.00998   2 
   7   3  -4 213.131 6.25730   6 
   7   3  -4 208.398 6.46708   3 
  -7  -3   4 207.563 6.10942   5 
  -7  -3   4 217.176 6.18275   1 
  -7  -3   4 209.971 6.18346   6 
   6   3  -4 134.689 3.98511   4 
   6   3  -4 135.458 4.27479   6 
   6   3  -4 137.843 4.47592   3 
   6   3  -4 133.117 4.15673   2 
  -6  -3   4 139.722 4.24359   6 
  -6  -3   4 144.825 4.21706   5 
  -6  -3   4 138.376 4.24271   1 
   5   3  -4 296.111 8.29665   2 
   5   3  -4 301.279 8.30275   6 
   5   3  -4 292.353 7.92262   4 
   5   3  -4 310.363 8.50881   3 
  -5  -3   4 291.585 8.27045   1 
  -5  -3   4 322.835 8.28627   5 
  -5  -3   4 312.219 8.29908   6 
   4   3  -4 10.7952 0.97080   3 
   4   3  -4 10.1226 0.76375   6 
   4   3  -4 9.54456 0.86360   2 
  -4  -3   4 10.0194 0.83530   1 
  -4  -3   4 10.7308 0.77561   6 
  -4  -3   4 11.0809 0.85669   5 
   3   3  -4 1161.18 30.0494   2 
   3   3  -4 1193.18 30.0494   3 
   3   3  -4 1153.59 29.8487   6 
  -3  -3   4 1165.60 29.9627   1 
  -3  -3   4 1177.90 29.8578   6 
  -3  -3   4 1212.33 29.9454   5 
   2   3  -4 43.8042 1.60768   3 
   2   3  -4 42.0459 1.68448   2 
  -2  -3   4 43.3227 1.59711   5 
  -2  -3   4 40.3064 1.42860   6 
  -2  -3   4 38.3410 1.55455   1 
  -2  -3   4 42.5804 1.49663   6 
   1   3  -4 639.258 17.4300   2 
   1   3  -4 659.627 17.2698   3 
  -1  -3   4 661.267 17.1427   6 
  -1  -3   4 700.366 17.2032   4 
  -1  -3   4 681.337 17.1784   6 
  -1  -3   4 677.495 17.3844   1 
  -1  -3   4 695.722 17.4033   5 
   0   3  -4 348.525 9.43286   3 
   0   3  -4 370.122 9.71024   2 
   0  -3   4 368.431 9.39150   6 
   0  -3   4 360.892 9.66274   5 
   0  -3   4 380.188 9.61777   4 
   0  -3   4 357.609 9.35902   6 
   0  -3   4 354.743 9.64098   1 
  -1   3  -4 87.8739 2.78605   2 
  -1   3  -4 87.0099 2.53145   3 
   1  -3   4 87.5267 2.87762   4 
   1  -3   4 85.2042 2.47954   6 
   1  -3   4 89.1347 2.50553   6 
   1  -3   4 87.8920 2.82916   5 
   1  -3   4 87.9209 2.82652   1 
  -2   3  -4 424.322 11.6097   1 
  -2   3  -4 436.300 11.4456   2 
   2  -3   4 436.568 11.1899   6 
   2  -3   4 428.631 11.1789   6 
   2  -3   4 427.705 11.5914   5 
   2  -3   4 427.200 11.5669   1 
   2  -3   4 446.851 11.7960   4 
   2  -3   4 442.708 11.2358   3 
   2  -3   4 442.922 11.2040   6 
  -3   3  -4 464.729 12.1066   2 
  -3   3  -4 444.366 12.3370   1 
   3  -3   4 464.108 12.6639   4 
   3  -3   4 449.360 11.9228   6 
   3  -3   4 471.463 11.9284   6 
   3  -3   4 467.338 11.9715   3 
   3  -3   4 472.117 12.4055   5 
  -4   3  -4 50.2977 1.76837   2 
  -4   3  -4 49.5661 2.07442   1 
   4  -3   4 50.5112 1.74226   3 
   4  -3   4 46.7545 2.34734   4 
   4  -3   4 47.9158 2.08073   5 
   4  -3   4 46.9888 1.66710   6 
  -5   3  -4 124.389 4.05483   1 
   5  -3   4 120.059 4.46030   4 
   5  -3   4 121.867 3.62512   6 
   5  -3   4 122.782 4.10491   5 
  -6   3  -4 9.38126 0.95607   1 
   6  -3   4 9.53373 1.32459   4 
   6  -3   4 7.91678 0.96599   5 
   6  -3   4 9.19723 0.75964   6 
  -7   3  -4 209.481 6.31066   1 
  -7   3  -4 206.809 6.44433   5 
   7  -3   4 196.438 6.97367   4 
   7  -3   4 202.041 5.95478   6 
   7  -3   4 204.693 6.46681   5 
  -8   3  -4 24.1539 1.80130   5 
  -8   3  -4 27.7210 1.76708   1 
   8  -3   4 26.8987 2.31929   4 
   8  -3   4 25.5945 1.85330   5 
   8  -3   4 25.5022 1.50056   6 
  -9   3  -4 70.8482 3.02725   1 
  -9   3  -4 72.5536 3.26250   5 
   9  -3   4 64.4640 3.73308   4 
   9  -3   4 66.0139 2.75934   6 
 -10   3  -4 8.54129 1.31335   5 
 -10   3  -4 10.2785 1.26353   1 
  10  -3   4 12.5222 1.17581   6 
  10  -3   4 11.7126 1.85249   4 
  13   2  -4 2.09335 1.22175   3 
 -13  -2   4 -0.6839 0.77230   5 
  12   2  -4 12.3295 1.68423   3 
 -12  -2   4 9.69815 1.26456   5 
  11   2  -4 14.4482 1.65909   3 
 -11  -2   4 16.1401 1.38935   1 
 -11  -2   4 16.1984 1.45703   5 
  10   2  -4 38.5521 2.46660   3 
 -10  -2   4 39.1255 2.15038   5 
 -10  -2   4 43.1926 2.18535   1 
   9   2  -4 10.7527 1.34476   3 
   9   2  -4 9.02290 1.16179   4 
  -9  -2   4 8.79919 1.04449   1 
  -9  -2   4 8.92704 1.04168   5 
   8   2  -4 400.319 11.0223   4 
   8   2  -4 391.984 11.2357   3 
  -8  -2   4 401.908 10.8357   1 
  -8  -2   4 382.886 10.8735   5 
   7   2  -4 98.5961 3.44516   6 
   7   2  -4 99.5419 3.39536   4 
   7   2  -4 95.3132 3.60113   3 
  -7  -2   4 101.403 3.37498   6 
  -7  -2   4 102.654 3.41222   5 
  -7  -2   4 98.8336 3.33150   1 
   6   2  -4 113.711 3.55117   4 
   6   2  -4 114.607 3.47192   2 
   6   2  -4 111.118 3.66545   6 
   6   2  -4 110.765 3.82085   3 
  -6  -2   4 116.890 3.64762   5 
  -6  -2   4 114.546 3.60887   6 
  -6  -2   4 112.643 3.57709   1 
   5   2  -4 98.6923 3.24669   6 
   5   2  -4 100.417 3.07070   4 
   5   2  -4 105.276 3.19143   2 
   5   2  -4 105.230 3.46128   3 
  -5  -2   4 98.3373 3.20581   1 
  -5  -2   4 106.245 3.26823   5 
  -5  -2   4 104.546 3.23965   6 
   4   2  -4 651.676 16.8865   2 
   4   2  -4 641.187 17.0167   3 
   4   2  -4 649.229 16.6599   4 
   4   2  -4 641.621 16.8813   6 
  -4  -2   4 656.176 16.8632   6 
  -4  -2   4 637.539 16.8442   1 
  -4  -2   4 688.806 16.9149   5 
   3   2  -4 0.29062 0.31314   2 
   3   2  -4 0.47758 0.33892   3 
   3   2  -4 0.71355 0.27943   6 
  -3  -2   4 0.72747 0.29978   1 
  -3  -2   4 0.38770 0.24360   6 
  -3  -2   4 0.06994 0.28800   5 
   2   2  -4 480.205 12.6962   2 
   2   2  -4 474.699 12.6056   3 
   2   2  -4 496.061 12.5521   6 
  -2  -2   4 502.558 12.6425   5 
  -2  -2   4 494.441 12.6220   1 
  -2  -2   4 467.415 12.4988   6 
   1   2  -4 64.4483 1.98211   3 
   1   2  -4 61.0333 2.12544   2 
  -1  -2   4 66.3044 1.88904   4 
  -1  -2   4 64.0572 2.08106   1 
  -1  -2   4 64.5880 2.11568   5 
  -1  -2   4 65.5113 1.98304   6 
  -1  -2   4 62.3284 1.93012   6 
   0   2  -4 24.2454 0.89376   3 
   0   2  -4 24.0731 1.09759   2 
   0  -2   4 23.7663 0.93689   6 
   0  -2   4 23.4423 0.90542   6 
   0  -2   4 25.8364 1.06139   4 
   0  -2   4 25.4930 1.12084   5 
   0  -2   4 23.0409 1.06894   1 
  -1   2  -4 214.765 5.87570   2 
  -1   2  -4 212.199 5.58853   3 
   1  -2   4 213.258 5.90494   1 
   1  -2   4 225.345 5.99731   4 
   1  -2   4 218.227 5.94338   5 
   1  -2   4 213.518 5.67193   6 
   1  -2   4 203.168 5.64341   6 
  -2   2  -4 627.431 16.2184   2 
  -2   2  -4 630.105 16.3797   1 
   2  -2   4 619.070 16.0334   6 
   2  -2   4 619.798 16.0385   6 
   2  -2   4 634.235 16.0651   6 
   2  -2   4 644.279 16.0161   3 
   2  -2   4 617.715 16.3462   5 
   2  -2   4 642.915 16.5290   4 
  -3   2  -4 14.8765 0.84890   2 
  -3   2  -4 12.3862 1.00809   1 
   3  -2   4 16.2605 1.23239   4 
   3  -2   4 16.4476 0.76465   6 
   3  -2   4 14.7757 0.98675   5 
   3  -2   4 14.6268 0.75208   6 
   3  -2   4 12.6483 0.68968   3 
  -4   2  -4 146.634 4.07032   2 
  -4   2  -4 132.254 4.33886   1 
   4  -2   4 145.716 4.00208   3 
   4  -2   4 147.647 4.43366   5 
   4  -2   4 145.188 4.07399   6 
   4  -2   4 138.883 4.70310   4 
   4  -2   4 142.905 4.04905   6 
  -5   2  -4 15.6244 1.16048   1 
   5  -2   4 16.5863 0.92882   6 
   5  -2   4 16.2156 1.21136   5 
   5  -2   4 16.0765 1.50096   4 
  -6   2  -4 141.633 4.60945   1 
   6  -2   4 142.421 4.69641   5 
   6  -2   4 150.690 4.36334   6 
   6  -2   4 148.497 5.23157   4 
  -7   2  -4 -0.1088 0.52271   1 
  -7   2  -4 -0.1430 0.58268   5 
   7  -2   4 0.84681 0.87718   4 
   7  -2   4 0.62730 0.44462   6 
   7  -2   4 -0.2114 0.58969   5 
  -8   2  -4 155.485 5.15817   5 
  -8   2  -4 147.742 4.93329   1 
   8  -2   4 149.892 5.78060   4 
   8  -2   4 150.476 5.16329   5 
   8  -2   4 151.229 4.78431   6 
  -9   2  -4 40.4560 2.15709   1 
  -9   2  -4 40.3486 2.29162   5 
   9  -2   4 38.0704 1.99038   6 
   9  -2   4 38.2484 2.79739   4 
 -10   2  -4 45.3159 2.34615   1 
 -10   2  -4 38.8931 2.37263   5 
  10  -2   4 41.4910 2.17326   6 
  10  -2   4 37.0903 2.98284   4 
 -11   2  -4 16.8304 1.52797   1 
 -13  -1   4 54.5024 2.97822   5 
  12   1  -4 1.01254 1.03390   3 
 -12  -1   4 0.40710 0.86015   5 
  11   1  -4 28.2057 2.17534   3 
 -11  -1   4 24.5097 1.87303   5 
  10   1  -4 70.3873 3.30962   4 
  10   1  -4 67.3333 2.99715   6 
  10   1  -4 68.9211 3.27758   3 
 -10  -1   4 70.0507 2.83956   1 
 -10  -1   4 63.7722 2.93769   5 
   9   1  -4 82.7441 3.28701   6 
   9   1  -4 89.0739 3.60817   4 
   9   1  -4 81.7826 3.51732   3 
  -9  -1   4 83.6026 3.29284   5 
  -9  -1   4 83.3213 3.12242   1 
   8   1  -4 30.6330 1.91750   4 
   8   1  -4 31.2885 2.00414   3 
   8   1  -4 30.5034 1.74807   6 
  -8  -1   4 29.4975 1.65359   1 
  -8  -1   4 28.4762 1.75051   5 
   7   1  -4 432.191 11.8747   3 
   7   1  -4 436.143 11.6799   6 
   7   1  -4 420.623 11.1965   2 
   7   1  -4 429.632 11.7484   4 
  -7  -1   4 415.350 11.4238   1 
  -7  -1   4 425.850 11.6460   5 
   6   1  -4 55.0699 2.18213   6 
   6   1  -4 52.5238 2.16097   4 
   6   1  -4 54.3315 1.90430   2 
   6   1  -4 53.5872 2.32212   3 
  -6  -1   4 56.4192 2.09517   6 
  -6  -1   4 52.2286 2.02555   1 
  -6  -1   4 53.2391 2.15744   5 
   5   1  -4 336.464 9.35374   4 
   5   1  -4 364.503 9.61218   3 
   5   1  -4 346.575 9.22771   2 
   5   1  -4 340.321 9.41316   6 
  -5  -1   4 343.154 9.27707   1 
  -5  -1   4 355.328 9.44721   5 
  -5  -1   4 350.451 9.36510   6 
   4   1  -4 159.277 4.46161   2 
   4   1  -4 164.761 4.69548   3 
   4   1  -4 152.622 4.52046   6 
   4   1  -4 152.352 4.41123   4 
  -4  -1   4 161.137 4.50230   6 
  -4  -1   4 153.181 4.43190   1 
  -4  -1   4 157.857 4.56615   5 
   3   1  -4 470.657 12.6717   3 
   3   1  -4 485.854 12.5972   6 
   3   1  -4 494.695 12.6129   2 
  -3  -1   4 473.701 12.5191   1 
  -3  -1   4 495.001 12.4827   4 
  -3  -1   4 477.718 12.5536   6 
  -3  -1   4 491.961 12.6462   5 
   2   1  -4 5.23337 0.48878   2 
   2   1  -4 5.52561 0.48607   3 
   2   1  -4 5.27285 0.43137   6 
  -2  -1   4 4.54588 0.40355   6 
  -2  -1   4 4.39108 0.41817   1 
  -2  -1   4 5.09473 0.49731   5 
  -2  -1   4 5.41749 0.45303   4 
   1   1  -4 380.121 9.97041   3 
   1   1  -4 382.778 9.99232   6 
   1   1  -4 382.789 10.1108   2 
  -1  -1   4 385.886 10.0366   1 
  -1  -1   4 383.614 9.97530   6 
  -1  -1   4 388.745 9.96989   4 
  -1  -1   4 396.982 10.1094   5 
   0   1  -4 95.4313 2.37674   3 
   0   1  -4 80.6317 2.44040   6 
   0   1  -4 82.6550 2.58618   2 
   0  -1   4 81.6382 2.43917   6 
   0  -1   4 84.9086 2.47600   6 
   0  -1   4 81.0888 2.53709   1 
   0  -1   4 86.6122 2.60697   5 
   0  -1   4 88.6324 2.55959   4 
  -1   1  -4 132.060 3.84096   1 
  -1   1  -4 133.160 3.79123   2 
   1  -1   4 132.370 3.64784   6 
   1  -1   4 136.695 3.84196   5 
   1  -1   4 129.650 3.78825   1 
   1  -1   4 140.414 3.90530   4 
   1  -1   4 129.249 3.65824   6 
  -2   1  -4 352.291 9.52128   1 
  -2   1  -4 360.971 9.40899   2 
   2  -1   4 371.829 9.53064   5 
   2  -1   4 344.253 9.27896   6 
   2  -1   4 360.915 9.32874   6 
   2  -1   4 369.963 9.69249   4 
   2  -1   4 349.685 9.27581   6 
  -3   1  -4 676.200 18.2680   1 
  -3   1  -4 728.817 18.1086   2 
   3  -1   4 728.599 17.9650   3 
   3  -1   4 698.647 18.2872   5 
   3  -1   4 709.085 18.0744   6 
   3  -1   4 690.300 18.0238   6 
   3  -1   4 715.602 18.5574   4 
  -4   1  -4 94.5491 2.78103   2 
  -4   1  -4 92.6089 3.06331   1 
   4  -1   4 93.5457 3.40153   4 
   4  -1   4 92.3532 2.80385   6 
   4  -1   4 97.5809 2.69206   3 
   4  -1   4 89.9955 3.04371   5 
   4  -1   4 92.6833 2.83837   6 
  -5   1  -4 304.185 8.80579   1 
  -5   1  -4 334.946 8.43981   2 
   5  -1   4 303.965 9.24583   4 
   5  -1   4 326.123 8.89208   5 
   5  -1   4 312.256 8.57009   6 
   5  -1   4 338.511 8.50222   3 
  -6   1  -4 45.5758 1.97792   1 
   6  -1   4 45.3501 2.05998   5 
   6  -1   4 43.5353 2.39043   4 
   6  -1   4 47.3592 1.81167   6 
  -7   1  -4 210.020 6.20249   1 
   7  -1   4 197.487 6.80954   4 
   7  -1   4 209.132 6.29619   5 
   7  -1   4 206.506 5.97115   6 
  -8   1  -4 13.5099 1.16541   1 
  -8   1  -4 12.6319 1.23170   5 
   8  -1   4 12.9526 1.58636   4 
   8  -1   4 12.1438 1.05417   6 
   8  -1   4 12.4803 1.26250   5 
  -9   1  -4 185.393 6.00387   5 
  -9   1  -4 187.752 5.83760   1 
   9  -1   4 174.491 6.63585   4 
   9  -1   4 181.636 5.72975   6 
 -10   1  -4 30.8223 1.91981   1 
 -10   1  -4 30.0200 2.01848   5 
  10  -1   4 28.0933 1.80734   6 
  10  -1   4 27.0251 2.47575   4 
 -11   1  -4 60.2286 3.04355   5 
 -11   1  -4 64.2205 2.95696   1 
  11  -1   4 65.1301 3.84511   4 
  11  -1   4 60.1366 2.87517   6 
  12   0  -4 26.6408 2.33082   3 
 -12   0   4 22.7420 1.93679   5 
  11   0  -4 7.20208 1.41068   4 
  11   0  -4 6.40671 1.30365   3 
  11   0  -4 5.54638 1.10157   6 
 -11   0   4 6.68031 1.14127   5 
  10   0  -4 77.7781 3.60687   4 
  10   0  -4 73.8544 3.43213   3 
  10   0  -4 72.0010 3.13766   6 
 -10   0   4 69.5788 3.17017   5 
   9   0  -4 28.2936 2.09100   4 
   9   0  -4 30.6582 1.83864   6 
   9   0  -4 26.3686 2.01387   3 
  -9   0   4 26.2784 1.79872   5 
  -9   0   4 31.6015 1.74031   1 
   8   0  -4 153.108 4.95582   6 
   8   0  -4 157.117 5.31672   4 
   8   0  -4 144.829 5.13458   3 
  -8   0   4 144.671 4.94835   5 
  -8   0   4 163.197 4.76066   1 
   7   0  -4 54.3067 2.25667   6 
   7   0  -4 48.0301 2.39815   3 
   7   0  -4 53.7367 2.46720   4 
  -7   0   4 50.8151 2.27586   5 
  -7   0   4 53.2105 2.05788   1 
   6   0  -4 152.673 4.73132   6 
   6   0  -4 153.975 4.88410   4 
   6   0  -4 156.653 4.92623   3 
  -6   0   4 158.779 4.81984   5 
  -6   0   4 149.595 4.50309   1 
  -6   0   4 161.541 4.65234   6 
   5   0  -4 0.60054 0.45481   4 
   5   0  -4 0.79740 0.38368   6 
   5   0  -4 0.40484 0.46315   3 
   5   0  -4 1.66916 0.35515   2 
  -5   0   4 0.93083 0.46577   5 
  -5   0   4 0.62530 0.32074   1 
  -5   0   4 0.97278 0.33996   6 
   4   0  -4 686.978 17.6604   6 
   4   0  -4 704.788 17.5209   2 
   4   0  -4 657.741 17.7640   3 
   4   0  -4 666.964 17.6889   4 
  -4   0   4 706.605 17.7427   5 
  -4   0   4 660.185 17.4713   1 
  -4   0   4 695.483 17.5969   6 
   3   0  -4 8.84090 0.67608   2 
   3   0  -4 8.11294 0.65438   6 
   3   0  -4 10.1657 0.83284   3 
  -3   0   4 10.8430 0.75245   4 
  -3   0   4 8.85630 0.62750   6 
  -3   0   4 9.22449 0.59814   1 
  -3   0   4 10.3704 0.81728   5 
   2   0  -4 1086.04 28.7968   3 
   2   0  -4 1106.62 28.7478   6 
   2   0  -4 1129.80 28.7805   2 
  -2   0   4 1216.45 28.8284   4 
  -2   0   4 1111.09 28.7084   6 
  -2   0   4 1120.23 28.6537   1 
  -2   0   4 1178.18 28.8404   5 
   1   0  -4 137.048 3.95179   3 
   1   0  -4 147.391 4.06637   2 
   1   0  -4 138.153 3.98333   6 
  -1   0   4 152.018 4.08135   5 
  -1   0   4 142.458 3.92572   1 
  -1   0   4 153.990 4.01790   4 
  -1   0   4 144.280 3.97120   6 
   0   0  -4 113.553 3.17902   3 
   0   0  -4 112.429 3.37467   2 
   0   0  -4 113.420 3.28840   6 
   0   0   4 125.898 3.41711   4 
   0   0   4 120.494 3.30874   1 
   0   0   4 119.495 3.29333   6 
   0   0   4 125.493 3.40374   5 
  -1   0  -4 0.28351 0.27018   1 
  -1   0  -4 0.45013 0.24646   2 
  -1   0  -4 0.23585 0.16569   6 
   1   0   4 1.08166 0.33315   4 
   1   0   4 0.50996 0.25599   5 
   1   0   4 0.55626 0.23050   6 
   1   0   4 0.19325 0.35337   1 
  -2   0  -4 353.567 9.81010   1 
  -2   0  -4 382.052 9.77001   2 
  -2   0  -4 395.782 9.72343   6 
   2   0   4 361.135 9.80412   5 
   2   0   4 374.577 9.68824   6 
   2   0   4 385.904 10.0373   4 
   2   0   4 363.196 9.70748   6 
  -3   0  -4 108.194 3.03192   6 
  -3   0  -4 99.5953 3.17702   1 
  -3   0  -4 105.416 3.04162   2 
   3   0   4 103.145 3.42570   4 
   3   0   4 103.111 3.15456   5 
   3   0   4 107.772 3.02523   6 
   3   0   4 102.567 3.04538   6 
  -4   0  -4 794.382 19.9421   2 
  -4   0  -4 725.622 20.1398   1 
   4   0   4 789.235 20.1800   5 
   4   0   4 780.959 19.9880   6 
   4   0   4 782.350 20.5343   4 
   4   0   4 799.721 20.0472   6 
   4   0   4 799.708 19.8471   3 
  -5   0  -4 207.972 5.42842   2 
  -5   0  -4 194.143 5.76400   1 
   5   0   4 199.845 6.19235   4 
   5   0   4 197.309 5.76991   5 
   5   0   4 196.161 5.58209   6 
   5   0   4 207.387 5.45454   3 
  -6   0  -4 307.719 8.82732   1 
   6   0   4 329.676 8.71321   6 
   6   0   4 334.838 8.56765   3 
   6   0   4 315.263 8.88465   5 
   6   0   4 309.617 9.37417   4 
  -7   0  -4 37.8295 1.80119   1 
   7   0   4 38.3097 2.32321   4 
   7   0   4 37.8224 1.88661   5 
   7   0   4 40.6767 1.75771   6 
  -8   0  -4 162.045 5.18158   5 
  -8   0  -4 162.699 5.11219   1 
   8   0   4 146.308 5.71169   4 
   8   0   4 166.105 5.02312   6 
   8   0   4 170.757 5.27974   5 
  -9   0  -4 6.39687 1.01341   5 
  -9   0  -4 7.30825 0.97371   1 
   9   0   4 7.15887 0.95322   6 
   9   0   4 7.18312 1.41278   4 
 -10   0  -4 116.032 4.37359   5 
 -10   0  -4 123.168 4.29251   1 
  10   0   4 121.909 4.30323   6 
  10   0   4 116.929 5.13805   4 
 -11   0  -4 1.28307 0.70800   1 
 -11   0  -4 -0.1023 0.71796   5 
  11   0   4 -0.5082 0.62843   6 
  11   0   4 -0.7212 1.10375   4 
 -12   0  -4 29.2156 1.98621   1 
 -12   0  -4 30.8094 2.15206   5 
  12   0   4 33.1345 2.11019   6 
  12  -1  -4 -0.4158 0.94584   3 
  12  -1  -4 -0.1967 1.12313   4 
  12  -1  -4 0.57072 0.87247   6 
 -12   1   4 -1.0190 0.70445   5 
  11  -1  -4 10.9719 1.48655   3 
  11  -1  -4 8.36348 1.52439   4 
  11  -1  -4 9.54940 1.23430   6 
 -11   1   4 8.63739 1.26906   5 
  10  -1  -4 25.9129 1.80445   6 
  10  -1  -4 30.5132 2.20484   3 
  10  -1  -4 31.7489 2.39224   4 
 -10   1   4 27.9544 1.96459   5 
   9  -1  -4 38.7812 2.46364   4 
   9  -1  -4 36.9196 2.04139   6 
   9  -1  -4 37.3595 2.31836   3 
  -9   1   4 37.7797 2.15742   5 
   8  -1  -4 30.4558 1.75109   6 
   8  -1  -4 29.3253 2.07184   4 
   8  -1  -4 30.2488 1.99678   3 
  -8   1   4 32.6529 1.61314   1 
  -8   1   4 31.7486 1.84335   5 
   7  -1  -4 247.992 7.21170   6 
   7  -1  -4 254.950 7.61746   4 
   7  -1  -4 241.991 7.43176   3 
  -7   1   4 244.760 7.31410   5 
  -7   1   4 251.104 6.94773   1 
   6  -1  -4 21.9751 1.53617   3 
   6  -1  -4 22.7214 1.29781   6 
   6  -1  -4 20.8975 0.96477   2 
   6  -1  -4 22.5579 1.58518   4 
  -6   1   4 20.2427 1.38199   5 
  -6   1   4 23.6512 1.21098   1 
   5  -1  -4 429.660 11.2426   2 
   5  -1  -4 408.156 11.7027   3 
   5  -1  -4 420.520 11.7918   4 
   5  -1  -4 434.522 11.5706   6 
  -5   1   4 454.511 11.7492   5 
  -5   1   4 439.596 11.4725   6 
  -5   1   4 448.391 11.3372   1 
   4  -1  -4 18.5167 1.01431   6 
   4  -1  -4 18.7721 0.88273   2 
   4  -1  -4 17.9891 1.17121   3 
   4  -1  -4 19.5523 1.18742   4 
  -4   1   4 17.1744 0.84564   1 
  -4   1   4 18.0700 0.93259   6 
  -4   1   4 20.5491 1.14975   5 
   3  -1  -4 257.917 7.01654   6 
   3  -1  -4 261.166 7.16679   4 
   3  -1  -4 265.714 6.93682   2 
   3  -1  -4 262.751 7.16256   3 
  -3   1   4 267.382 7.14570   5 
  -3   1   4 250.097 6.79357   1 
  -3   1   4 258.654 6.95471   6 
   2  -1  -4 51.3184 1.72264   6 
   2  -1  -4 52.7895 1.72427   2 
   2  -1  -4 47.0299 1.78863   3 
  -2   1   4 54.5233 1.84326   4 
  -2   1   4 52.1763 1.52976   1 
  -2   1   4 52.8720 1.68591   6 
  -2   1   4 49.7537 1.78192   5 
   1  -1  -4 772.926 20.4248   2 
   1  -1  -4 770.201 20.4284   3 
   1  -1  -4 819.009 20.4211   6 
  -1   1   4 799.105 20.2762   1 
  -1   1   4 780.476 20.3612   6 
  -1   1   4 831.154 20.4742   5 
  -1   1   4 844.430 20.5350   4 
   0  -1  -4 22.0974 0.91899   6 
   0  -1  -4 25.0286 0.88595   1 
   0  -1  -4 20.9263 0.87265   3 
   0  -1  -4 21.6162 0.97356   2 
   0   1   4 22.5091 0.85383   1 
   0   1   4 24.6943 0.97746   5 
   0   1   4 23.3378 0.91185   6 
   0   1   4 25.9714 1.11044   4 
  -1  -1  -4 292.033 7.49284   2 
  -1  -1  -4 273.049 7.40067   1 
  -1  -1  -4 262.447 7.39101   6 
  -1  -1  -4 277.623 7.29445   3 
   1   1   4 281.019 7.40211   6 
   1   1   4 299.955 7.65864   4 
   1   1   4 294.657 7.46597   5 
  -2  -1  -4 35.1804 1.33253   1 
  -2  -1  -4 35.6213 1.32278   2 
  -2  -1  -4 36.5244 1.28141   6 
   2   1   4 35.8187 1.25866   6 
   2   1   4 35.5930 1.32950   5 
   2   1   4 38.0549 1.08249   3 
   2   1   4 36.0795 1.55210   4 
   2   1   4 34.7900 1.24859   6 
  -3  -1  -4 1113.36 27.7056   6 
  -3  -1  -4 1065.89 27.7689   1 
  -3  -1  -4 1090.08 27.6796   2 
   3   1   4 1088.80 27.6688   6 
   3   1   4 1065.21 27.7227   5 
   3   1   4 1086.80 27.6110   3 
   3   1   4 1138.18 28.1219   4 
  -4  -1  -4 641.126 16.9155   1 
  -4  -1  -4 683.779 16.7497   2 
  -4  -1  -4 654.513 16.8124   6 
   4   1   4 670.030 17.3125   4 
   4   1   4 633.779 16.8572   5 
   4   1   4 633.989 16.7838   6 
   4   1   4 656.338 16.6337   3 
  -5  -1  -4 281.176 7.83029   1 
  -5  -1  -4 295.528 7.54023   2 
  -5  -1  -4 283.657 7.70521   6 
   5   1   4 281.058 8.24575   4 
   5   1   4 289.471 7.55445   3 
   5   1   4 282.513 7.79976   5 
   5   1   4 281.851 7.70784   6 
  -6  -1  -4 53.9905 2.13727   1 
  -6  -1  -4 54.6004 1.77119   2 
   6   1   4 53.2000 2.11389   5 
   6   1   4 55.6966 2.57496   4 
   6   1   4 54.7657 2.03728   6 
   6   1   4 59.2103 1.98032   3 
  -7  -1  -4 105.775 3.60794   1 
   7   1   4 110.898 3.53600   6 
   7   1   4 107.558 4.14451   4 
   7   1   4 109.777 3.41859   3 
   7   1   4 111.891 3.65359   5 
  -8  -1  -4 55.3234 2.31152   5 
  -8  -1  -4 49.9255 2.21543   1 
   8   1   4 51.3231 2.18981   6 
   8   1   4 54.1524 2.33705   5 
   8   1   4 52.3917 2.81961   4 
  -9  -1  -4 174.501 5.56227   5 
  -9  -1  -4 179.441 5.53684   1 
   9   1   4 176.606 5.51091   6 
   9   1   4 168.303 6.24633   4 
 -10  -1  -4 11.1348 1.16894   1 
 -10  -1  -4 12.7263 1.23879   5 
  10   1   4 8.76166 1.61642   4 
  10   1   4 11.7571 1.21365   6 
 -11  -1  -4 39.0731 2.21287   5 
 -11  -1  -4 38.9435 2.16285   1 
  11   1   4 32.7418 2.78675   4 
  11   1   4 37.9846 2.17334   6 
 -12  -1  -4 6.27203 1.10443   1 
 -12  -1  -4 5.70145 1.09457   5 
  12   1   4 7.10688 1.18004   6 
  12   1   4 4.21343 1.53560   4 
  12  -2  -4 23.4933 1.81138   6 
  12  -2  -4 18.4439 2.11570   4 
  11  -2  -4 17.1010 2.00326   4 
  11  -2  -4 17.4505 1.54300   6 
  11  -2  -4 17.2697 1.83923   3 
  10  -2  -4 50.4895 3.07131   4 
  10  -2  -4 50.3549 2.81806   3 
  10  -2  -4 53.2722 2.55072   6 
 -10   2   4 52.2123 2.71929   5 
   9  -2  -4 0.33313 0.91900   4 
   9  -2  -4 0.76332 0.90722   3 
   9  -2  -4 0.66053 0.66910   6 
  -9   2   4 0.61292 0.69144   5 
   8  -2  -4 86.1428 3.24548   6 
   8  -2  -4 85.0877 3.55260   3 
   8  -2  -4 88.6734 3.79608   4 
  -8   2   4 83.3705 3.38327   5 
   7  -2  -4 6.76703 1.06435   3 
   7  -2  -4 6.68701 0.82590   6 
   7  -2  -4 7.68642 1.14582   4 
  -7   2   4 5.89929 0.88423   5 
   6  -2  -4 387.038 11.1554   4 
   6  -2  -4 382.352 10.6658   6 
   6  -2  -4 394.679 11.0063   3 
  -6   2   4 394.016 10.8944   5 
  -6   2   4 406.726 10.4223   1 
   5  -2  -4 0.31883 0.35397   6 
   5  -2  -4 1.29382 0.57883   3 
   5  -2  -4 0.59457 0.30109   2 
   5  -2  -4 0.81022 0.53507   4 
  -5   2   4 0.91141 0.49473   5 
  -5   2   4 0.74344 0.31642   1 
   4  -2  -4 307.647 8.28824   6 
   4  -2  -4 293.254 8.49947   3 
   4  -2  -4 306.508 8.07296   2 
   4  -2  -4 308.150 8.63226   4 
  -4   2   4 307.267 8.47036   5 
  -4   2   4 318.610 8.20592   6 
  -4   2   4 305.882 8.01036   1 
   3  -2  -4 781.147 20.8602   6 
   3  -2  -4 812.468 21.0937   3 
   3  -2  -4 836.483 21.2111   4 
   3  -2  -4 828.312 20.7896   2 
  -3   2   4 827.537 20.8126   6 
  -3   2   4 785.818 20.6256   1 
  -3   2   4 841.354 21.0697   5 
   2  -2  -4 705.587 18.7805   6 
   2  -2  -4 777.497 18.8041   2 
   2  -2  -4 699.520 18.9205   3 
  -2   2   4 744.103 18.9277   5 
  -2   2   4 716.505 18.7339   6 
  -2   2   4 773.975 19.0914   4 
  -2   2   4 730.207 18.5894   1 
   1  -2  -4 299.597 7.85374   6 
   1  -2  -4 272.925 7.91300   3 
   1  -2  -4 311.331 7.89310   2 
  -1   2   4 296.375 7.80680   6 
  -1   2   4 297.794 7.90950   5 
  -1   2   4 298.222 7.62401   1 
  -1   2   4 312.182 8.07121   4 
   0  -2  -4 34.0491 1.07633   1 
   0  -2  -4 34.6217 1.28798   2 
   0  -2  -4 31.7970 1.25086   3 
   0  -2  -4 33.7042 1.22397   6 
   0   2   4 36.6490 1.25371   5 
   0   2   4 34.6688 1.40590   4 
   0   2   4 36.1878 1.21873   6 
  -1  -2  -4 7.66830 0.48849   1 
  -1  -2  -4 8.80777 0.56771   6 
  -1  -2  -4 8.80098 0.60615   2 
  -1  -2  -4 8.36693 0.54843   3 
   1   2   4 8.88638 0.79349   4 
   1   2   4 9.05709 0.53323   6 
   1   2   4 8.82225 0.55162   5 
  -2  -2  -4 192.190 5.30890   6 
  -2  -2  -4 195.650 5.35771   2 
  -2  -2  -4 191.151 5.19889   3 
  -2  -2  -4 193.527 5.28522   1 
   2   2   4 198.133 5.27857   5 
   2   2   4 209.719 5.64843   4 
   2   2   4 198.633 5.30729   6 
   2   2   4 202.201 5.22009   3 
   2   2   4 190.960 5.28455   6 
  -3  -2  -4 191.145 5.25454   6 
  -3  -2  -4 184.844 5.24561   1 
  -3  -2  -4 192.657 5.23900   2 
   3   2   4 183.576 5.17331   5 
   3   2   4 198.041 5.13184   3 
   3   2   4 192.198 5.21748   6 
   3   2   4 199.864 5.63357   4 
  -4  -2  -4 597.601 16.0475   1 
  -4  -2  -4 611.488 16.0284   6 
  -4  -2  -4 621.691 15.9426   2 
   4   2   4 623.274 15.9090   3 
   4   2   4 633.475 16.0180   6 
   4   2   4 641.579 16.4962   4 
   4   2   4 619.617 15.9870   5 
  -5  -2  -4 125.480 3.54353   2 
  -5  -2  -4 125.050 3.71320   6 
  -5  -2  -4 120.226 3.74150   1 
   5   2   4 126.435 4.19443   4 
   5   2   4 121.671 3.67811   6 
   5   2   4 124.666 3.58535   3 
   5   2   4 122.183 3.67813   5 
  -6  -2  -4 985.076 25.3404   2 
  -6  -2  -4 992.777 25.6585   1 
   6   2   4 980.771 25.5998   5 
   6   2   4 986.751 26.2111   4 
   6   2   4 1031.43 25.5215   3 
   6   2   4 1011.79 25.6126   6 
  -7  -2  -4 10.5846 0.91948   1 
   7   2   4 12.1163 0.97071   6 
   7   2   4 9.95015 1.21119   4 
   7   2   4 10.1488 0.88563   5 
  -8  -2  -4 77.3834 2.84051   1 
  -8  -2  -4 72.1049 2.75957   5 
   8   2   4 74.8524 2.79990   6 
   8   2   4 78.5528 2.76840   3 
   8   2   4 72.2860 3.36832   4 
   8   2   4 74.9405 2.82106   5 
  -9  -2  -4 8.50485 0.97814   5 
  -9  -2  -4 8.59939 0.97823   1 
   9   2   4 8.21250 0.97964   6 
   9   2   4 6.12154 1.31562   4 
 -10  -2  -4 57.0085 2.54366   1 
 -10  -2  -4 57.7042 2.55498   5 
  10   2   4 58.3762 2.62686   6 
  10   2   4 50.9355 3.14510   4 
 -11  -2  -4 14.7243 1.35561   5 
 -11  -2  -4 13.8794 1.32275   1 
  11   2   4 12.7111 1.83912   4 
  11   2   4 11.5645 1.31457   6 
 -12  -2  -4 17.9650 1.58458   5 
 -12  -2  -4 20.3807 1.72353   1 
  12   2   4 16.8551 2.13184   4 
  12   2   4 19.0493 1.66388   6 
  13   2   4 4.17732 1.05915   6 
  11  -3  -4 10.9543 1.27524   6 
  11  -3  -4 11.2796 1.77218   4 
  11  -3  -4 10.7673 1.59396   3 
 -11   3   4 10.9960 1.46612   5 
  10  -3  -4 17.4795 1.76369   3 
  10  -3  -4 19.0283 2.03104   4 
  10  -3  -4 19.6248 1.53884   6 
 -10   3   4 18.0276 1.65370   5 
   9  -3  -4 87.1546 3.80836   3 
   9  -3  -4 89.3277 4.13760   4 
   9  -3  -4 90.2567 3.41998   6 
  -9   3   4 87.1122 3.67549   5 
   8  -3  -4 4.86735 1.04970   3 
   8  -3  -4 4.96685 0.84909   6 
   8  -3  -4 4.28220 1.13109   4 
  -8   3   4 4.68730 0.91141   5 
   7  -3  -4 467.954 13.1148   3 
   7  -3  -4 469.455 12.7124   6 
   7  -3  -4 476.459 13.4745   4 
  -7   3   4 460.087 13.0028   5 
   6  -3  -4 1.51842 0.52177   6 
   6  -3  -4 0.57199 0.65610   3 
   6  -3  -4 0.51079 0.72675   4 
  -6   3   4 -0.9458 0.50362   5 
   5  -3  -4 456.322 11.8767   2 
   5  -3  -4 458.787 12.1980   6 
   5  -3  -4 457.811 12.7932   4 
   5  -3  -4 454.431 12.5472   3 
  -5   3   4 467.697 11.9027   1 
  -5   3   4 459.065 12.4807   5 
   4  -3  -4 1.15153 0.56095   4 
   4  -3  -4 2.52502 0.44468   6 
   4  -3  -4 1.50898 0.57488   3 
   4  -3  -4 1.25439 0.35629   2 
  -4   3   4 1.24888 0.47348   5 
  -4   3   4 2.45200 0.30765   1 
   3  -3  -4 352.283 9.66295   3 
   3  -3  -4 359.637 9.28784   2 
   3  -3  -4 360.971 9.83317   4 
   3  -3  -4 364.410 9.39213   6 
  -3   3   4 361.325 9.61237   5 
  -3   3   4 338.548 9.05306   1 
  -3   3   4 344.362 9.28401   6 
   2  -3  -4 708.901 17.8400   2 
   2  -3  -4 687.388 18.0981   3 
   2  -3  -4 708.807 18.2534   4 
   2  -3  -4 698.395 17.8592   6 
  -2   3   4 697.633 18.0264   5 
  -2   3   4 703.779 18.2521   4 
  -2   3   4 674.753 17.7750   6 
   1  -3  -4 1085.71 26.5146   2 
   1  -3  -4 1006.21 26.6312   3 
   1  -3  -4 1022.13 26.4587   6 
  -1   3   4 1029.75 26.5526   5 
  -1   3   4 1083.50 26.8310   4 
  -1   3   4 1037.96 26.4184   6 
   0  -3  -4 101.079 3.18191   3 
   0  -3  -4 106.669 3.06476   6 
   0  -3  -4 104.116 2.79746   1 
   0  -3  -4 109.651 3.12848   2 
   0   3   4 104.859 3.02205   6 
   0   3   4 109.718 3.07350   5 
   0   3   4 112.059 3.36818   4 
  -1  -3  -4 583.168 14.8790   6 
  -1  -3  -4 559.638 14.9193   3 
  -1  -3  -4 576.375 14.7136   1 
  -1  -3  -4 572.188 14.9275   2 
   1   3   4 580.058 14.8036   5 
   1   3   4 604.308 15.1798   4 
   1   3   4 585.654 14.8489   6 
  -2  -3  -4 20.3171 0.90656   6 
  -2  -3  -4 20.5089 0.96456   2 
  -2  -3  -4 20.6982 0.90728   3 
  -2  -3  -4 19.4094 0.83105   1 
   2   3   4 21.0087 0.87901   6 
   2   3   4 22.1300 1.21581   4 
   2   3   4 21.0600 0.82015   5 
   2   3   4 19.3579 0.86619   6 
  -3  -3  -4 229.600 6.33662   2 
  -3  -3  -4 231.338 6.35204   6 
  -3  -3  -4 232.830 6.28823   1 
   3   3   4 240.864 6.32318   6 
   3   3   4 233.093 6.19940   5 
   3   3   4 234.068 6.31078   3 
   3   3   4 245.333 6.72449   4 
  -4  -3  -4 117.849 3.53666   1 
  -4  -3  -4 117.535 3.50239   2 
  -4  -3  -4 119.923 3.55956   6 
   4   3   4 122.314 3.53950   6 
   4   3   4 119.084 3.41782   5 
   4   3   4 125.507 3.98478   4 
   4   3   4 126.714 3.55200   3 
  -5  -3  -4 163.400 4.69608   2 
  -5  -3  -4 168.682 4.83102   6 
  -5  -3  -4 161.260 4.79582   1 
   5   3   4 173.558 5.31562   4 
   5   3   4 168.493 4.81013   6 
   5   3   4 169.307 4.70427   5 
   5   3   4 173.608 4.80350   3 
  -6  -3  -4 71.5433 2.55177   1 
  -6  -3  -4 73.4143 2.50363   6 
  -6  -3  -4 70.2319 2.34285   2 
   6   3   4 70.5227 2.97675   4 
   6   3   4 72.4501 2.49819   6 
   6   3   4 73.9294 2.43463   5 
   6   3   4 75.9698 2.50435   3 
  -7  -3  -4 1028.37 25.8008   5 
  -7  -3  -4 966.614 25.8876   1 
  -7  -3  -4 1007.54 25.6058   2 
   7   3   4 1013.59 25.8073   5 
   7   3   4 991.499 25.8988   6 
   7   3   4 1005.51 26.5447   4 
   7   3   4 1019.54 25.8614   3 
  -8  -3  -4 24.8203 1.44961   1 
  -8  -3  -4 24.0580 1.40623   5 
   8   3   4 22.8109 1.86458   4 
   8   3   4 25.8690 1.49446   3 
   8   3   4 25.4201 1.48068   6 
  -9  -3  -4 148.434 4.93912   1 
  -9  -3  -4 160.122 4.92627   5 
   9   3   4 166.160 4.99835   3 
   9   3   4 157.355 5.02182   6 
   9   3   4 148.377 5.60709   4 
 -10  -3  -4 21.3902 1.53251   1 
 -10  -3  -4 20.9998 1.55424   5 
  10   3   4 25.6334 1.73290   6 
  10   3   4 22.1372 2.13310   4 
 -11  -3  -4 31.6778 1.90199   5 
 -11  -3  -4 32.9846 1.96448   1 
  11   3   4 27.1992 2.46856   4 
  11   3   4 30.4587 2.00472   6 
 -12  -3  -4 16.3817 1.52987   1 
  12   3   4 15.7881 1.55677   6 
  12   3   4 10.9257 1.86573   4 
 -13  -3  -4 14.5047 1.56834   1 
  13   3   4 15.0982 2.10296   4 
  11  -4  -4 14.7038 1.73971   3 
  10  -4  -4 33.8677 2.48148   3 
  10  -4  -4 34.7053 2.01512   6 
  10  -4  -4 35.8591 2.72944   4 
 -10   4   4 31.8222 2.29328   5 
   9  -4  -4 2.94860 1.19564   4 
   9  -4  -4 3.12110 0.78813   6 
   9  -4  -4 3.14364 1.03853   3 
  -9   4   4 2.14302 0.89065   5 
   8  -4  -4 98.7461 3.57045   6 
   8  -4  -4 104.164 4.15877   3 
   8  -4  -4 102.042 4.43206   4 
  -8   4   4 99.1805 3.96899   5 
   7  -4  -4 37.9588 1.81312   6 
   7  -4  -4 37.6997 2.53714   4 
   7  -4  -4 35.6518 2.22175   3 
  -7   4   4 38.8515 2.12073   5 
   6  -4  -4 177.134 5.25392   6 
   6  -4  -4 174.439 5.73314   3 
   6  -4  -4 175.964 6.01097   4 
  -6   4   4 176.313 5.62463   5 
   5  -4  -4 39.3097 1.68841   6 
   5  -4  -4 39.1246 2.09217   3 
   5  -4  -4 41.4386 2.26118   4 
  -5   4   4 40.2067 1.98993   5 
   4  -4  -4 442.989 12.2272   3 
   4  -4  -4 450.516 11.8039   6 
   4  -4  -4 450.262 12.4663   4 
   4  -4  -4 442.087 11.6586   2 
  -4   4   4 451.863 12.1442   5 
   3  -4  -4 54.3380 1.81985   6 
   3  -4  -4 52.4466 1.79463   2 
   3  -4  -4 50.2474 2.15560   3 
   3  -4  -4 49.4439 2.25780   4 
   3  -4  -4 50.9796 1.81044   6 
  -3   4   4 50.9887 2.05095   5 
   2  -4  -4 945.480 24.3941   2 
   2  -4  -4 948.710 24.7179   3 
   2  -4  -4 966.272 24.3795   6 
   2  -4  -4 989.063 24.3609   6 
   2  -4  -4 962.285 24.9122   4 
  -2   4   4 941.088 24.8933   4 
  -2   4   4 953.621 24.5983   5 
   1  -4  -4 58.0837 1.89875   6 
   1  -4  -4 58.6906 1.85652   6 
   1  -4  -4 58.3014 2.17466   3 
   1  -4  -4 58.5642 1.96902   2 
  -1   4   4 59.1108 2.02584   5 
  -1   4   4 57.5148 2.27804   4 
   0  -4  -4 188.643 4.96898   6 
   0  -4  -4 183.583 5.05585   2 
   0  -4  -4 183.788 5.19271   3 
   0   4   4 179.024 4.90756   6 
   0   4   4 175.977 4.96598   5 
   0   4   4 179.892 5.31030   4 
  -1  -4  -4 433.821 11.7544   2 
  -1  -4  -4 455.130 11.4949   1 
  -1  -4  -4 425.660 11.6539   6 
  -1  -4  -4 455.502 11.8499   3 
   1   4   4 481.749 12.0752   4 
   1   4   4 452.269 11.5864   5 
   1   4   4 454.102 11.6400   6 
  -2  -4  -4 97.8435 3.06480   3 
  -2  -4  -4 97.8309 3.02744   2 
  -2  -4  -4 96.8922 2.97017   6 
  -2  -4  -4 102.716 2.83094   1 
   2   4   4 104.155 3.31138   4 
   2   4   4 103.367 2.92939   6 
   2   4   4 103.493 2.79109   5 
  -3  -4  -4 4.48880 0.49107   2 
  -3  -4  -4 5.50339 0.45021   1 
  -3  -4  -4 5.10757 0.46768   6 
   3   4   4 5.02111 0.67970   4 
   3   4   4 5.53400 0.54086   3 
   3   4   4 5.61466 0.45974   6 
   3   4   4 4.95614 0.39495   5 
  -4  -4  -4 365.000 9.95546   6 
  -4  -4  -4 366.606 9.95038   2 
  -4  -4  -4 366.067 9.89347   1 
   4   4   4 379.383 9.93571   6 
   4   4   4 381.983 10.0219   3 
   4   4   4 398.425 10.4268   4 
   4   4   4 381.244 9.72588   5 
  -5  -4  -4 98.6576 3.07740   6 
  -5  -4  -4 94.5272 2.99538   2 
  -5  -4  -4 93.8576 3.01644   1 
   5   4   4 98.0049 2.83989   5 
   5   4   4 96.8587 3.03732   6 
   5   4   4 102.003 3.12853   3 
   5   4   4 100.033 3.49298   4 
  -6  -4  -4 305.547 8.50057   1 
  -6  -4  -4 304.231 8.38347   2 
  -6  -4  -4 319.972 8.55412   6 
   6   4   4 312.422 9.02538   4 
   6   4   4 311.523 8.50589   6 
   6   4   4 316.322 8.30400   5 
   6   4   4 313.865 8.56384   3 
  -7  -4  -4 41.2088 1.66666   2 
  -7  -4  -4 40.3272 1.83937   1 
  -7  -4  -4 42.2150 1.83488   6 
  -7  -4  -4 45.5536 1.71790   5 
   7   4   4 40.8632 2.30000   4 
   7   4   4 43.7084 1.69805   5 
   7   4   4 40.2795 1.87329   3 
   7   4   4 41.4934 1.80105   6 
  -8  -4  -4 44.5912 2.04970   1 
  -8  -4  -4 50.3724 1.94105   5 
   8   4   4 46.5610 2.09357   3 
   8   4   4 49.5157 2.08821   6 
   8   4   4 46.9874 2.54757   4 
  -9  -4  -4 21.4242 1.40390   5 
  -9  -4  -4 24.4909 1.55861   1 
   9   4   4 24.1299 2.01330   4 
   9   4   4 25.1742 1.58806   6 
   9   4   4 25.7524 1.60884   3 
 -10  -4  -4 135.999 4.39180   5 
 -10  -4  -4 129.868 4.52835   1 
  10   4   4 133.562 4.63571   6 
  10   4   4 129.535 5.16686   4 
  10   4   4 139.087 4.61899   3 
 -11  -4  -4 32.5227 1.99482   1 
  11   4   4 30.3776 2.50144   4 
 -12  -4  -4 50.4188 2.65099   1 
  12   4   4 47.2824 3.19375   4 
 -13  -4  -4 7.92816 1.25159   1 
  13   4   4 7.50215 1.71076   4 
  10  -5  -4 3.74371 0.86655   6 
  10  -5  -4 6.57206 1.56012   4 
  10  -5  -4 7.55479 1.38106   3 
   9  -5  -4 63.7150 3.27785   3 
   9  -5  -4 60.1026 3.51763   4 
   9  -5  -4 61.8799 2.66284   6 
  -9   5   4 56.9092 3.03289   5 
   8  -5  -4 34.3120 2.32823   3 
   8  -5  -4 33.1304 1.79236   6 
   8  -5  -4 37.7039 2.65253   4 
  -8   5   4 34.9118 2.21156   5 
   7  -5  -4 77.9008 3.45809   3 
   7  -5  -4 83.2962 3.81332   4 
   7  -5  -4 77.5708 2.88411   6 
  -7   5   4 77.2918 3.30948   5 
   6  -5  -4 74.4959 3.48149   4 
   6  -5  -4 78.3860 3.31595   3 
   6  -5  -4 76.7723 2.72344   6 
  -6   5   4 76.6185 3.13915   5 
   5  -5  -4 36.0113 1.54901   6 
   5  -5  -4 32.0782 2.00494   3 
   5  -5  -4 34.7272 2.16430   4 
  -5   5   4 32.9947 1.85837   5 
   4  -5  -4 13.3630 0.87468   2 
   4  -5  -4 9.52169 1.06597   3 
   4  -5  -4 10.9060 0.83683   6 
   4  -5  -4 9.58916 1.14724   4 
  -4   5   4 11.6350 1.00063   5 
   3  -5  -4 247.880 7.29824   4 
   3  -5  -4 244.597 6.61998   2 
   3  -5  -4 238.231 7.04996   3 
   3  -5  -4 235.712 6.54654   6 
  -3   5   4 240.437 6.91121   5 
  -3   5   4 236.891 7.26800   4 
   2  -5  -4 106.709 3.22189   2 
   2  -5  -4 105.645 3.11379   6 
   2  -5  -4 106.707 3.55730   3 
   2  -5  -4 109.672 3.10811   6 
   2  -5  -4 100.408 3.66608   4 
  -2   5   4 103.969 3.37647   5 
  -2   5   4 103.073 3.68827   4 
   1  -5  -4 289.025 7.39791   6 
   1  -5  -4 274.169 7.81429   3 
   1  -5  -4 280.724 7.42055   6 
   1  -5  -4 277.991 7.56222   2 
  -1   5   4 281.122 8.00554   4 
  -1   5   4 272.103 7.59186   5 
   0  -5  -4 76.0111 2.44508   2 
   0  -5  -4 74.3463 2.26975   6 
   0  -5  -4 71.7901 2.57994   3 
   0  -5  -4 76.4432 2.24068   6 
   0   5   4 72.5645 2.70399   4 
   0   5   4 71.1180 2.33053   5 
  -1  -5  -4 655.388 17.1808   3 
  -1  -5  -4 650.279 17.0527   2 
  -1  -5  -4 664.698 16.9005   6 
  -1  -5  -4 649.203 16.8556   6 
  -1  -5  -4 659.905 16.7412   1 
   1   5   4 668.898 17.3404   4 
   1   5   4 669.864 16.8363   5 
  -2  -5  -4 4.19191 0.50769   2 
  -2  -5  -4 3.99030 0.39550   1 
  -2  -5  -4 3.87040 0.40981   6 
  -2  -5  -4 3.81532 0.50823   3 
   2   5   4 3.25637 0.62369   4 
   2   5   4 3.60623 0.30366   5 
   2   5   4 4.60967 0.40292   6 
  -3  -5  -4 170.570 4.90351   2 
  -3  -5  -4 169.623 4.80007   6 
  -3  -5  -4 169.451 4.70829   1 
  -3  -5  -4 174.492 4.95196   3 
   3   5   4 163.302 4.91102   3 
   3   5   4 178.065 5.21554   4 
   3   5   4 175.058 4.76475   6 
  -4  -5  -4 70.2059 2.30048   6 
  -4  -5  -4 66.2629 2.34348   2 
  -4  -5  -4 67.9782 2.23058   1 
   4   5   4 68.3608 2.41343   3 
   4   5   4 70.1655 1.95324   5 
   4   5   4 67.1266 2.23261   6 
   4   5   4 72.2774 2.68026   4 
  -5  -5  -4 199.033 5.78569   1 
  -5  -5  -4 203.107 5.84360   2 
  -5  -5  -4 204.898 5.82785   6 
   5   5   4 218.208 6.00310   3 
   5   5   4 211.947 5.48945   5 
   5   5   4 206.093 6.25908   4 
  -6  -5  -4 148.583 4.46167   1 
  -6  -5  -4 150.171 4.13985   5 
  -6  -5  -4 146.601 4.47532   6 
  -6  -5  -4 147.681 4.42270   2 
   6   5   4 153.742 4.60017   3 
   6   5   4 150.916 4.14670   5 
   6   5   4 146.221 4.90682   4 
   6   5   4 148.047 4.44413   6 
  -7  -5  -4 154.462 4.81496   6 
  -7  -5  -4 152.391 4.80791   1 
  -7  -5  -4 162.580 4.51955   5 
  -7  -5  -4 161.153 4.71170   2 
   7   5   4 157.999 4.93916   3 
   7   5   4 167.998 5.38353   4 
   7   5   4 159.436 4.82759   6 
  -8  -5  -4 43.5790 1.80487   2 
  -8  -5  -4 42.0004 1.98444   1 
  -8  -5  -4 45.4979 1.77572   5 
   8   5   4 41.5785 2.44032   4 
   8   5   4 44.5531 2.10471   3 
   8   5   4 46.7007 2.03573   6 
  -9  -5  -4 61.0636 2.61375   1 
   9   5   4 64.5115 2.71677   3 
   9   5   4 62.6249 3.10477   4 
 -10  -5  -4 36.6478 2.03449   1 
  10   5   4 37.9728 2.15967   3 
  10   5   4 35.0957 2.45573   4 
 -11  -5  -4 55.9914 2.67853   1 
  11   5   4 55.5215 3.20341   4 
 -12  -5  -4 12.4398 1.39526   1 
  12   5   4 10.7394 1.80303   4 
 -13  -5  -4 22.4867 1.91756   1 
  13   5   4 22.0829 2.32380   4 
   9  -6  -4 19.4972 2.15430   4 
   9  -6  -4 19.2356 1.90333   3 
   9  -6  -4 21.5913 1.49133   6 
  -9   6   4 19.3102 1.79739   5 
   8  -6  -4 85.0199 3.80827   3 
   8  -6  -4 83.6684 4.17221   4 
   8  -6  -4 79.8123 3.07437   6 
  -8   6   4 84.5342 3.71967   5 
   7  -6  -4 -0.0416 0.47366   6 
   7  -6  -4 -0.6953 0.73784   3 
   7  -6  -4 -0.8854 0.77534   4 
  -7   6   4 0.10411 0.66105   5 
   6  -6  -4 232.479 7.82562   4 
   6  -6  -4 236.807 7.49178   3 
   6  -6  -4 240.230 6.75972   6 
  -6   6   4 234.055 7.32759   5 
   5  -6  -4 4.40498 0.63021   6 
   5  -6  -4 4.38535 1.02726   4 
   5  -6  -4 6.23067 1.09494   3 
  -5   6   4 4.34069 0.84445   5 
   4  -6  -4 110.818 4.07764   3 
   4  -6  -4 113.794 3.46831   6 
   4  -6  -4 110.203 4.28641   4 
  -4   6   4 118.238 3.96267   5 
   3  -6  -4 8.82998 0.72072   6 
   3  -6  -4 8.81963 0.75418   2 
   3  -6  -4 9.05506 1.02527   3 
   3  -6  -4 10.0582 1.11057   4 
  -3   6   4 9.80963 1.11330   4 
  -3   6   4 9.93687 0.92586   5 
   2  -6  -4 126.825 4.45368   4 
   2  -6  -4 134.263 3.76352   6 
   2  -6  -4 130.856 4.32165   3 
   2  -6  -4 129.511 3.94953   2 
   2  -6  -4 131.927 3.76158   6 
  -2   6   4 128.844 4.47349   4 
  -2   6   4 129.398 4.08598   5 
   1  -6  -4 42.7860 1.48360   6 
   1  -6  -4 44.1389 1.52984   6 
   1  -6  -4 41.8135 1.72580   2 
   1  -6  -4 41.0885 1.93346   3 
  -1   6   4 42.1930 2.08295   4 
  -1   6   4 41.6599 1.74067   5 
   0  -6  -4 789.172 20.1653   2 
   0  -6  -4 790.855 19.9009   6 
   0  -6  -4 766.252 20.3520   3 
   0  -6  -4 783.765 19.6781   1 
   0  -6  -4 783.243 19.8514   6 
   0   6   4 759.377 20.0038   5 
   0   6   4 781.305 20.5402   4 
  -1  -6  -4 42.3749 1.81869   3 
  -1  -6  -4 41.4406 1.43408   6 
  -1  -6  -4 41.0351 1.29945   1 
  -1  -6  -4 36.8672 1.42716   6 
  -1  -6  -4 40.1659 1.70276   2 
   1   6   4 40.8664 1.92497   4 
   1   6   4 41.2032 1.44327   5 
  -2  -6  -4 731.638 18.6998   6 
  -2  -6  -4 724.396 18.6102   1 
  -2  -6  -4 740.351 18.6833   6 
  -2  -6  -4 716.540 18.9305   2 
  -2  -6  -4 722.377 19.0172   3 
   2   6   4 730.778 18.4994   5 
   2   6   4 743.293 19.2022   4 
  -3  -6  -4 1.33375 0.41265   2 
  -3  -6  -4 0.47579 0.38042   3 
  -3  -6  -4 0.58563 0.30312   6 
  -3  -6  -4 0.09724 0.27694   1 
   3   6   4 0.47899 0.52563   4 
   3   6   4 1.07055 0.27702   6 
   3   6   4 0.37469 0.14494   5 
   3   6   4 0.82360 0.44918   3 
  -4  -6  -4 599.016 15.9435   2 
  -4  -6  -4 605.795 15.8063   6 
  -4  -6  -4 612.978 15.7826   1 
   4   6   4 615.344 15.7735   6 
   4   6   4 618.156 16.0450   3 
   4   6   4 602.146 16.2396   4 
  -5  -6  -4 0.44080 0.41381   1 
  -5  -6  -4 -0.3697 0.37047   2 
  -5  -6  -4 0.85593 0.36165   6 
  -5  -6  -4 0.08761 0.16071   5 
   5   6   4 0.55238 0.28404   6 
   5   6   4 -0.1925 0.56448   4 
   5   6   4 0.07767 0.45525   3 
  -6  -6  -4 445.272 12.3446   6 
  -6  -6  -4 460.027 12.3599   1 
  -6  -6  -4 479.965 11.8857   5 
  -6  -6  -4 448.235 12.3629   2 
   6   6   4 486.298 12.3906   6 
   6   6   4 468.949 12.8678   4 
   6   6   4 458.938 12.5529   3 
  -7  -6  -4 71.3126 2.55144   2 
  -7  -6  -4 67.3916 2.56995   1 
  -7  -6  -4 68.4589 2.55244   6 
   7   6   4 67.6926 3.00622   4 
   7   6   4 70.6949 2.77849   3 
  -8  -6  -4 216.117 6.45697   1 
  -8  -6  -4 222.976 6.47617   6 
  -8  -6  -4 218.731 6.29261   2 
   8   6   4 214.754 6.95295   4 
   8   6   4 217.808 6.60317   3 
  -9  -6  -4 6.41021 0.92427   1 
   9   6   4 6.01370 1.00321   3 
   9   6   4 7.70611 1.27342   4 
 -10  -6  -4 136.845 4.77036   1 
  10   6   4 143.245 4.91823   3 
  10   6   4 143.516 5.33804   4 
 -11  -6  -4 14.4617 1.42735   1 
  11   6   4 16.8954 1.85921   4 
  11   6   4 17.6760 1.68743   3 
 -12  -6  -4 49.8499 2.66121   1 
  12   6   4 50.7872 3.17896   4 
 -13  -6  -4 3.33631 1.06465   1 
  13   6   4 2.03917 1.30970   4 
   9  -7  -4 43.4650 2.83066   3 
   8  -7  -4 15.3670 1.23937   6 
   8  -7  -4 11.5551 1.76512   4 
   8  -7  -4 16.4716 1.75604   3 
  -8   7   4 12.6372 1.49799   5 
   7  -7  -4 92.6105 4.03946   3 
   7  -7  -4 94.2055 4.43896   4 
   7  -7  -4 89.6757 3.21114   6 
  -7   7   4 94.8832 3.93710   5 
   6  -7  -4 3.45462 1.04667   3 
   6  -7  -4 2.61164 0.58789   6 
   6  -7  -4 2.07487 1.00443   4 
  -6   7   4 4.18828 0.92756   5 
   5  -7  -4 177.322 5.13127   6 
   5  -7  -4 173.716 5.97244   3 
   5  -7  -4 177.748 6.29083   4 
  -5   7   4 173.932 5.75078   5 
   4  -7  -4 1.75643 0.46904   6 
   4  -7  -4 1.92731 0.80087   3 
   4  -7  -4 0.58519 0.72198   4 
  -4   7   4 1.82424 0.89129   4 
  -4   7   4 1.13645 0.64870   5 
   3  -7  -4 78.0728 3.39340   4 
   3  -7  -4 80.2073 2.54774   6 
   3  -7  -4 81.6628 2.76770   2 
   3  -7  -4 79.8692 3.24135   3 
  -3   7   4 78.5825 3.01523   5 
  -3   7   4 75.0818 3.35335   4 
   2  -7  -4 19.6747 0.97866   6 
   2  -7  -4 19.0849 1.21746   2 
   2  -7  -4 18.2616 1.45917   3 
  -2   7   4 18.7297 1.29244   5 
  -2   7   4 19.3373 1.57133   4 
   1  -7  -4 41.6851 1.78451   2 
   1  -7  -4 39.6379 1.98598   3 
   1  -7  -4 39.6134 1.46134   6 
  -1   7   4 41.6487 1.77564   5 
  -1   7   4 38.5958 2.10371   4 
   0  -7  -4 39.9525 1.94312   3 
   0  -7  -4 40.5536 1.78344   2 
   0  -7  -4 41.7240 1.44427   6 
   0  -7  -4 42.3547 1.28228   1 
   0  -7  -4 41.2295 1.48007   6 
   0   7   4 41.4800 2.09752   4 
   0   7   4 38.6961 1.64292   5 
  -1  -7  -4 941.199 23.8849   6 
  -1  -7  -4 953.988 24.2396   2 
  -1  -7  -4 953.658 23.8438   6 
  -1  -7  -4 955.598 23.7328   1 
  -1  -7  -4 906.843 24.3812   3 
   1   7   4 935.069 23.8946   5 
   1   7   4 917.723 24.5220   4 
  -2  -7  -4 197.928 5.72699   6 
  -2  -7  -4 212.191 6.07296   2 
  -2  -7  -4 209.575 6.18844   3 
  -2  -7  -4 214.648 5.74237   6 
  -2  -7  -4 216.699 5.67922   1 
   2   7   4 209.413 5.55748   5 
   2   7   4 208.108 6.31540   4 
  -3  -7  -4 147.286 4.58726   3 
  -3  -7  -4 138.664 4.43215   2 
  -3  -7  -4 148.806 4.22874   6 
  -3  -7  -4 147.500 4.19335   1 
   3   7   4 146.808 4.58468   3 
   3   7   4 146.151 4.68929   4 
  -4  -7  -4 56.5309 2.04062   6 
  -4  -7  -4 59.3545 2.08592   1 
  -4  -7  -4 56.0685 2.24082   2 
   4   7   4 57.3662 2.34064   3 
   4   7   4 60.6908 2.52182   4 
  -5  -7  -4 281.716 8.36125   2 
  -5  -7  -4 301.376 8.23142   6 
  -5  -7  -4 310.291 8.29019   1 
   5   7   4 307.243 8.56132   3 
   5   7   4 306.127 8.72467   4 
  -6  -7  -4 8.50847 0.85334   1 
  -6  -7  -4 9.80942 0.85792   6 
  -6  -7  -4 8.14299 0.89779   2 
   6   7   4 8.70912 0.96616   3 
   6   7   4 7.39788 1.10939   4 
  -7  -7  -4 142.916 4.49567   2 
  -7  -7  -4 141.282 4.44088   6 
  -7  -7  -4 145.696 4.50815   1 
   7   7   4 142.096 4.93279   4 
   7   7   4 141.143 4.69240   3 
  -8  -7  -4 4.84652 0.83727   1 
  -8  -7  -4 4.54030 0.78982   2 
  -8  -7  -4 4.76579 0.74301   6 
   8   7   4 3.33980 0.87577   3 
   8   7   4 3.52710 1.08488   4 
  -9  -7  -4 96.1525 3.35766   2 
  -9  -7  -4 90.2993 3.47212   1 
   9   7   4 98.1791 3.99724   4 
   9   7   4 91.3011 3.61808   3 
 -10  -7  -4 7.08539 1.05127   1 
  10   7   4 6.35089 1.32040   4 
  10   7   4 8.82281 1.23234   3 
 -11  -7  -4 31.4299 2.03786   1 
  11   7   4 34.0156 2.50551   4 
  11   7   4 31.8179 2.17758   3 
 -12  -7  -4 5.83195 1.16935   1 
  12   7   4 3.92076 1.33722   4 
  12   7   4 5.58321 1.22171   3 
 -13  -7  -4 21.8723 1.89973   1 
  13   7   4 19.8459 2.22823   4 
   8  -8  -4 13.9012 1.71455   3 
   7  -8  -4 2.41501 1.09814   4 
   7  -8  -4 -0.0460 0.84281   3 
   7  -8  -4 1.77571 0.58818   6 
  -7   8   4 0.97947 0.80652   5 
   6  -8  -4 101.476 4.61154   4 
   6  -8  -4 99.4851 3.33568   6 
   6  -8  -4 104.941 4.34718   3 
  -6   8   4 101.614 4.64891   4 
  -6   8   4 102.379 4.11391   5 
   5  -8  -4 5.79611 0.68213   6 
   5  -8  -4 4.20833 1.09007   3 
   5  -8  -4 6.01054 1.22329   4 
  -5   8   4 6.89367 1.27102   4 
  -5   8   4 5.65277 1.04289   5 
   4  -8  -4 133.027 3.92070   6 
   4  -8  -4 127.491 5.04379   4 
   4  -8  -4 129.557 4.82869   3 
  -4   8   4 129.790 5.07560   4 
  -4   8   4 132.847 4.59621   5 
   3  -8  -4 12.1050 1.11070   2 
   3  -8  -4 12.2985 1.37115   4 
   3  -8  -4 13.4898 0.86327   6 
   3  -8  -4 13.4479 1.33198   3 
  -3   8   4 13.9542 1.44029   4 
  -3   8   4 11.1800 1.12494   5 
   2  -8  -4 75.3282 3.15518   3 
   2  -8  -4 75.7274 2.43875   6 
  -2   8   4 79.7092 2.96646   5 
  -2   8   4 76.4140 3.33691   4 
   1  -8  -4 230.041 6.35369   6 
   1  -8  -4 238.590 6.80393   2 
   1  -8  -4 226.234 7.08170   3 
  -1   8   4 235.911 7.33602   4 
  -1   8   4 242.077 6.77004   5 
   0  -8  -4 138.970 4.65922   3 
   0  -8  -4 136.864 3.99129   6 
   0  -8  -4 144.691 4.45478   2 
   0   8   4 136.714 4.80171   4 
   0   8   4 146.421 4.27532   5 
  -1  -8  -4 38.7515 2.00531   3 
  -1  -8  -4 43.0397 1.54489   6 
  -1  -8  -4 41.8844 1.94607   2 
  -1  -8  -4 42.4307 1.43588   1 
   1   8   4 41.1111 2.18897   4 
   1   8   4 41.0309 1.62640   5 
  -2  -8  -4 677.197 17.2916   1 
  -2  -8  -4 686.722 17.8087   2 
  -2  -8  -4 668.146 17.9367   3 
  -2  -8  -4 685.752 17.3763   6 
   2   8   4 652.501 18.0379   4 
  -3  -8  -4 188.359 5.57843   2 
  -3  -8  -4 184.789 5.17554   1 
  -3  -8  -4 187.891 5.69014   3 
  -3  -8  -4 175.373 5.16079   6 
   3   8   4 181.047 5.66159   3 
   3   8   4 183.969 5.82970   4 
  -4  -8  -4 261.903 7.12660   1 
  -4  -8  -4 244.647 7.05564   6 
  -4  -8  -4 251.605 7.40437   2 
   4   8   4 267.114 7.69474   4 
   4   8   4 262.188 7.55776   3 
  -5  -8  -4 57.4546 2.17228   6 
  -5  -8  -4 63.0896 2.27473   1 
  -5  -8  -4 58.9604 2.42494   2 
   5   8   4 59.4834 2.54393   3 
   5   8   4 58.8655 2.65644   4 
  -6  -8  -4 191.035 5.82400   2 
  -6  -8  -4 195.885 5.71678   1 
  -6  -8  -4 193.400 5.65327   6 
   6   8   4 187.565 5.96945   3 
   6   8   4 194.871 6.13483   4 
  -7  -8  -4 54.9223 2.32580   1 
  -7  -8  -4 54.6528 2.37669   2 
  -7  -8  -4 53.5624 2.23037   6 
   7   8   4 54.5201 2.52570   3 
   7   8   4 56.0560 2.69035   4 
  -8  -8  -4 160.280 5.06150   6 
  -8  -8  -4 163.478 5.15316   2 
  -8  -8  -4 163.536 5.15130   1 
   8   8   4 160.190 5.53649   4 
   8   8   4 159.237 5.36587   3 
  -9  -8  -4 -0.2131 0.54171   6 
  -9  -8  -4 0.18327 0.65301   2 
  -9  -8  -4 1.54436 0.71115   1 
   9   8   4 0.13242 0.91297   4 
   9   8   4 1.10405 0.78816   3 
 -10  -8  -4 33.1258 1.98399   1 
  10   8   4 36.4914 2.20014   3 
  10   8   4 32.1830 2.34015   4 
 -11  -8  -4 16.2243 1.43922   1 
  11   8   4 13.7739 1.71465   4 
  11   8   4 11.8733 1.45684   3 
 -12  -8  -4 12.9174 1.47422   1 
  12   8   4 13.9770 1.76955   4 
  12   8   4 13.5968 1.59898   3 
 -13  -8  -4 18.9704 1.76384   1 
  13   8   4 26.7864 2.46242   4 
   7  -9  -4 62.1171 3.40033   3 
  -7   9   4 64.5675 3.28724   5 
   6  -9  -4 5.05912 1.34398   4 
   6  -9  -4 5.13957 1.21143   3 
   6  -9  -4 3.96196 0.66494   6 
  -6   9   4 5.61075 1.44186   4 
  -6   9   4 3.21299 0.98640   5 
   5  -9  -4 62.5756 3.23156   3 
   5  -9  -4 61.5557 3.46434   4 
   5  -9  -4 62.9870 2.26512   6 
  -5   9   4 61.7123 2.99172   5 
  -5   9   4 62.3443 3.46346   4 
   4  -9  -4 6.61000 0.65563   6 
   4  -9  -4 7.26798 1.29043   4 
   4  -9  -4 5.89582 1.13622   3 
  -4   9   4 8.27337 1.11409   5 
  -4   9   4 6.27265 1.27316   4 
   3  -9  -4 130.422 3.83023   6 
   3  -9  -4 129.385 4.81083   3 
  -3   9   4 136.513 4.58672   5 
  -3   9   4 122.386 4.97381   4 
   2  -9  -4 2.29774 0.80511   3 
   2  -9  -4 3.89766 0.78004   2 
   2  -9  -4 3.63121 0.47371   6 
  -2   9   4 2.44358 0.87586   4 
  -2   9   4 3.35026 0.79284   5 
   1  -9  -4 132.389 4.75024   3 
   1  -9  -4 136.844 3.93090   6 
   1  -9  -4 139.336 4.48829   2 
  -1   9   4 142.495 4.42074   5 
  -1   9   4 130.225 4.92040   4 
   0  -9  -4 47.1058 2.36853   3 
   0  -9  -4 49.6712 2.23629   2 
   0  -9  -4 52.8053 1.77125   6 
   0   9   4 47.0559 2.51832   4 
   0   9   4 49.3030 2.03628   5 
  -1  -9  -4 335.687 9.15195   2 
  -1  -9  -4 321.961 8.55942   6 
  -1  -9  -4 307.626 9.27124   3 
   1   9   4 320.173 9.46826   4 
  -2  -9  -4 151.642 4.30350   6 
  -2  -9  -4 147.961 4.77201   2 
  -2  -9  -4 143.154 4.89062   3 
  -2  -9  -4 158.232 4.27611   1 
   2   9   4 141.086 5.00285   4 
  -3  -9  -4 420.538 10.8856   1 
  -3  -9  -4 423.692 10.8865   6 
  -3  -9  -4 389.867 11.2818   2 
  -3  -9  -4 413.139 11.5063   3 
   3   9   4 400.693 11.5658   4 
   3   9   4 413.005 11.5352   3 
  -4  -9  -4 17.1221 1.12135   1 
  -4  -9  -4 14.3070 1.30573   2 
  -4  -9  -4 16.7687 1.03261   6 
   4   9   4 14.6596 1.53347   4 
   4   9   4 15.7100 1.41195   3 
  -5  -9  -4 252.817 7.45103   2 
  -5  -9  -4 267.166 7.20840   1 
  -5  -9  -4 253.587 7.09815   6 
   5   9   4 243.674 7.62567   4 
   5   9   4 249.026 7.59609   3 
  -6  -9  -4 9.97889 0.87683   6 
  -6  -9  -4 9.09864 0.93186   1 
  -6  -9  -4 8.01315 1.01820   2 
   6   9   4 7.29273 1.15650   4 
   6   9   4 9.11274 1.14837   3 
  -7  -9  -4 73.8367 2.84611   1 
  -7  -9  -4 75.2237 2.77853   6 
  -7  -9  -4 73.6847 2.99143   2 
   7   9   4 73.9694 3.14081   3 
   7   9   4 75.3998 3.25064   4 
  -8  -9  -4 0.53007 0.66539   2 
  -8  -9  -4 1.33104 0.61060   6 
  -8  -9  -4 1.49520 0.69883   1 
   8   9   4 0.26077 0.77396   3 
   8   9   4 1.03195 0.89594   4 
  -9  -9  -4 105.455 3.93856   1 
  -9  -9  -4 115.533 4.02504   2 
  -9  -9  -4 112.512 3.93130   6 
   9   9   4 104.550 4.16234   3 
   9   9   4 110.691 4.38899   4 
 -10  -9  -4 -0.9817 0.63783   2 
 -10  -9  -4 0.01203 0.69048   1 
  10   9   4 0.11241 0.86303   3 
  10   9   4 -0.3813 0.91955   4 
 -11  -9  -4 36.8539 2.24628   1 
  11   9   4 38.6648 2.47463   3 
  11   9   4 44.2240 2.74606   4 
 -12  -9  -4 -0.8853 0.77958   1 
  12   9   4 0.18204 1.18588   4 
  12   9   4 0.63583 0.95392   3 
 -13  -9  -4 11.7551 1.52079   1 
  13   9   4 10.8108 1.58322   3 
   6 -10  -4 104.633 4.56711   3 
  -6  10   4 98.9137 4.31106   5 
   5 -10  -4 8.48390 0.74484   6 
   5 -10  -4 9.77652 1.60340   4 
   5 -10  -4 10.0124 1.41501   3 
  -5  10   4 6.99893 1.50960   4 
  -5  10   4 7.65219 1.26271   5 
   4 -10  -4 100.399 3.07633   6 
   4 -10  -4 98.2296 4.19058   3 
  -4  10   4 95.8686 4.46673   4 
  -4  10   4 95.9634 3.92034   5 
   3 -10  -4 98.5592 4.11405   3 
   3 -10  -4 98.7719 3.02562   6 
  -3  10   4 96.2491 4.32722   4 
  -3  10   4 98.8210 3.82346   5 
   2 -10  -4 154.506 4.92536   2 
   2 -10  -4 144.474 4.15140   6 
   2 -10  -4 140.046 5.19382   3 
  -2  10   4 144.455 4.85124   5 
  -2  10   4 137.372 5.39260   4 
   1 -10  -4 6.42177 0.95915   2 
   1 -10  -4 6.68964 1.06003   3 
   1 -10  -4 6.94983 0.59779   6 
  -1  10   4 5.19525 1.09984   4 
   0 -10  -4 194.891 5.34283   6 
   0 -10  -4 191.771 6.30326   3 
   0 -10  -4 202.181 6.07272   2 
   0  10   4 181.688 6.38063   4 
  -1 -10  -4 17.6373 1.51029   2 
  -1 -10  -4 19.7976 1.00782   6 
  -1 -10  -4 17.9376 1.51933   3 
   1  10   4 18.3100 1.74053   4 
  -2 -10  -4 353.107 9.85982   2 
  -2 -10  -4 337.383 9.97655   3 
  -2 -10  -4 346.195 9.19008   6 
   2  10   4 338.679 10.0925   4 
  -3 -10  -4 118.449 3.65561   6 
  -3 -10  -4 121.284 4.22707   2 
  -3 -10  -4 121.962 4.35771   3 
   3  10   4 123.878 4.41720   3 
   3  10   4 120.170 4.42436   4 
  -4 -10  -4 140.901 4.20928   1 
  -4 -10  -4 137.439 4.13125   6 
  -4 -10  -4 135.801 4.63401   2 
   4  10   4 135.006 4.81930   4 
   4  10   4 136.167 4.78579   3 
  -5 -10  -4 13.3988 1.23732   2 
  -5 -10  -4 14.2281 1.02146   6 
   5  10   4 12.7825 1.40986   4 
   5  10   4 13.2420 1.34146   3 
  -6 -10  -4 159.961 4.84441   6 
  -6 -10  -4 156.528 5.23793   2 
  -6 -10  -4 156.837 4.91082   1 
   6  10   4 162.855 5.42366   3 
   6  10   4 155.776 5.39416   4 
  -7 -10  -4 5.02131 0.76881   6 
  -7 -10  -4 1.50381 1.02615   2 
  -7 -10  -4 3.28077 0.77308   1 
   7  10   4 3.39291 1.06626   4 
   7  10   4 4.54272 1.00773   3 
  -8 -10  -4 58.3652 2.74188   2 
  -8 -10  -4 60.2979 2.53521   6 
  -8 -10  -4 60.3712 2.59598   1 
   8  10   4 63.1807 3.00511   4 
   8  10   4 57.4805 2.87262   3 
  -9 -10  -4 4.15286 0.92033   1 
  -9 -10  -4 3.14682 0.81345   6 
  -9 -10  -4 2.50648 0.87528   2 
   9  10   4 4.78572 1.20885   4 
   9  10   4 2.92784 1.05089   3 
 -10 -10  -4 25.3975 1.74559   6 
 -10 -10  -4 24.1095 1.75268   1 
 -10 -10  -4 24.3893 1.81784   2 
  10  10   4 24.8541 2.10662   4 
  10  10   4 22.9857 2.00628   3 
 -11 -10  -4 5.63071 1.12770   1 
  11  10   4 9.61006 1.42170   3 
  11  10   4 8.44431 1.49365   4 
 -12 -10  -4 53.2701 2.81891   1 
  12  10   4 48.1598 2.94232   3 
  13  10   4 9.50356 1.53391   3 
   5 -11  -4 10.8895 1.58921   3 
   4 -11  -4 31.5089 2.29844   3 
   4 -11  -4 32.2619 1.34074   6 
  -4  11   4 30.5820 2.59664   4 
   3 -11  -4 80.3990 2.44868   6 
   3 -11  -4 74.6256 3.60050   3 
  -3  11   4 70.6581 3.80264   4 
   2 -11  -4 51.1551 2.77550   3 
   2 -11  -4 49.5190 1.74212   6 
  -2  11   4 46.7081 2.90836   4 
   1 -11  -4 135.414 3.97544   6 
   1 -11  -4 153.263 4.97395   2 
   1 -11  -4 139.143 5.16168   3 
  -1  11   4 129.840 5.22559   4 
   0 -11  -4 0.85545 0.67340   3 
   0 -11  -4 0.20440 0.68777   2 
   0 -11  -4 0.50035 0.33695   6 
   0  11   4 1.29975 0.89245   4 
  -1 -11  -4 119.489 4.48414   3 
  -1 -11  -4 123.675 4.33431   2 
  -1 -11  -4 119.094 3.53868   6 
   1  11   4 114.092 4.54710   4 
  -2 -11  -4 35.4672 2.05394   2 
  -2 -11  -4 35.3179 1.43563   6 
  -2 -11  -4 33.1147 2.04774   3 
   2  11   4 33.0190 2.21961   4 
  -3 -11  -4 93.2200 2.95797   6 
  -3 -11  -4 95.1332 3.63332   2 
  -3 -11  -4 89.9819 3.66593   3 
   3  11   4 88.7898 3.76114   4 
   3  11   4 90.9832 3.75203   3 
  -4 -11  -4 36.7396 1.59662   6 
  -4 -11  -4 33.9501 2.10021   2 
   4  11   4 38.8360 2.35526   4 
   4  11   4 36.5002 2.23104   3 
  -5 -11  -4 132.432 4.26132   1 
  -5 -11  -4 135.786 4.74770   2 
  -5 -11  -4 135.383 4.18034   6 
   5  11   4 130.885 4.90719   4 
   5  11   4 138.231 4.92638   3 
  -6 -11  -4 16.6923 1.31398   1 
  -6 -11  -4 17.3134 1.54382   2 
  -6 -11  -4 16.0957 1.16182   6 
   6  11   4 20.3348 1.85298   4 
   6  11   4 18.7799 1.68917   3 
  -7 -11  -4 11.2552 1.10988   1 
  -7 -11  -4 10.3916 1.00170   6 
  -7 -11  -4 12.9970 1.31131   2 
   7  11   4 8.87239 1.30434   3 
   7  11   4 11.8123 1.42983   4 
  -8 -11  -4 108.403 3.95960   1 
  -8 -11  -4 111.135 4.27470   2 
  -8 -11  -4 111.793 3.91482   6 
   8  11   4 117.057 4.49955   4 
   8  11   4 111.805 4.44051   3 
  -9 -11  -4 12.2890 1.25556   1 
  -9 -11  -4 9.21301 1.10990   6 
  -9 -11  -4 12.4698 1.38457   2 
   9  11   4 12.8362 1.57743   4 
   9  11   4 12.6514 1.51784   3 
 -10 -11  -4 27.6486 2.01225   2 
 -10 -11  -4 27.4503 1.90726   1 
 -10 -11  -4 26.4549 1.83013   6 
  10  11   4 27.7535 2.15752   3 
 -11 -11  -4 51.9790 2.71183   1 
  11  11   4 54.2155 3.05546   3 
 -12 -11  -4 1.77343 0.87899   1 
  12  11   4 2.65296 1.13940   3 
  13  11   4 7.97499 1.50467   3 
   3 -12  -4 33.8619 2.46858   3 
   3 -12  -4 34.7769 1.28837   6 
  -3  12   4 33.4894 2.69620   4 
   2 -12  -4 30.3903 2.26157   3 
   2 -12  -4 27.1607 1.11658   6 
  -2  12   4 24.6351 2.30319   4 
   1 -12  -4 24.6394 1.06088   6 
   1 -12  -4 23.4118 1.94516   3 
  -1  12   4 23.0189 2.09272   4 
   0 -12  -4 65.2665 2.10454   6 
   0 -12  -4 68.2552 3.07487   2 
   0 -12  -4 64.0623 3.16571   3 
   0  12   4 58.1196 3.23427   4 
  -1 -12  -4 6.13194 1.05287   3 
  -1 -12  -4 6.27784 1.12103   2 
  -1 -12  -4 5.87514 0.56098   6 
   1  12   4 4.05950 1.14076   4 
  -2 -12  -4 160.810 5.44338   2 
  -2 -12  -4 158.642 4.48013   6 
  -2 -12  -4 150.718 5.50777   3 
   2  12   4 147.499 5.57475   4 
   2  12   4 153.863 5.59212   3 
  -3 -12  -4 6.18379 1.08509   3 
  -3 -12  -4 4.51979 0.61102   6 
  -3 -12  -4 6.30465 1.08166   2 
   3  12   4 4.59910 1.17368   4 
   3  12   4 4.54717 1.14544   3 
  -4 -12  -4 182.513 5.19767   6 
  -4 -12  -4 178.181 5.96991   2 
   4  12   4 178.516 6.13243   3 
   4  12   4 166.356 6.02914   4 
  -5 -12  -4 0.10451 0.43925   6 
  -5 -12  -4 -0.1588 0.75481   2 
   5  12   4 -0.3483 0.95213   4 
   5  12   4 0.39590 0.92951   3 
  -6 -12  -4 117.137 4.38347   2 
  -6 -12  -4 116.996 3.89943   1 
  -6 -12  -4 110.962 3.73274   6 
   6  12   4 109.951 4.44155   4 
   6  12   4 106.678 4.40533   3 
  -7 -12  -4 21.3731 1.56485   1 
  -7 -12  -4 19.9434 1.40180   6 
  -7 -12  -4 20.1407 1.79735   2 
   7  12   4 23.8955 1.95776   3 
   7  12   4 20.2884 1.96787   4 
  -8 -12  -4 26.1235 1.65819   6 
  -8 -12  -4 30.8297 2.13978   2 
   8  12   4 28.3310 2.24235   4 
   8  12   4 26.0380 2.15570   3 
  -9 -12  -4 22.7870 1.65890   6 
  -9 -12  -4 23.5773 1.72319   1 
  -9 -12  -4 26.8523 2.04833   2 
   9  12   4 23.0319 2.08362   3 
 -10 -12  -4 99.4627 4.04690   2 
 -10 -12  -4 92.0645 3.75627   1 
 -10 -12  -4 94.2012 3.72022   6 
  10  12   4 91.3171 4.17389   3 
 -11 -12  -4 -0.2859 0.91556   2 
 -11 -12  -4 1.71939 0.85289   1 
 -11 -12  -4 0.76732 0.73721   6 
  11  12   4 -0.1305 1.07917   3 
 -12 -12  -4 50.5100 2.74123   1 
  12  12   4 48.9912 3.07305   3 
   2 -13  -4 14.5770 1.63139   3 
  -2  13   4 11.5297 1.73696   4 
   1 -13  -4 36.4869 2.48962   3 
  -1  13   4 36.3192 2.70070   4 
   0 -13  -4 4.18088 1.05166   3 
   0 -13  -4 4.13645 1.04117   2 
   0 -13  -4 4.50602 0.47155   6 
   0  13   4 1.66881 1.14959   4 
  -1 -13  -4 85.8094 3.66909   2 
  -1 -13  -4 76.1801 3.67506   3 
  -1 -13  -4 85.2016 2.57313   6 
   1  13   4 77.8122 3.86044   4 
  -2 -13  -4 2.70451 0.48262   6 
  -2 -13  -4 2.87836 0.95684   2 
  -2 -13  -4 3.66063 0.96319   3 
   2  13   4 2.40322 1.10474   4 
   2  13   4 4.19907 1.11409   3 
  -3 -13  -4 26.5138 1.27169   6 
  -3 -13  -4 24.3693 1.93048   2 
  -3 -13  -4 26.3826 1.99657   3 
   3  13   4 21.6476 2.01342   3 
   3  13   4 21.8259 2.07778   4 
  -4 -13  -4 1.25078 0.92064   2 
  -4 -13  -4 0.84690 0.47771   6 
   4  13   4 0.25583 0.87739   3 
   4  13   4 0.73916 1.05657   4 
  -5 -13  -4 112.117 4.35965   2 
  -5 -13  -4 107.873 3.50980   6 
   5  13   4 99.7909 4.36256   3 
   5  13   4 100.669 4.39288   4 
  -6 -13  -4 23.5393 1.95195   2 
  -6 -13  -4 24.2826 1.41361   6 
   6  13   4 19.6640 2.03589   4 
   6  13   4 18.9771 1.84878   3 
  -7 -13  -4 73.6654 2.88564   6 
  -7 -13  -4 80.0052 3.54821   2 
   7  13   4 70.2166 3.59872   3 
  -8 -13  -4 4.91431 0.89508   6 
  -8 -13  -4 3.44609 0.93915   1 
  -8 -13  -4 4.78667 1.16594   2 
   8  13   4 2.27563 1.16112   3 
  -9 -13  -4 83.8314 3.46696   1 
  -9 -13  -4 87.2533 3.88455   2 
  -9 -13  -4 90.6539 3.44651   6 
   9  13   4 81.9209 3.98544   3 
 -10 -13  -4 4.33723 1.02232   6 
 -10 -13  -4 1.63392 1.05112   2 
 -10 -13  -4 3.52108 0.95566   1 
  10  13   4 2.50268 1.18587   3 
 -11 -13  -4 73.6453 3.32209   6 
 -11 -13  -4 75.6297 3.39561   1 
 -11 -13  -4 80.4618 3.69397   2 
  11  13   4 74.1787 3.84994   3 
   0 -14  -4 106.105 4.62572   3 
   0  14   4 104.982 4.79405   4 
  -1 -14  -4 0.81039 0.31130   6 
  -1 -14  -4 -0.4007 0.72817   2 
  -1 -14  -4 0.64871 0.75223   3 
   1  14   4 0.37650 1.11301   4 
   1  14   4 1.06874 0.99054   3 
  -2 -14  -4 45.4881 1.64138   6 
  -2 -14  -4 38.7826 2.58268   3 
  -2 -14  -4 46.3625 2.67433   2 
   2  14   4 40.0181 2.83363   4 
   2  14   4 40.4105 2.73457   3 
  -3 -14  -4 45.5597 1.73936   6 
  -3 -14  -4 42.0253 2.61864   2 
   3  14   4 39.0593 2.71879   4 
   3  14   4 44.1996 2.82808   3 
  -4 -14  -4 23.6702 1.97796   2 
  -4 -14  -4 21.4139 1.25122   6 
   4  14   4 22.4604 2.12159   3 
   4  14   4 16.3126 1.88221   4 
  -5 -14  -4 18.3566 1.23230   6 
  -5 -14  -4 15.0260 1.64283   2 
   5  14   4 16.3368 1.83408   3 
  -6 -14  -4 76.1072 2.79712   6 
  -6 -14  -4 71.0386 3.48138   2 
   6  14   4 67.1527 3.56528   3 
  -7 -14  -4 7.92625 0.93652   6 
  -7 -14  -4 5.50244 1.20841   2 
   7  14   4 6.31040 1.39368   3 
  -8 -14  -4 38.2315 2.51247   2 
  -8 -14  -4 35.1242 1.95056   6 
   8  14   4 36.8767 2.66909   3 
  -9 -14  -4 13.2919 1.59140   2 
  -9 -14  -4 13.0570 1.29829   6 
   9  14   4 10.4345 1.63811   3 
 -10 -14  -4 49.5074 2.62844   1 
 -10 -14  -4 49.0625 2.55103   6 
 -10 -14  -4 55.6189 3.07587   2 
 -11 -14  -4 0.12024 0.77794   1 
  -2 -15  -4 0.26279 0.81771   2 
  -3 -15  -4 58.3185 3.20496   2 
  -3 -15  -4 56.7020 2.03558   6 
  -4 -15  -4 15.3658 1.70661   2 
  -4 -15  -4 17.1799 1.11285   6 
   4  15   4 15.1997 1.86616   3 
  -5 -15  -4 40.6350 2.74816   2 
  -5 -15  -4 48.2501 1.98805   6 
   5  15   4 44.7045 2.99587   3 
  -6 -15  -4 3.49182 1.21559   2 
  -6 -15  -4 2.29021 0.66116   6 
   6  15   4 2.47260 1.20427   3 
   9  12  -5 45.7818 2.96082   3 
   8  12  -5 38.5613 2.57452   2 
   8  12  -5 42.5510 2.78627   3 
  -8 -12   5 40.1821 2.01602   6 
  -8 -12   5 36.6979 2.38392   1 
   7  12  -5 11.8171 1.50565   2 
   7  12  -5 9.59502 1.56243   3 
  -7 -12   5 12.7098 1.44205   1 
  -7 -12   5 9.14673 0.92023   6 
   6  12  -5 4.33477 1.21881   3 
   6  12  -5 3.34642 1.07174   2 
  -6 -12   5 3.80594 0.99092   1 
  -6 -12   5 2.64692 0.60563   6 
   5  12  -5 84.7519 3.83454   2 
  -5 -12   5 82.2759 2.74143   6 
  -5 -12   5 78.8547 3.55930   1 
   4  12  -5 -0.9681 0.74787   2 
  -4 -12   5 0.03730 0.68951   1 
  -4 -12   5 -0.2488 0.30161   6 
   3  12  -5 123.759 4.87566   2 
  -3 -12   5 115.752 4.52186   1 
   2  12  -5 7.18419 1.33930   2 
  -2 -12   5 7.37433 1.14261   1 
   1  12  -5 1.98659 1.00340   2 
  -1 -12   5 1.62520 0.72310   1 
   0  12  -5 56.8799 3.06963   1 
   0 -12   5 58.9395 2.88701   1 
  11  11  -5 0.74591 0.81522   2 
  10  11  -5 28.2722 2.39027   3 
  10  11  -5 23.4011 2.01411   2 
 -10 -11   5 25.9426 1.96186   1 
 -10 -11   5 25.6579 1.72691   6 
   9  11  -5 8.36813 1.38067   2 
   9  11  -5 9.76561 1.56049   3 
  -9 -11   5 6.97609 1.19579   1 
  -9 -11   5 7.35751 1.01892   6 
   8  11  -5 13.1335 1.50293   2 
   8  11  -5 13.9466 1.68974   3 
  -8 -11   5 13.2905 1.46495   1 
  -8 -11   5 13.4760 1.16244   6 
   7  11  -5 10.4429 1.41662   2 
   7  11  -5 11.6784 1.54716   3 
  -7 -11   5 7.88750 0.90463   6 
  -7 -11   5 7.05561 1.18101   1 
   6  11  -5 36.3550 2.33179   2 
   6  11  -5 35.4420 2.44301   3 
  -6 -11   5 35.1205 2.20704   1 
  -6 -11   5 32.5950 1.62807   6 
   5  11  -5 13.8248 1.54301   3 
   5  11  -5 14.1913 1.53012   2 
  -5 -11   5 12.6079 1.37233   1 
  -5 -11   5 13.2078 0.97099   6 
   4  11  -5 70.0638 3.35463   2 
  -4 -11   5 68.6038 2.31156   6 
  -4 -11   5 68.0054 3.11583   1 
   3  11  -5 62.2341 3.12507   2 
  -3 -11   5 56.0822 1.87769   6 
  -3 -11   5 59.3968 2.80404   1 
   2  11  -5 145.228 5.40878   2 
  -2 -11   5 149.274 5.21374   1 
   1  11  -5 0.33448 0.78794   2 
  -1 -11   5 -0.4513 0.55515   1 
   0  11  -5 80.3226 3.65048   1 
   0  11  -5 84.2382 3.70075   2 
   0 -11   5 85.4921 3.54166   1 
  -1  11  -5 3.85852 1.08832   1 
  11  10  -5 24.5393 2.28902   3 
  11  10  -5 26.2921 2.05986   2 
 -11 -10   5 25.4523 1.99411   1 
 -11 -10   5 25.1802 1.79725   6 
  10  10  -5 1.36450 1.15169   3 
  10  10  -5 0.70695 0.91500   2 
 -10 -10   5 0.56041 0.73306   6 
 -10 -10   5 -0.1044 0.75922   1 
   9  10  -5 99.6601 4.31622   3 
   9  10  -5 97.4579 4.06556   2 
  -9 -10   5 96.4523 3.96562   1 
  -9 -10   5 99.0291 3.67614   6 
   8  10  -5 13.4027 1.65359   3 
   8  10  -5 15.7637 1.57024   2 
  -8 -10   5 13.7788 1.45685   1 
  -8 -10   5 13.0958 1.15789   6 
   7  10  -5 59.7130 2.98699   2 
   7  10  -5 59.2011 3.07946   3 
  -7 -10   5 57.6914 2.80449   1 
  -7 -10   5 54.9763 2.36541   6 
   6  10  -5 3.28569 1.10283   3 
   6  10  -5 3.53556 1.02985   2 
  -6 -10   5 2.98206 0.64714   6 
  -6 -10   5 4.13352 0.95212   1 
   5  10  -5 213.840 6.98016   2 
   5  10  -5 220.743 6.94268   3 
  -5 -10   5 208.939 6.73623   1 
  -5 -10   5 204.754 6.06331   6 
   4  10  -5 19.9477 1.77604   3 
   4  10  -5 16.8934 1.58962   2 
  -4 -10   5 20.8061 1.62156   1 
  -4 -10   5 20.0045 1.09590   6 
   3  10  -5 140.854 5.12421   2 
  -3 -10   5 142.640 4.04072   6 
  -3 -10   5 138.717 4.90922   1 
   2  10  -5 18.8188 1.68319   2 
  -2 -10   5 21.5659 1.62161   1 
  -2 -10   5 20.7154 0.88557   6 
   1  10  -5 193.979 6.44453   2 
  -1 -10   5 181.386 6.17738   1 
  -1 -10   5 202.783 6.18016   5 
   0  10  -5 1.89644 0.86256   2 
   0  10  -5 2.46655 0.90552   1 
   0 -10   5 2.39007 0.78733   5 
   0 -10   5 3.65302 0.86721   1 
  -1  10  -5 167.742 5.75368   1 
   1 -10   5 160.049 5.58520   5 
   1 -10   5 170.522 5.68506   1 
  -2  10  -5 -0.7003 0.82027   1 
   2 -10   5 1.12712 0.67948   5 
  -3  10  -5 82.7948 3.65722   1 
   3 -10   5 81.5187 3.62308   5 
  11   9  -5 1.89961 0.85635   2 
  11   9  -5 -0.5151 0.95842   3 
 -11  -9   5 -0.0868 0.68930   6 
 -11  -9   5 0.68352 0.81600   1 
  10   9  -5 25.4083 2.21831   3 
  10   9  -5 24.4413 1.86599   2 
 -10  -9   5 25.0842 1.90011   1 
 -10  -9   5 24.2963 1.71505   6 
   9   9  -5 2.45905 1.05046   3 
   9   9  -5 1.52449 0.89633   2 
  -9  -9   5 2.60963 0.91188   1 
  -9  -9   5 3.23721 0.79871   6 
   8   9  -5 143.378 5.12814   2 
   8   9  -5 141.257 5.28190   3 
  -8  -9   5 139.805 4.99378   1 
  -8  -9   5 146.075 4.73300   6 
   7   9  -5 10.3588 1.31415   2 
   7   9  -5 8.80215 1.36507   3 
  -7  -9   5 9.46864 1.00318   6 
  -7  -9   5 10.5458 1.23575   1 
   6   9  -5 78.8630 3.36143   2 
   6   9  -5 78.2621 3.33120   3 
  -6  -9   5 77.6431 3.21554   1 
  -6  -9   5 67.4413 2.68676   6 
   5   9  -5 46.1709 2.45018   2 
   5   9  -5 47.9066 2.50293   3 
  -5  -9   5 42.5309 2.26332   1 
  -5  -9   5 43.0491 1.83756   6 
   4   9  -5 169.700 5.67650   2 
   4   9  -5 165.343 5.53855   3 
  -4  -9   5 163.131 4.81363   6 
  -4  -9   5 167.663 5.46574   1 
   3   9  -5 36.9712 2.19762   2 
   3   9  -5 37.3115 2.17579   3 
  -3  -9   5 39.7631 2.11353   1 
  -3  -9   5 37.6974 1.49618   6 
  -3  -9   5 40.9854 1.93588   5 
   2   9  -5 91.9039 3.72276   2 
  -2  -9   5 96.8347 3.42269   5 
  -2  -9   5 92.2320 2.75390   6 
  -2  -9   5 93.3734 3.55932   1 
   1   9  -5 7.07137 1.14492   2 
  -1  -9   5 10.4184 1.13229   1 
  -1  -9   5 7.74101 0.50566   6 
  -1  -9   5 9.10161 1.00320   5 
   0   9  -5 181.600 5.88921   2 
   0  -9   5 173.326 5.73663   1 
   0  -9   5 175.151 5.67979   5 
  -1   9  -5 -0.1226 0.55227   2 
  -1   9  -5 0.46320 0.73433   1 
   1  -9   5 0.64439 0.59571   1 
   1  -9   5 0.50074 0.52943   5 
  -2   9  -5 21.6151 1.78717   1 
   2  -9   5 25.1907 1.77405   5 
  -3   9  -5 13.6188 1.43274   1 
   3  -9   5 12.8937 1.32875   5 
  -4   9  -5 61.1569 2.99043   1 
  -4   9  -5 55.3029 2.91349   5 
   4  -9   5 58.1067 2.95062   5 
  12   8  -5 7.01474 1.49423   3 
 -12  -8   5 7.11189 1.22477   1 
  11   8  -5 55.9419 3.20511   3 
 -11  -8   5 56.4325 2.84959   1 
  10   8  -5 8.88896 1.21527   2 
  10   8  -5 8.94091 1.46402   3 
 -10  -8   5 6.47478 1.05118   6 
 -10  -8   5 7.35235 1.18922   1 
   9   8  -5 86.6918 3.87293   3 
   9   8  -5 91.3218 3.66228   2 
  -9  -8   5 86.1805 3.56793   1 
  -9  -8   5 92.3035 3.45058   6 
   8   8  -5 4.02015 1.12446   3 
   8   8  -5 4.83309 1.05796   2 
  -8  -8   5 3.64157 0.90060   1 
  -8  -8   5 3.24904 0.78693   6 
   7   8  -5 99.9425 4.02342   3 
   7   8  -5 106.085 3.95594   2 
  -7  -8   5 100.566 3.51574   6 
  -7  -8   5 98.1665 3.76549   1 
   6   8  -5 101.036 3.80454   3 
   6   8  -5 91.0016 3.65945   2 
  -6  -8   5 92.4460 3.51715   1 
  -6  -8   5 88.9578 3.19666   6 
   5   8  -5 154.934 5.03230   3 
   5   8  -5 139.182 4.96158   2 
  -5  -8   5 140.959 4.40497   6 
  -5  -8   5 151.258 4.56085   5 
  -5  -8   5 140.976 4.82119   1 
   4   8  -5 37.0243 2.04088   3 
   4   8  -5 34.5980 2.01313   2 
  -4  -8   5 36.8306 1.73087   5 
  -4  -8   5 30.4357 1.85570   1 
  -4  -8   5 32.9087 1.48012   6 
   3   8  -5 81.7316 3.16035   3 
   3   8  -5 79.4559 3.26125   2 
  -3  -8   5 76.2190 3.06546   1 
  -3  -8   5 78.4967 2.54294   6 
  -3  -8   5 81.2636 2.92814   5 
   2   8  -5 132.282 4.64640   2 
   2   8  -5 129.318 4.37358   3 
  -2  -8   5 130.096 4.24316   5 
  -2  -8   5 129.289 4.40458   1 
  -2  -8   5 130.519 3.72128   6 
   1   8  -5 123.909 4.38147   2 
  -1  -8   5 122.459 4.12567   5 
  -1  -8   5 122.677 4.22348   1 
  -1  -8   5 123.653 3.43879   6 
   0   8  -5 7.12023 0.98209   2 
   0  -8   5 8.66831 0.96277   5 
   0  -8   5 8.03182 0.98374   1 
   0  -8   5 8.87734 0.48524   6 
  -1   8  -5 70.3637 3.00175   1 
  -1   8  -5 69.2212 2.92869   2 
   1  -8   5 68.5582 2.88681   5 
   1  -8   5 68.2471 2.85944   1 
  -2   8  -5 -0.3623 0.64534   1 
   2  -8   5 0.19305 0.56872   5 
  -3   8  -5 156.026 5.29899   1 
   3  -8   5 148.790 5.26184   5 
  -4   8  -5 20.2872 1.68491   1 
   4  -8   5 17.1768 1.77628   4 
   4  -8   5 18.2163 1.57104   5 
  -5   8  -5 113.202 4.43221   1 
   5  -8   5 113.153 4.54070   5 
   5  -8   5 119.732 4.98949   4 
   6  -8   5 14.9828 1.87024   4 
 -13  -7   5 3.06157 1.07634   1 
  12   7  -5 51.8277 3.19322   3 
 -12  -7   5 54.1234 2.81669   1 
  11   7  -5 0.86895 1.08766   3 
 -11  -7   5 -0.1543 0.76270   1 
  10   7  -5 123.080 4.44329   2 
  10   7  -5 125.217 4.91132   3 
 -10  -7   5 123.742 4.49584   1 
   9   7  -5 0.21740 0.74321   2 
   9   7  -5 1.20255 0.97046   3 
  -9  -7   5 -0.3163 0.61687   6 
  -9  -7   5 -1.0074 0.64928   1 
   8   7  -5 273.997 8.14843   2 
   8   7  -5 265.989 8.33410   3 
  -8  -7   5 276.133 7.93567   6 
  -8  -7   5 270.129 7.67876   5 
  -8  -7   5 267.887 8.07799   1 
   7   7  -5 0.32723 0.67646   2 
   7   7  -5 -0.4899 0.75196   3 
  -7  -7   5 -0.0052 0.60021   1 
  -7  -7   5 0.65608 0.45485   5 
  -7  -7   5 -0.1099 0.52328   6 
   6   7  -5 78.6444 3.26918   3 
   6   7  -5 83.6149 3.26712   2 
  -6  -7   5 79.0635 2.88370   6 
  -6  -7   5 83.6013 2.87785   5 
  -6  -7   5 80.6752 3.12528   1 
   5   7  -5 14.2359 1.35171   3 
   5   7  -5 12.8759 1.18680   2 
  -5  -7   5 11.6618 1.03245   5 
  -5  -7   5 12.0128 1.12335   1 
  -5  -7   5 13.0003 0.98838   6 
   4   7  -5 142.769 4.58034   3 
   4   7  -5 134.088 4.61541   2 
  -4  -7   5 139.979 4.27235   5 
  -4  -7   5 134.598 4.07947   6 
  -4  -7   5 130.811 4.42701   1 
   3   7  -5 9.69847 1.06882   2 
   3   7  -5 9.73720 0.98634   3 
  -3  -7   5 9.79914 0.75551   6 
  -3  -7   5 11.3086 1.02764   1 
  -3  -7   5 10.9697 0.91204   5 
   2   7  -5 197.154 6.09658   2 
   2   7  -5 188.781 5.80948   3 
  -2  -7   5 201.360 5.96405   1 
  -2  -7   5 198.305 5.80378   5 
  -2  -7   5 188.275 5.31813   6 
   1   7  -5 60.5489 2.39212   3 
   1   7  -5 63.7375 2.67176   2 
  -1  -7   5 61.3565 1.92549   6 
  -1  -7   5 62.1708 2.46247   5 
  -1  -7   5 58.3052 2.48457   1 
   0   7  -5 267.944 7.90396   2 
   0  -7   5 266.199 7.77676   5 
   0  -7   5 281.031 7.09274   6 
   0  -7   5 265.202 7.82080   1 
   0  -7   5 262.802 7.03398   6 
  -1   7  -5 0.17424 0.62874   1 
  -1   7  -5 1.26994 0.62425   2 
   1  -7   5 0.43134 0.50190   5 
   1  -7   5 0.57184 0.22214   6 
   1  -7   5 0.82698 0.58817   1 
   1  -7   5 0.64843 0.57586   4 
   1  -7   5 0.70716 0.23531   6 
  -2   7  -5 81.6348 3.28041   1 
  -2   7  -5 84.3923 3.14087   2 
   2  -7   5 82.6482 3.24444   5 
   2  -7   5 78.8489 2.32450   6 
   2  -7   5 84.3273 3.40194   4 
  -3   7  -5 2.76023 0.82649   1 
   3  -7   5 1.30828 0.83530   4 
   3  -7   5 1.71769 0.71724   5 
   3  -7   5 2.54130 0.32716   6 
  -4   7  -5 276.465 8.17521   1 
   4  -7   5 254.319 7.05425   6 
   4  -7   5 267.005 8.20900   5 
   4  -7   5 271.616 8.55889   4 
  -5   7  -5 0.53083 0.68888   1 
   5  -7   5 0.88492 0.71262   5 
   5  -7   5 0.51103 0.92554   4 
   5  -7   5 0.24772 0.31430   6 
  -6   7  -5 127.761 4.64796   1 
  -6   7  -5 120.229 4.70393   5 
   6  -7   5 125.504 4.79649   5 
   6  -7   5 112.469 3.57003   6 
   6  -7   5 125.713 5.22428   4 
  -7   7  -5 7.06033 1.11162   1 
   7  -7   5 7.12612 1.53272   4 
 -13  -6   5 47.3118 2.66337   1 
  12   6  -5 14.7969 1.89613   3 
 -12  -6   5 16.0686 1.57980   1 
  11   6  -5 54.9139 3.18952   3 
 -11  -6   5 63.9704 2.91498   1 
  10   6  -5 13.4674 1.64284   3 
 -10  -6   5 18.1463 1.55412   1 
   9   6  -5 56.3810 2.54985   2 
   9   6  -5 57.9738 2.94984   3 
  -9  -6   5 57.5206 2.55210   6 
  -9  -6   5 56.4765 2.39142   5 
  -9  -6   5 59.2567 2.64580   1 
   8   6  -5 0.16440 0.62594   2 
   8   6  -5 0.73149 0.82978   3 
  -8  -6   5 0.40392 0.54106   6 
  -8  -6   5 0.58055 0.65889   1 
  -8  -6   5 -0.2286 0.45486   5 
   7   6  -5 257.877 7.64539   3 
   7   6  -5 247.989 7.41542   2 
  -7  -6   5 245.903 7.22446   6 
  -7  -6   5 243.657 7.35349   1 
   6   6  -5 42.3814 2.13867   2 
   6   6  -5 43.3363 2.22784   3 
  -6  -6   5 44.4067 1.91967   6 
  -6  -6   5 45.8223 1.89910   5 
  -6  -6   5 44.0784 2.07324   1 
   5   6  -5 53.7437 2.43401   2 
   5   6  -5 55.3856 2.47395   3 
  -5  -6   5 60.2458 2.41461   1 
  -5  -6   5 53.6491 2.12041   6 
  -5  -6   5 60.1357 2.21196   5 
   4   6  -5 43.7964 2.14245   2 
   4   6  -5 46.5443 2.11578   3 
  -4  -6   5 48.2296 1.91988   5 
  -4  -6   5 45.5476 1.77402   6 
  -4  -6   5 42.3233 1.97403   1 
   3   6  -5 83.8012 3.14276   2 
   3   6  -5 83.4270 3.01744   3 
  -3  -6   5 82.5171 2.63897   6 
  -3  -6   5 85.2565 2.89941   5 
  -3  -6   5 84.4160 3.01152   1 
   2   6  -5 7.05522 0.76382   3 
   2   6  -5 6.24532 0.84487   2 
  -2  -6   5 7.95487 0.85457   1 
  -2  -6   5 7.26597 0.57459   6 
  -2  -6   5 7.79215 0.78136   5 
   1   6  -5 643.699 17.4626   2 
   1   6  -5 657.403 17.1872   3 
  -1  -6   5 681.528 16.8274   6 
  -1  -6   5 638.693 17.3281   1 
  -1  -6   5 654.340 17.2838   5 
  -1  -6   5 658.481 16.7742   6 
   0   6  -5 4.11320 0.73307   2 
   0  -6   5 3.44460 0.65322   5 
   0  -6   5 3.41273 0.37772   6 
   0  -6   5 3.85819 0.65762   4 
   0  -6   5 3.52774 0.37991   6 
   0  -6   5 4.11383 0.72134   1 
  -1   6  -5 199.377 6.06317   2 
   1  -6   5 194.097 6.04558   5 
   1  -6   5 204.967 6.13159   4 
   1  -6   5 200.337 6.05175   1 
   1  -6   5 193.478 5.33539   6 
   1  -6   5 211.750 5.39830   6 
  -2   6  -5 240.497 7.17572   1 
  -2   6  -5 246.809 6.99731   2 
   2  -6   5 236.191 7.10447   5 
   2  -6   5 236.619 7.08429   1 
   2  -6   5 240.157 7.25931   4 
   2  -6   5 232.572 6.29895   6 
  -3   6  -5 148.600 4.90365   1 
   3  -6   5 144.590 4.02531   6 
   3  -6   5 140.762 4.84304   5 
   3  -6   5 149.152 5.14050   4 
  -4   6  -5 38.6422 2.14558   1 
   4  -6   5 43.3792 2.56397   4 
   4  -6   5 39.8935 2.17130   5 
   4  -6   5 40.8318 1.48751   6 
  -5   6  -5 193.302 6.00953   1 
   5  -6   5 178.824 5.99625   5 
   5  -6   5 183.659 6.45886   4 
   5  -6   5 171.687 5.08655   6 
  -6   6  -5 31.8791 2.02113   1 
  -6   6  -5 32.4024 2.09547   5 
   6  -6   5 31.3523 2.11461   5 
   6  -6   5 30.6493 2.40649   4 
   6  -6   5 30.5450 1.40934   6 
  -7   6  -5 59.5093 2.81203   1 
  -7   6  -5 52.1481 2.84144   5 
   7  -6   5 55.1996 2.91792   5 
   7  -6   5 50.4900 2.05507   6 
   7  -6   5 51.6352 3.23614   4 
  -8   6  -5 14.1908 1.44538   1 
 -13  -5   5 2.32086 1.04635   1 
  12   5  -5 74.5483 3.86845   3 
 -12  -5   5 77.7351 3.41838   1 
  11   5  -5 2.77998 1.25571   3 
 -11  -5   5 3.81470 1.03341   1 
 -11  -5   5 4.20051 0.89751   5 
  10   5  -5 81.7540 3.76278   3 
 -10  -5   5 86.0204 3.25632   5 
 -10  -5   5 91.3089 3.49374   1 
   9   5  -5 38.9052 2.42714   3 
   9   5  -5 43.2135 2.08042   2 
  -9  -5   5 41.3842 2.01130   5 
  -9  -5   5 42.3322 2.14669   1 
  -9  -5   5 45.4693 2.18715   6 
   8   5  -5 8.14125 0.93895   2 
   8   5  -5 6.62295 1.11306   3 
  -8  -5   5 6.08991 0.80713   5 
  -8  -5   5 6.76573 0.95372   1 
  -8  -5   5 8.43386 0.94154   6 
   7   5  -5 122.734 4.11515   2 
   7   5  -5 126.324 4.38584   3 
  -7  -5   5 122.638 4.03578   6 
  -7  -5   5 122.330 4.10633   1 
  -7  -5   5 120.123 3.90875   5 
   6   5  -5 0.73582 0.65575   3 
   6   5  -5 0.18256 0.52096   2 
  -6  -5   5 1.01395 0.46379   6 
  -6  -5   5 1.13986 0.57340   1 
  -6  -5   5 0.83125 0.46041   5 
   5   5  -5 15.8675 1.34498   3 
   5   5  -5 14.4145 1.22377   2 
  -5  -5   5 16.4893 1.11768   5 
  -5  -5   5 16.8472 1.05811   6 
  -5  -5   5 15.6406 1.16638   1 
   4   5  -5 188.469 5.89628   2 
   4   5  -5 198.821 5.87511   3 
  -4  -5   5 195.463 5.57268   6 
  -4  -5   5 209.736 5.72007   5 
  -4  -5   5 190.146 5.77313   1 
   3   5  -5 4.61257 0.66840   3 
   3   5  -5 3.23511 0.65582   2 
  -3  -5   5 3.13857 0.55538   5 
  -3  -5   5 3.89436 0.63212   1 
  -3  -5   5 3.92369 0.47498   6 
   2   5  -5 269.269 7.76572   2 
   2   5  -5 269.106 7.53919   3 
  -2  -5   5 264.798 7.24362   6 
  -2  -5   5 282.236 7.60082   5 
  -2  -5   5 279.960 7.32022   6 
  -2  -5   5 264.296 7.61937   1 
   1   5  -5 74.7279 2.77268   2 
   1   5  -5 71.4803 2.50488   3 
  -1  -5   5 72.6631 2.66307   1 
  -1  -5   5 70.2781 2.24523   6 
  -1  -5   5 77.1119 2.66543   5 
  -1  -5   5 78.4253 2.43742   4 
  -1  -5   5 71.8541 2.30134   6 
   0   5  -5 733.336 18.9251   2 
   0   5  -5 706.747 18.5586   3 
   0  -5   5 683.705 18.7966   1 
   0  -5   5 694.373 18.2941   6 
   0  -5   5 744.700 18.7331   4 
   0  -5   5 708.590 18.8035   5 
   0  -5   5 758.082 18.3551   6 
  -1   5  -5 50.0240 2.09735   2 
   1  -5   5 48.0767 2.09206   1 
   1  -5   5 50.6242 1.64106   6 
   1  -5   5 46.9112 1.57378   6 
   1  -5   5 47.6637 2.08814   5 
   1  -5   5 51.2623 2.18232   4 
  -2   5  -5 314.985 9.04498   1 
  -2   5  -5 320.769 8.85673   2 
   2  -5   5 305.712 8.95271   1 
   2  -5   5 324.585 9.16764   4 
   2  -5   5 309.611 8.32064   6 
   2  -5   5 338.015 8.37922   6 
   2  -5   5 316.886 9.00870   5 
  -3   5  -5 7.48749 0.95476   1 
  -3   5  -5 7.49555 0.75294   2 
   3  -5   5 7.40741 0.91454   5 
   3  -5   5 8.43037 0.60881   6 
   3  -5   5 8.82211 1.08212   4 
  -4   5  -5 115.188 4.04440   1 
   4  -5   5 113.803 4.35268   4 
   4  -5   5 116.458 4.08982   5 
   4  -5   5 111.982 3.35040   6 
  -5   5  -5 97.2546 3.64057   1 
   5  -5   5 95.5812 3.00108   6 
   5  -5   5 97.5768 3.73970   5 
   5  -5   5 95.2982 4.07350   4 
  -6   5  -5 69.9530 3.02009   1 
   6  -5   5 68.2968 3.51902   4 
   6  -5   5 67.5500 2.40176   6 
   6  -5   5 65.2780 3.02940   5 
  -7   5  -5 95.8913 3.94090   5 
  -7   5  -5 100.789 3.85275   1 
   7  -5   5 98.7662 4.53802   4 
   7  -5   5 94.7455 3.27696   6 
   7  -5   5 99.4557 4.03481   5 
  -8   5  -5 14.7832 1.52533   5 
  -8   5  -5 17.9028 1.59512   1 
   8  -5   5 16.3380 1.96604   4 
   8  -5   5 14.5523 1.55292   5 
   8  -5   5 15.2039 1.18128   6 
  -9   5  -5 4.44362 1.01531   1 
  12   4  -5 -1.9233 1.02081   3 
 -12  -4   5 -0.1615 0.75936   1 
 -12  -4   5 0.32098 0.69994   5 
  11   4  -5 57.6886 3.14209   3 
 -11  -4   5 52.9426 2.60135   1 
 -11  -4   5 52.2341 2.54483   5 
  10   4  -5 3.24084 1.12844   3 
 -10  -4   5 4.14199 0.82488   5 
 -10  -4   5 3.95076 0.92757   1 
   9   4  -5 85.6213 3.63589   3 
  -9  -4   5 88.5429 3.33093   1 
  -9  -4   5 85.6764 3.20273   5 
   8   4  -5 12.5443 1.37001   3 
  -8  -4   5 14.9660 1.30011   1 
  -8  -4   5 14.9320 1.23821   5 
  -8  -4   5 13.5413 1.14213   6 
   7   4  -5 164.705 5.40612   3 
   7   4  -5 165.289 5.09344   2 
  -7  -4   5 165.867 5.03479   5 
  -7  -4   5 161.488 5.11882   1 
  -7  -4   5 172.540 5.15283   6 
   6   4  -5 45.7375 2.21260   3 
   6   4  -5 47.3291 2.04828   2 
  -6  -4   5 48.9130 2.00373   5 
  -6  -4   5 47.6441 1.97445   6 
  -6  -4   5 45.9513 2.03547   1 
   5   4  -5 292.121 8.37109   3 
   5   4  -5 296.693 8.32077   2 
  -5  -4   5 293.565 8.13219   5 
  -5  -4   5 295.413 8.22959   1 
  -5  -4   5 298.165 8.13786   6 
   4   4  -5 14.5843 1.13855   2 
   4   4  -5 13.3634 1.07796   3 
  -4  -4   5 14.4204 1.05333   1 
  -4  -4   5 12.7656 0.98499   5 
  -4  -4   5 13.0338 0.88241   6 
   3   4  -5 149.612 4.65195   2 
   3   4  -5 154.389 4.54772   3 
  -3  -4   5 147.282 4.30885   6 
  -3  -4   5 159.514 4.51518   5 
  -3  -4   5 138.557 4.46728   1 
  -3  -4   5 155.669 4.38666   6 
   2   4  -5 0.93270 0.49542   2 
   2   4  -5 -0.0345 0.33111   3 
  -2  -4   5 0.42782 0.26672   6 
  -2  -4   5 0.69524 0.37792   1 
  -2  -4   5 0.56134 0.37015   5 
  -2  -4   5 -0.3266 0.22604   6 
   1   4  -5 604.824 15.9701   3 
   1   4  -5 620.988 16.2806   2 
  -1  -4   5 593.760 15.8118   6 
  -1  -4   5 605.093 16.1571   1 
  -1  -4   5 620.182 16.1641   5 
  -1  -4   5 630.239 15.8672   6 
  -1  -4   5 644.675 15.9014   4 
   0   4  -5 98.5863 3.24784   2 
   0   4  -5 91.6296 2.91010   3 
   0  -4   5 93.3917 3.18158   5 
   0  -4   5 95.9842 2.81168   6 
   0  -4   5 97.0729 3.20486   1 
   0  -4   5 102.222 3.12115   4 
   0  -4   5 100.129 2.86300   6 
  -1   4  -5 1457.66 36.9533   2 
  -1   4  -5 1430.22 36.6159   3 
   1  -4   5 1437.79 36.9781   1 
   1  -4   5 1460.57 37.0027   5 
   1  -4   5 1453.93 36.5318   6 
   1  -4   5 1410.22 36.5098   6 
   1  -4   5 1490.97 37.0305   4 
  -2   4  -5 20.9728 1.35202   1 
  -2   4  -5 21.2561 1.22412   2 
   2  -4   5 22.0054 1.48533   4 
   2  -4   5 18.5749 0.86943   6 
   2  -4   5 20.4995 0.94118   6 
   2  -4   5 18.4401 1.29148   1 
   2  -4   5 18.5912 1.29126   5 
  -3   4  -5 495.514 13.3923   1 
  -3   4  -5 498.390 13.1039   2 
   3  -4   5 492.375 13.3850   5 
   3  -4   5 489.339 12.7649   6 
   3  -4   5 493.598 13.6006   4 
  -4   4  -5 17.7345 1.35512   1 
   4  -4   5 17.2248 0.91395   6 
   4  -4   5 19.0287 1.65373   4 
   4  -4   5 16.8057 1.33975   5 
  -5   4  -5 55.9764 2.51307   1 
   5  -4   5 56.6193 2.02149   6 
   5  -4   5 57.9656 2.93259   4 
   5  -4   5 57.6677 2.57393   5 
  -6   4  -5 15.0761 1.30429   1 
   6  -4   5 13.2266 1.56354   4 
   6  -4   5 12.9495 1.29800   5 
   6  -4   5 15.5455 1.03673   6 
  -7   4  -5 133.186 4.57905   1 
  -7   4  -5 127.234 4.66640   5 
   7  -4   5 132.318 4.73206   5 
   7  -4   5 125.460 5.18511   4 
   7  -4   5 123.789 4.05402   6 
  -8   4  -5 1.29644 0.83192   5 
  -8   4  -5 1.62713 0.80156   1 
   8  -4   5 1.57028 0.60212   6 
   8  -4   5 0.90723 0.97386   4 
   8  -4   5 0.54869 0.81213   5 
  -9   4  -5 57.3668 2.74962   1 
  -9   4  -5 52.8890 2.88865   5 
   9  -4   5 50.7455 3.39274   4 
   9  -4   5 54.8213 2.40393   6 
 -13  -3   5 -0.1104 0.76541   5 
  12   3  -5 40.2173 2.80161   3 
 -12  -3   5 42.7780 2.38884   5 
  11   3  -5 7.42168 1.43513   3 
 -11  -3   5 9.66708 1.20961   1 
 -11  -3   5 9.32323 1.18784   5 
  10   3  -5 48.7788 2.80770   3 
 -10  -3   5 49.2463 2.38202   1 
 -10  -3   5 50.4449 2.41092   5 
   9   3  -5 9.62138 1.32214   3 
  -9  -3   5 11.1255 1.08544   5 
  -9  -3   5 10.0253 1.08981   1 
   8   3  -5 232.038 6.82392   2 
   8   3  -5 241.245 7.41854   3 
  -8  -3   5 248.745 7.10090   6 
  -8  -3   5 234.747 6.99418   5 
  -8  -3   5 239.912 7.01991   1 
   7   3  -5 1.26607 0.52616   2 
   7   3  -5 1.52374 0.75974   3 
  -7  -3   5 1.11179 0.57402   1 
  -7  -3   5 1.82894 0.58041   5 
  -7  -3   5 0.61392 0.46002   6 
   6   3  -5 245.275 7.11736   2 
   6   3  -5 264.531 7.46784   3 
  -6  -3   5 256.250 7.16917   6 
  -6  -3   5 236.573 7.10038   1 
  -6  -3   5 256.961 7.14519   5 
   5   3  -5 49.8856 2.01674   2 
   5   3  -5 48.5131 2.13778   3 
  -5  -3   5 49.9243 1.94224   6 
  -5  -3   5 49.0160 1.98227   5 
  -5  -3   5 50.1276 1.99374   1 
   4   3  -5 810.276 21.1500   6 
   4   3  -5 833.928 21.3426   3 
   4   3  -5 788.947 21.2768   2 
  -4  -3   5 810.453 21.1318   6 
  -4  -3   5 831.802 21.2172   1 
  -4  -3   5 852.846 21.2297   5 
   3   3  -5 37.0518 1.67446   2 
   3   3  -5 38.2509 1.48890   6 
   3   3  -5 38.3095 1.61194   3 
  -3  -3   5 37.5598 1.46859   6 
  -3  -3   5 40.8328 1.64308   5 
  -3  -3   5 40.0271 1.60340   1 
   2   3  -5 197.860 5.70636   2 
   2   3  -5 197.039 5.52722   3 
  -2  -3   5 203.740 5.47933   6 
  -2  -3   5 203.395 5.61753   5 
  -2  -3   5 192.323 5.40161   6 
  -2  -3   5 193.236 5.57703   1 
   1   3  -5 36.0153 1.56348   2 
   1   3  -5 34.4763 1.32650   3 
  -1  -3   5 33.4870 1.46343   1 
  -1  -3   5 31.3004 1.24523   6 
  -1  -3   5 34.7551 1.50381   5 
  -1  -3   5 36.9448 1.33464   6 
   0   3  -5 464.518 12.1705   3 
   0   3  -5 461.235 12.4919   2 
   0  -3   5 509.867 12.4093   4 
   0  -3   5 487.995 12.2177   6 
   0  -3   5 457.110 12.1574   6 
   0  -3   5 469.555 12.4979   5 
   0  -3   5 452.497 12.4501   1 
  -1   3  -5 289.243 7.87993   3 
  -1   3  -5 305.470 8.27786   2 
   1  -3   5 312.930 8.35223   4 
   1  -3   5 301.858 8.33326   5 
   1  -3   5 295.183 7.93707   6 
   1  -3   5 306.262 7.97475   6 
   1  -3   5 310.287 8.32517   1 
  -2   3  -5 390.872 11.1923   1 
  -2   3  -5 421.073 11.0714   2 
   2  -3   5 430.815 11.3792   4 
   2  -3   5 411.145 10.7878   6 
   2  -3   5 417.729 11.2040   1 
   2  -3   5 419.374 10.7674   6 
   2  -3   5 418.388 11.2097   5 
   2  -3   5 411.607 10.7514   6 
  -3   3  -5 6.96733 0.64771   2 
  -3   3  -5 5.98255 0.77209   1 
   3  -3   5 6.22265 0.77715   5 
   3  -3   5 7.13866 0.93500   4 
   3  -3   5 6.42107 0.52296   6 
  -4   3  -5 159.785 4.62177   2 
  -4   3  -5 157.272 4.96374   1 
   4  -3   5 161.701 4.99536   5 
   4  -3   5 154.163 5.27468   4 
   4  -3   5 159.585 4.49043   6 
  -5   3  -5 71.3079 2.79034   1 
   5  -3   5 69.8120 2.34942   6 
   5  -3   5 68.0220 3.14924   4 
   5  -3   5 71.9000 2.83205   5 
  -6   3  -5 123.102 4.30003   1 
   6  -3   5 128.414 4.42186   5 
   6  -3   5 125.479 4.87257   4 
   6  -3   5 128.167 3.90098   6 
  -7   3  -5 -0.6080 0.54446   1 
   7  -3   5 -0.3306 0.42241   6 
   7  -3   5 -0.4110 0.90006   4 
   7  -3   5 -0.9167 0.58720   5 
  -8   3  -5 97.0659 3.71491   1 
  -8   3  -5 96.4627 3.86707   5 
   8  -3   5 95.1025 3.38722   6 
   8  -3   5 98.3315 3.90806   5 
   8  -3   5 91.5836 4.39438   4 
  -9   3  -5 -0.3731 0.62925   1 
  -9   3  -5 -0.1839 0.70499   5 
   9  -3   5 0.83129 1.06198   4 
   9  -3   5 0.80061 0.56859   6 
 -10   3  -5 48.1217 2.61356   1 
 -13  -2   5 27.2059 2.08393   5 
  12   2  -5 4.68158 1.33257   3 
 -12  -2   5 4.47327 1.08732   5 
  11   2  -5 0.75960 0.99648   3 
 -11  -2   5 0.94008 0.76380   5 
  10   2  -5 91.0257 3.94503   3 
 -10  -2   5 94.7820 3.47127   1 
 -10  -2   5 84.3576 3.46367   5 
   9   2  -5 109.801 4.34304   3 
  -9  -2   5 111.514 4.00394   5 
  -9  -2   5 120.740 3.96802   1 
   8   2  -5 0.97379 0.52447   2 
   8   2  -5 0.75752 0.78941   3 
  -8  -2   5 0.40066 0.60551   5 
  -8  -2   5 1.14014 0.65994   1 
   7   2  -5 287.111 8.05081   4 
   7   2  -5 287.861 8.22197   6 
   7   2  -5 284.775 7.94029   2 
   7   2  -5 276.707 8.39805   3 
  -7  -2   5 300.255 8.18111   6 
  -7  -2   5 289.565 8.06631   1 
  -7  -2   5 284.928 8.15515   5 
   6   2  -5 103.873 3.39367   4 
   6   2  -5 109.583 3.50330   2 
   6   2  -5 108.831 3.62743   6 
   6   2  -5 111.481 3.84445   3 
  -6  -2   5 109.818 3.54024   1 
  -6  -2   5 114.141 3.64226   5 
  -6  -2   5 117.654 3.63505   6 
   5   2  -5 242.309 7.12541   6 
   5   2  -5 250.042 7.09558   2 
   5   2  -5 257.083 7.33803   3 
  -5  -2   5 254.896 7.07407   1 
  -5  -2   5 270.804 7.19817   5 
  -5  -2   5 259.214 7.11998   6 
  -5  -2   5 253.377 6.85552   4 
   4   2  -5 248.926 7.04373   2 
   4   2  -5 247.202 7.13437   3 
   4   2  -5 244.605 6.97957   6 
  -4  -2   5 271.031 6.67611   4 
  -4  -2   5 259.762 6.98046   1 
  -4  -2   5 252.994 7.03683   5 
  -4  -2   5 249.331 6.96419   6 
   3   2  -5 299.942 7.97163   6 
   3   2  -5 284.989 8.03555   3 
   3   2  -5 296.893 8.08701   2 
  -3  -2   5 300.901 7.98344   1 
  -3  -2   5 295.407 7.92033   6 
  -3  -2   5 298.201 8.04187   5 
   2   2  -5 40.2846 1.49238   6 
   2   2  -5 38.4214 1.50378   3 
   2   2  -5 41.7932 1.67323   2 
  -2  -2   5 41.8264 1.63800   5 
  -2  -2   5 42.1586 1.57485   1 
  -2  -2   5 41.6314 1.48107   6 
   1   2  -5 626.043 16.3892   3 
   1   2  -5 642.730 16.6429   2 
  -1  -2   5 654.249 16.6197   5 
  -1  -2   5 604.152 16.5112   1 
  -1  -2   5 671.310 16.3967   4 
  -1  -2   5 653.440 16.4455   6 
  -1  -2   5 628.501 16.3930   6 
   0   2  -5 80.6128 2.28401   3 
   0   2  -5 81.4863 2.62851   2 
   0  -2   5 75.4618 2.36905   6 
   0  -2   5 82.1860 2.42561   6 
   0  -2   5 74.3928 2.54371   1 
   0  -2   5 79.6623 2.62950   5 
   0  -2   5 83.5977 2.51756   4 
  -1   2  -5 147.694 3.92549   3 
  -1   2  -5 146.388 4.41607   1 
  -1   2  -5 154.775 4.36768   2 
   1  -2   5 148.275 4.38827   5 
   1  -2   5 156.379 4.42824   4 
   1  -2   5 143.901 4.12191   6 
   1  -2   5 147.732 4.11364   6 
   1  -2   5 147.243 4.35997   1 
  -2   2  -5 243.569 6.66617   2 
  -2   2  -5 239.319 6.80769   1 
   2  -2   5 245.111 6.79178   5 
   2  -2   5 252.083 6.94786   4 
   2  -2   5 236.981 6.45285   6 
   2  -2   5 235.345 6.46954   6 
  -3   2  -5 215.482 5.95851   2 
  -3   2  -5 208.789 6.17301   1 
   3  -2   5 217.984 6.41147   4 
   3  -2   5 210.251 5.79296   6 
   3  -2   5 215.037 5.84302   6 
   3  -2   5 216.258 6.18334   5 
  -4   2  -5 109.159 3.57929   1 
  -4   2  -5 107.659 3.25394   2 
   4  -2   5 106.093 3.84402   4 
   4  -2   5 104.301 3.54574   5 
   4  -2   5 105.073 3.17246   6 
  -5   2  -5 21.8378 1.42949   1 
   5  -2   5 23.9009 1.77031   4 
   5  -2   5 22.6185 1.44361   5 
   5  -2   5 25.1656 1.18078   6 
  -6   2  -5 11.5252 1.05538   1 
   6  -2   5 13.1742 1.44528   4 
   6  -2   5 12.1507 0.93274   6 
   6  -2   5 10.8371 1.08335   5 
  -7   2  -5 282.715 8.24486   1 
   7  -2   5 268.536 8.92193   4 
   7  -2   5 284.028 8.36221   5 
   7  -2   5 287.336 7.91370   6 
  -8   2  -5 3.13448 0.85374   1 
  -8   2  -5 3.18140 0.87562   5 
   8  -2   5 4.59987 1.23612   4 
   8  -2   5 3.81399 0.72146   6 
   8  -2   5 3.08335 0.91397   5 
  -9   2  -5 56.5156 2.67398   1 
  -9   2  -5 57.8599 2.85424   5 
   9  -2   5 53.3364 3.36651   4 
   9  -2   5 57.0421 2.52031   6 
   9  -2   5 63.6613 2.94508   5 
 -10   2  -5 12.7097 1.41586   5 
 -10   2  -5 13.3738 1.37657   1 
  10  -2   5 9.98180 1.78129   4 
  10  -2   5 12.4673 1.18595   6 
  12   1  -5 63.3241 3.42099   3 
 -12  -1   5 55.6620 2.93866   5 
  11   1  -5 3.24612 1.15912   3 
 -11  -1   5 3.26439 0.92479   5 
  10   1  -5 40.9698 2.55681   3 
 -10  -1   5 38.3205 2.22143   5 
   9   1  -5 78.6081 3.21150   6 
   9   1  -5 77.4279 3.43767   3 
  -9  -1   5 83.6880 3.04477   1 
  -9  -1   5 74.4319 3.12720   5 
   8   1  -5 164.863 5.21641   6 
   8   1  -5 162.790 5.45189   3 
  -8  -1   5 163.842 4.98443   1 
  -8  -1   5 154.216 5.13253   5 
   7   1  -5 -0.9121 0.45846   4 
   7   1  -5 -0.3767 0.37041   2 
   7   1  -5 -0.0291 0.46293   6 
   7   1  -5 -0.1866 0.62422   3 
  -7  -1   5 -0.0682 0.41317   1 
  -7  -1   5 0.05711 0.53160   5 
   6   1  -5 301.037 8.61781   6 
   6   1  -5 305.252 8.37755   2 
   6   1  -5 320.031 8.87029   3 
   6   1  -5 298.888 8.54022   4 
  -6  -1   5 316.369 8.66029   5 
  -6  -1   5 309.673 8.44880   1 
  -6  -1   5 312.151 8.55755   6 
   5   1  -5 227.848 6.73825   3 
   5   1  -5 231.321 6.58252   6 
   5   1  -5 230.160 6.45706   4 
  -5  -1   5 239.407 6.62757   5 
  -5  -1   5 225.731 6.40721   1 
  -5  -1   5 239.049 6.54133   6 
   4   1  -5 398.672 10.5005   2 
   4   1  -5 381.273 10.5019   6 
   4   1  -5 410.118 10.6821   3 
  -4  -1   5 401.218 10.5833   5 
  -4  -1   5 397.444 10.3666   4 
  -4  -1   5 387.040 10.4545   6 
  -4  -1   5 385.633 10.3900   1 
   3   1  -5 29.9777 1.38373   3 
   3   1  -5 28.9444 1.27357   6 
   3   1  -5 30.1335 1.34217   2 
  -3  -1   5 32.7698 1.17541   4 
  -3  -1   5 29.1034 1.24155   6 
  -3  -1   5 29.5901 1.23597   1 
  -3  -1   5 29.9279 1.35923   5 
   2   1  -5 399.635 10.2256   6 
   2   1  -5 372.847 10.2056   3 
   2   1  -5 374.005 10.2971   2 
  -2  -1   5 379.419 10.1681   1 
  -2  -1   5 417.178 10.1035   4 
  -2  -1   5 383.958 10.1621   6 
  -2  -1   5 394.608 10.3152   5 
   1   1  -5 102.661 3.10496   6 
   1   1  -5 102.351 3.04478   3 
   1   1  -5 109.849 3.27911   2 
  -1  -1   5 112.280 3.09407   4 
  -1  -1   5 109.675 3.11837   6 
  -1  -1   5 110.418 3.26112   5 
  -1  -1   5 103.535 3.14275   1 
   0   1  -5 529.301 13.5220   2 
   0   1  -5 500.601 13.3261   6 
   0   1  -5 488.783 13.1887   3 
   0  -1   5 513.469 13.3528   6 
   0  -1   5 513.567 13.4376   1 
   0  -1   5 520.277 13.3377   6 
   0  -1   5 537.330 13.5366   5 
   0  -1   5 542.011 13.4720   4 
  -1   1  -5 62.0115 2.15381   1 
  -1   1  -5 58.6224 2.08450   2 
   1  -1   5 64.9894 2.16484   5 
   1  -1   5 64.8144 2.19549   4 
   1  -1   5 61.6134 2.10634   1 
   1  -1   5 63.1335 1.96154   6 
   1  -1   5 62.1671 1.97759   6 
  -2   1  -5 298.514 7.98303   2 
  -2   1  -5 288.435 8.07147   1 
   2  -1   5 300.681 8.07933   5 
   2  -1   5 287.013 7.81351   6 
   2  -1   5 300.644 8.21891   4 
   2  -1   5 304.429 7.87459   6 
  -3   1  -5 12.4947 0.83834   2 
  -3   1  -5 10.0919 0.85661   1 
   3  -1   5 12.8076 0.73765   6 
   3  -1   5 13.5230 0.94386   5 
   3  -1   5 12.8138 1.13842   4 
   3  -1   5 13.7196 0.78625   6 
  -4   1  -5 609.158 15.4913   2 
  -4   1  -5 584.960 15.7563   1 
   4  -1   5 596.257 15.7641   5 
   4  -1   5 588.057 15.4533   6 
   4  -1   5 611.577 16.1388   4 
  -5   1  -5 41.5559 1.92145   1 
  -5   1  -5 44.7500 1.62454   2 
   5  -1   5 41.9828 1.92705   5 
   5  -1   5 44.0936 1.67901   6 
   5  -1   5 42.8505 2.29372   4 
  -6   1  -5 81.5329 2.98948   1 
   6  -1   5 78.4711 2.99705   5 
   6  -1   5 84.9083 2.73220   6 
   6  -1   5 74.4785 3.37577   4 
  -7   1  -5 18.4871 1.36862   1 
   7  -1   5 15.8679 1.36022   5 
   7  -1   5 17.5086 1.72231   4 
   7  -1   5 19.1825 1.20052   6 
  -8   1  -5 292.471 8.50506   1 
  -8   1  -5 298.582 8.64277   5 
   8  -1   5 277.975 9.28623   4 
   8  -1   5 288.272 8.27662   6 
   8  -1   5 295.448 8.65487   5 
  -9   1  -5 14.1432 1.39104   5 
  -9   1  -5 14.2272 1.31766   1 
   9  -1   5 15.5801 1.44877   5 
   9  -1   5 13.3299 1.23771   6 
   9  -1   5 14.8562 1.84044   4 
 -10   1  -5 72.4498 3.09863   1 
 -10   1  -5 74.1584 3.26761   5 
  10  -1   5 68.5572 2.95674   6 
  10  -1   5 65.0876 3.85961   4 
 -11   1  -5 3.45805 1.01187   5 
 -11   1  -5 2.81791 0.88691   1 
  11  -1   5 1.02283 0.75012   6 
  12   0  -5 -0.0477 1.02332   3 
 -12   0   5 -0.6129 0.71633   5 
  11   0  -5 83.0301 3.88685   3 
 -11   0   5 81.7534 3.59779   5 
  10   0  -5 1.49375 0.78159   6 
  10   0  -5 0.23788 0.91387   4 
  10   0  -5 0.83640 0.96896   3 
 -10   0   5 1.56779 0.85478   5 
   9   0  -5 66.1882 3.19348   3 
   9   0  -5 74.9918 3.03895   6 
   9   0  -5 74.0167 3.30451   4 
  -9   0   5 67.2998 2.99828   5 
   8   0  -5 17.6475 1.59542   4 
   8   0  -5 15.6433 1.49642   3 
   8   0  -5 13.8490 1.23979   6 
  -8   0   5 15.9591 1.41278   5 
  -8   0   5 17.0955 1.26677   1 
   7   0  -5 100.652 3.75098   3 
   7   0  -5 105.066 3.57305   6 
   7   0  -5 101.835 3.69757   4 
  -7   0   5 94.0805 3.52608   5 
  -7   0   5 102.729 3.29881   1 
   6   0  -5 37.0643 1.86207   4 
   6   0  -5 37.8573 1.97948   3 
   6   0  -5 38.4743 1.53690   2 
   6   0  -5 39.5791 1.79177   6 
  -6   0   5 37.5874 1.56797   1 
  -6   0   5 37.3418 1.83105   5 
   5   0  -5 381.801 9.98417   2 
   5   0  -5 363.452 10.3250   3 
   5   0  -5 377.099 10.2232   4 
   5   0  -5 369.033 10.1711   6 
  -5   0   5 389.476 10.2812   5 
  -5   0   5 371.040 9.94698   1 
  -5   0   5 379.658 10.0942   6 
   4   0  -5 32.0929 1.42336   4 
   4   0  -5 29.8631 1.52383   3 
   4   0  -5 31.4506 1.34890   2 
   4   0  -5 30.5858 1.37952   6 
  -4   0   5 30.4578 1.23485   1 
  -4   0   5 32.0561 1.33649   6 
  -4   0   5 30.8148 1.39229   4 
  -4   0   5 32.0224 1.51070   5 
   3   0  -5 795.960 20.8606   6 
   3   0  -5 770.578 20.9153   3 
   3   0  -5 847.261 20.8878   2 
  -3   0   5 829.835 20.8206   6 
  -3   0   5 827.045 20.8583   4 
  -3   0   5 790.797 20.9272   5 
  -3   0   5 828.383 20.7066   1 
   2   0  -5 7.35351 0.60032   3 
   2   0  -5 7.54233 0.60816   6 
   2   0  -5 8.42881 0.71192   2 
  -2   0   5 7.89926 0.56586   1 
  -2   0   5 7.87300 0.60734   6 
  -2   0   5 8.90307 0.68547   4 
  -2   0   5 7.46541 0.63003   5 
   1   0  -5 263.780 7.16404   2 
   1   0  -5 243.113 6.97312   3 
   1   0  -5 253.461 7.05119   6 
  -1   0   5 282.801 7.19104   5 
  -1   0   5 257.146 6.98631   1 
  -1   0   5 266.589 7.03858   6 
  -1   0   5 286.685 7.12602   4 
   0   0  -5 64.2414 2.01856   6 
   0   0  -5 62.1096 2.11325   2 
   0   0  -5 59.6048 1.85408   3 
   0   0   5 63.3024 2.01842   1 
   0   0   5 67.5259 2.15878   4 
   0   0   5 65.5791 2.01727   6 
   0   0   5 66.1507 2.13159   5 
  -1   0  -5 191.547 5.54456   6 
  -1   0  -5 213.430 5.71051   2 
  -1   0  -5 202.002 5.67217   1 
   1   0   5 215.589 5.73160   5 
   1   0   5 210.626 5.67039   1 
   1   0   5 217.966 5.83142   4 
   1   0   5 196.055 5.55269   6 
  -2   0  -5 23.6740 1.07811   2 
  -2   0  -5 21.4721 1.09524   1 
  -2   0  -5 22.9834 0.97095   6 
   2   0   5 23.7572 1.12078   5 
   2   0   5 20.6254 0.93897   6 
   2   0   5 22.5813 1.27386   4 
  -3   0  -5 979.416 26.0925   1 
  -3   0  -5 1041.46 25.9931   2 
  -3   0  -5 989.287 25.9113   6 
   3   0   5 1037.00 25.9683   6 
   3   0   5 1017.15 25.9124   6 
   3   0   5 1052.21 26.1171   5 
   3   0   5 1022.63 26.3904   4 
  -4   0  -5 133.384 4.18056   1 
  -4   0  -5 136.462 3.95997   2 
   4   0   5 136.708 4.16757   5 
   4   0   5 140.682 4.03526   6 
   4   0   5 139.435 4.53304   4 
   4   0   5 139.580 3.97909   6 
  -5   0  -5 199.774 5.80414   1 
  -5   0  -5 206.626 5.49011   2 
   5   0   5 193.423 5.55617   6 
   5   0   5 196.062 5.77193   5 
   5   0   5 192.102 6.19211   4 
  -6   0  -5 52.0181 2.16414   1 
   6   0   5 49.0634 2.13426   5 
   6   0   5 51.0082 2.59423   4 
   6   0   5 50.1709 1.95067   6 
  -7   0  -5 172.946 5.42777   1 
   7   0   5 181.683 5.27976   6 
   7   0   5 173.571 6.05794   4 
   7   0   5 175.385 5.48622   5 
  -8   0  -5 8.51866 1.05873   5 
  -8   0  -5 9.26187 1.02454   1 
   8   0   5 8.81575 0.94159   6 
   8   0   5 8.86437 1.43870   4 
   8   0   5 8.88356 1.08513   5 
  -9   0  -5 114.393 4.14998   1 
  -9   0  -5 125.421 4.32881   5 
   9   0   5 117.483 4.06617   6 
   9   0   5 118.018 4.31788   5 
   9   0   5 114.119 4.95290   4 
 -10   0  -5 3.86057 0.99325   5 
 -10   0  -5 2.33602 0.78007   1 
  10   0   5 3.00059 0.86091   6 
  10   0   5 4.74734 1.38565   4 
 -11   0  -5 46.7219 2.57403   5 
 -11   0  -5 47.6131 2.49292   1 
  11   0   5 48.2564 2.47926   6 
  11   0   5 40.8923 3.12857   4 
  12  -1  -5 42.6782 2.48982   6 
  12  -1  -5 40.3469 2.86242   3 
  11  -1  -5 15.0531 1.73065   3 
  11  -1  -5 13.0084 1.73764   4 
  11  -1  -5 13.4500 1.43116   6 
 -11   1   5 14.4279 1.53421   5 
  10  -1  -5 32.3453 2.42098   4 
  10  -1  -5 30.1669 1.97170   6 
  10  -1  -5 30.9390 2.26098   3 
 -10   1   5 34.2428 2.14586   5 
   9  -1  -5 39.8434 2.39490   3 
   9  -1  -5 38.1376 2.10201   6 
   9  -1  -5 38.8910 2.47575   4 
  -9   1   5 34.6807 2.14004   5 
   8  -1  -5 52.6602 2.40231   6 
   8  -1  -5 56.1820 2.77983   4 
   8  -1  -5 53.2626 2.68772   3 
  -8   1   5 50.8003 2.46577   5 
   7  -1  -5 0.30952 0.45536   6 
   7  -1  -5 -0.4032 0.64430   3 
   7  -1  -5 1.30973 0.72606   4 
  -7   1   5 0.60570 0.58325   5 
  -7   1   5 0.98531 0.45312   1 
   6  -1  -5 110.153 3.69272   6 
   6  -1  -5 116.785 3.97471   4 
   6  -1  -5 113.206 3.94941   3 
   6  -1  -5 109.414 3.35214   2 
  -6   1   5 112.585 3.83895   5 
  -6   1   5 115.364 3.45300   1 
   5  -1  -5 111.673 3.89586   3 
   5  -1  -5 118.452 3.51580   2 
   5  -1  -5 116.598 3.73140   6 
   5  -1  -5 119.213 3.92798   4 
  -5   1   5 119.983 3.48041   1 
  -5   1   5 123.920 3.89460   5 
  -5   1   5 121.661 3.64292   6 
   4  -1  -5 78.8751 2.62940   6 
   4  -1  -5 76.9934 2.49855   2 
   4  -1  -5 79.6633 2.76621   4 
   4  -1  -5 75.8375 2.77639   3 
  -4   1   5 80.7292 2.79057   4 
  -4   1   5 81.0581 2.76220   5 
  -4   1   5 78.2652 2.54868   6 
  -4   1   5 81.2678 2.39889   1 
   3  -1  -5 49.2456 1.81561   6 
   3  -1  -5 49.7856 1.79303   2 
   3  -1  -5 46.3281 1.92279   3 
  -3   1   5 54.2923 1.96103   4 
  -3   1   5 50.5951 1.92632   5 
  -3   1   5 51.0533 1.77301   6 
  -3   1   5 50.5880 1.60246   1 
   2  -1  -5 2191.98 53.8982   2 
   2  -1  -5 2047.76 53.9115   3 
   2  -1  -5 2126.66 53.8610   6 
  -2   1   5 2139.30 53.6894   1 
  -2   1   5 2211.97 54.0124   4 
  -2   1   5 2165.16 53.9585   5 
  -2   1   5 2089.80 53.7988   6 
   1  -1  -5 49.5687 1.77453   3 
   1  -1  -5 55.3267 1.87310   2 
   1  -1  -5 53.2201 1.80314   6 
  -1   1   5 54.3222 1.87569   5 
  -1   1   5 57.7039 1.92463   4 
  -1   1   5 52.2807 1.75276   6 
  -1   1   5 51.7026 1.63122   1 
   0  -1  -5 453.365 12.2412   3 
   0  -1  -5 462.245 12.2659   1 
   0  -1  -5 476.229 12.3493   6 
   0  -1  -5 471.731 12.4177   2 
   0   1   5 473.646 12.3185   6 
   0   1   5 487.781 12.2603   1 
   0   1   5 501.237 12.5288   4 
   0   1   5 489.212 12.3967   5 
  -1  -1  -5 1.75139 0.23312   3 
  -1  -1  -5 1.99918 0.36231   1 
  -1  -1  -5 2.03840 0.31150   6 
  -1  -1  -5 1.63298 0.36718   2 
   1   1   5 1.94092 0.47551   4 
   1   1   5 2.01306 0.31431   6 
   1   1   5 2.09230 0.37902   5 
  -2  -1  -5 285.408 7.82026   1 
  -2  -1  -5 294.143 7.84585   2 
  -2  -1  -5 288.048 7.76490   6 
   2   1   5 287.942 7.82630   5 
   2   1   5 290.268 7.75249   6 
   2   1   5 300.816 7.56926   3 
   2   1   5 303.531 8.12887   4 
  -3  -1  -5 244.474 6.73042   2 
  -3  -1  -5 242.619 6.70820   6 
  -3  -1  -5 248.067 6.81788   1 
   3   1   5 249.818 6.68590   6 
   3   1   5 253.149 7.13355   4 
   3   1   5 252.892 6.78541   5 
  -4  -1  -5 493.995 13.3370   1 
  -4  -1  -5 501.743 13.1738   2 
  -4  -1  -5 539.312 13.2532   6 
   4   1   5 497.854 13.7296   4 
   4   1   5 502.637 13.2958   5 
   4   1   5 505.541 13.1969   6 
  -5  -1  -5 109.461 3.17748   2 
  -5  -1  -5 103.875 3.40966   1 
   5   1   5 106.454 3.38667   5 
   5   1   5 104.301 3.82471   4 
   5   1   5 104.427 3.25727   6 
  -6  -1  -5 132.833 4.29052   1 
  -6  -1  -5 143.838 3.97448   2 
   6   1   5 139.072 4.18159   6 
   6   1   5 139.104 4.30516   5 
   6   1   5 133.589 4.77276   4 
  -7  -1  -5 192.992 5.68143   1 
   7   1   5 175.900 6.19188   4 
   7   1   5 187.655 5.54084   6 
   7   1   5 192.064 5.69946   5 
  -8  -1  -5 217.551 6.53765   1 
  -8  -1  -5 222.897 6.57864   5 
   8   1   5 210.981 7.25197   4 
   8   1   5 216.632 6.57750   5 
   8   1   5 221.272 6.46652   6 
  -9  -1  -5 19.6803 1.51999   5 
  -9  -1  -5 15.0585 1.28033   1 
   9   1   5 14.9935 1.73571   4 
   9   1   5 16.6386 1.34781   6 
   9   1   5 16.9889 1.50802   5 
 -10  -1  -5 58.7344 2.72594   5 
 -10  -1  -5 59.2096 2.67885   1 
  10   1   5 60.1154 2.68318   6 
  10   1   5 53.4331 3.32490   4 
 -11  -1  -5 3.23530 0.92939   5 
 -11  -1  -5 1.81687 0.81634   1 
  11   1   5 4.22531 0.96971   6 
  11   1   5 2.27002 1.34309   4 
 -12  -1  -5 26.3285 1.93537   1 
 -12  -1  -5 28.3620 1.98285   5 
  12   1   5 25.0719 1.88344   6 
  12  -2  -5 3.52454 0.95823   6 
  11  -2  -5 19.3462 1.94268   3 
  11  -2  -5 21.8138 1.79228   6 
  11  -2  -5 23.3765 2.28681   4 
 -11   2   5 23.6415 1.96912   5 
  10  -2  -5 0.95257 0.97310   4 
  10  -2  -5 -0.3837 0.84591   3 
  10  -2  -5 -0.2563 0.67638   6 
 -10   2   5 1.75320 0.87616   5 
   9  -2  -5 29.2910 2.15458   3 
   9  -2  -5 29.2328 1.80716   6 
   9  -2  -5 29.7779 2.24997   4 
  -9   2   5 31.9911 2.03363   5 
   8  -2  -5 34.2972 2.19392   3 
   8  -2  -5 32.5254 1.82312   6 
   8  -2  -5 33.3899 2.24156   4 
  -8   2   5 34.4262 2.02412   5 
   7  -2  -5 65.9644 2.97654   3 
   7  -2  -5 69.1116 3.09019   4 
   7  -2  -5 68.6558 2.66706   6 
  -7   2   5 65.9288 2.81848   5 
   6  -2  -5 2.65640 0.62202   6 
   6  -2  -5 2.14447 0.77716   4 
   6  -2  -5 3.28070 0.82581   3 
  -6   2   5 3.00153 0.70483   5 
   5  -2  -5 164.832 4.75536   2 
   5  -2  -5 171.771 5.04726   6 
   5  -2  -5 172.032 5.39172   4 
   5  -2  -5 173.134 5.33253   3 
  -5   2   5 173.334 5.24484   5 
  -5   2   5 167.371 4.70201   1 
   4  -2  -5 37.3223 1.43525   2 
   4  -2  -5 37.4790 1.78411   3 
   4  -2  -5 37.0826 1.55398   6 
   4  -2  -5 38.2682 1.81565   4 
  -4   2   5 34.4131 1.44520   6 
  -4   2   5 35.5756 1.78199   4 
  -4   2   5 39.1802 1.76274   5 
  -4   2   5 35.7924 1.26117   1 
   3  -2  -5 811.237 20.7046   6 
   3  -2  -5 808.022 20.6179   2 
   3  -2  -5 771.131 20.8553   3 
  -3   2   5 810.582 20.6193   6 
  -3   2   5 812.773 20.9824   4 
  -3   2   5 815.624 20.3723   1 
  -3   2   5 808.687 20.8455   5 
   2  -2  -5 3.81638 0.50885   2 
   2  -2  -5 5.73177 0.51888   6 
   2  -2  -5 3.57069 0.56679   3 
  -2   2   5 4.30608 0.37995   1 
  -2   2   5 5.09235 0.63490   4 
  -2   2   5 5.06396 0.58131   5 
  -2   2   5 4.66552 0.45278   6 
   1  -2  -5 476.050 12.3348   2 
   1  -2  -5 446.503 12.3234   3 
   1  -2  -5 480.987 12.3033   6 
  -1   2   5 472.120 12.2454   6 
  -1   2   5 470.353 12.0377   1 
  -1   2   5 489.151 12.4949   4 
  -1   2   5 475.572 12.3396   5 
   0  -2  -5 409.779 10.5829   1 
   0  -2  -5 400.488 10.7998   2 
   0  -2  -5 403.421 10.7485   6 
   0  -2  -5 397.092 10.7210   3 
   0   2   5 419.237 10.7723   5 
   0   2   5 435.563 10.9912   4 
   0   2   5 420.828 10.7343   6 
  -1  -2  -5 271.811 7.13970   1 
  -1  -2  -5 270.990 7.23594   6 
  -1  -2  -5 261.410 7.12469   3 
  -1  -2  -5 272.548 7.29626   2 
   1   2   5 274.651 7.22333   5 
   1   2   5 267.401 7.20405   6 
   1   2   5 279.878 7.51443   4 
  -2  -2  -5 51.1543 1.78066   6 
  -2  -2  -5 52.5913 1.78168   1 
  -2  -2  -5 55.4348 1.86986   2 
  -2  -2  -5 51.5663 1.62114   3 
   2   2   5 53.3792 1.78669   5 
   2   2   5 54.3635 1.78498   6 
   2   2   5 57.3159 2.13319   4 
  -3  -2  -5 988.542 25.7400   1 
  -3  -2  -5 1014.51 25.7522   2 
  -3  -2  -5 1018.05 25.7445   6 
   3   2   5 977.486 25.6930   5 
   3   2   5 1053.93 25.6015   3 
   3   2   5 983.665 25.6866   6 
   3   2   5 1037.34 26.1877   4 
  -4  -2  -5 32.5678 1.30993   6 
  -4  -2  -5 28.1017 1.35486   1 
  -4  -2  -5 28.0154 1.26335   2 
   4   2   5 28.7310 1.66699   4 
   4   2   5 29.8286 1.11160   3 
   4   2   5 32.5951 1.33164   5 
   4   2   5 27.5708 1.24397   6 
  -5  -2  -5 251.162 6.82357   2 
  -5  -2  -5 251.442 6.94712   6 
  -5  -2  -5 250.898 7.03332   1 
   5   2   5 255.667 6.95881   5 
   5   2   5 250.637 6.92315   6 
   5   2   5 249.560 7.50766   4 
   5   2   5 253.119 6.70726   3 
  -6  -2  -5 3.10366 0.61671   1 
  -6  -2  -5 3.44252 0.48256   2 
   6   2   5 2.95754 0.58833   5 
   6   2   5 3.89212 0.59012   6 
   6   2   5 4.33604 0.91174   4 
  -7  -2  -5 39.7367 1.84086   1 
   7   2   5 40.3643 1.77855   6 
   7   2   5 39.8529 1.83605   5 
   7   2   5 39.8790 2.31340   4 
  -8  -2  -5 8.44396 0.90187   5 
  -8  -2  -5 7.80244 0.91406   1 
   8   2   5 8.84674 0.90767   6 
   8   2   5 7.60991 1.23086   4 
   8   2   5 6.53117 0.87967   5 
  -9  -2  -5 140.537 4.80592   1 
  -9  -2  -5 154.172 4.87317   5 
   9   2   5 157.766 4.94076   5 
   9   2   5 138.129 5.53601   4 
   9   2   5 149.489 4.82658   6 
 -10  -2  -5 8.79208 1.07668   1 
 -10  -2  -5 9.02140 1.08116   5 
  10   2   5 9.25713 1.11212   6 
  10   2   5 6.91756 1.51522   4 
 -11  -2  -5 55.1569 2.63295   5 
 -11  -2  -5 51.7976 2.58468   1 
  11   2   5 57.3468 2.73047   6 
  11   2   5 51.6328 3.33731   4 
 -12  -2  -5 11.8852 1.26642   5 
 -12  -2  -5 12.0354 1.33712   1 
  12   2   5 9.38791 1.31463   6 
  12   2   5 7.43670 1.71924   4 
  11  -3  -5 11.8584 1.67387   3 
  11  -3  -5 6.45919 1.52888   4 
  11  -3  -5 9.10456 1.22069   6 
 -11   3   5 9.51005 1.42230   5 
  10  -3  -5 12.5440 1.62863   3 
  10  -3  -5 9.48585 1.56064   4 
  10  -3  -5 12.2967 1.31152   6 
 -10   3   5 13.1434 1.48938   5 
   9  -3  -5 13.3476 1.67730   4 
   9  -3  -5 12.8973 1.26136   6 
   9  -3  -5 14.7509 1.58553   3 
  -9   3   5 12.4110 1.36631   5 
   8  -3  -5 71.3718 3.28235   3 
   8  -3  -5 70.3192 2.87385   6 
   8  -3  -5 72.0827 3.45240   4 
  -8   3   5 71.6354 3.12263   5 
   7  -3  -5 14.7128 1.21466   6 
   7  -3  -5 17.1187 1.66879   4 
   7  -3  -5 15.4698 1.46672   3 
  -7   3   5 15.1743 1.32509   5 
   6  -3  -5 387.101 11.0832   4 
   6  -3  -5 384.497 10.8564   3 
   6  -3  -5 373.208 10.4503   6 
  -6   3   5 383.226 10.7581   5 
   5  -3  -5 3.01690 0.56856   6 
   5  -3  -5 2.51906 0.43926   2 
   5  -3  -5 3.75761 0.80673   4 
   5  -3  -5 3.90402 0.77156   3 
  -5   3   5 3.15698 0.69260   5 
   4  -3  -5 433.909 11.8739   4 
   4  -3  -5 419.507 11.2092   2 
   4  -3  -5 411.733 11.3744   6 
   4  -3  -5 435.513 11.7258   3 
  -4   3   5 441.761 11.9191   4 
  -4   3   5 430.047 11.6376   5 
  -4   3   5 429.359 10.9864   1 
   3  -3  -5 175.609 5.31063   4 
   3  -3  -5 164.846 5.14245   3 
   3  -3  -5 172.323 4.91480   6 
   3  -3  -5 168.986 4.82531   2 
  -3   3   5 178.637 5.33172   4 
  -3   3   5 171.476 4.47314   1 
  -3   3   5 175.702 4.84506   6 
   2  -3  -5 2057.11 51.4757   6 
   2  -3  -5 2047.70 51.4689   2 
   2  -3  -5 1972.96 51.6706   3 
  -2   3   5 2095.87 51.8794   4 
  -2   3   5 2003.99 51.5986   5 
  -2   3   5 2074.59 51.4111   6 
   1  -3  -5 851.198 21.8723   6 
   1  -3  -5 897.141 21.9372   2 
   1  -3  -5 800.848 21.9864   3 
  -1   3   5 881.119 22.1941   4 
  -1   3   5 853.231 21.9321   5 
  -1   3   5 855.815 21.8234   6 
   0  -3  -5 118.627 3.46010   6 
   0  -3  -5 113.232 3.51808   3 
   0  -3  -5 117.255 3.18291   1 
   0  -3  -5 121.856 3.53233   2 
   0   3   5 120.154 3.42582   6 
   0   3   5 122.798 3.75404   4 
   0   3   5 120.907 3.46313   5 
  -1  -3  -5 143.160 3.82803   1 
  -1  -3  -5 139.898 4.00326   6 
  -1  -3  -5 133.019 3.98580   3 
  -1  -3  -5 142.995 4.07803   2 
   1   3   5 139.420 3.96499   6 
   1   3   5 145.673 4.33089   4 
   1   3   5 144.626 3.95998   5 
  -2  -3  -5 342.014 9.31394   2 
  -2  -3  -5 349.604 9.16410   1 
  -2  -3  -5 341.185 9.19358   3 
  -2  -3  -5 354.051 9.28706   6 
   2   3   5 347.237 9.18214   5 
   2   3   5 346.452 9.22996   6 
   2   3   5 367.937 9.65305   4 
   2   3   5 365.769 9.26821   6 
  -3  -3  -5 11.6212 0.79833   2 
  -3  -3  -5 11.0705 0.72805   6 
  -3  -3  -5 11.5433 0.75588   1 
   3   3   5 11.0607 0.69719   3 
   3   3   5 12.1064 0.70389   5 
   3   3   5 11.7396 1.11691   4 
   3   3   5 9.93299 0.68560   6 
  -4  -3  -5 169.817 4.89887   1 
  -4  -3  -5 168.855 4.88568   2 
  -4  -3  -5 171.110 4.92896   6 
   4   3   5 184.822 4.84803   3 
   4   3   5 178.449 4.91392   6 
   4   3   5 174.308 5.39229   4 
   4   3   5 167.461 4.78990   5 
  -5  -3  -5 222.791 6.25276   2 
  -5  -3  -5 227.437 6.38351   1 
  -5  -3  -5 231.259 6.37931   6 
   5   3   5 235.580 6.36099   6 
   5   3   5 226.330 6.89804   4 
   5   3   5 225.631 6.26050   5 
   5   3   5 228.128 6.23503   3 
  -6  -3  -5 271.756 7.78805   1 
  -6  -3  -5 283.387 7.61976   2 
   6   3   5 284.747 8.42773   4 
   6   3   5 282.532 7.63519   3 
   6   3   5 278.971 7.69050   5 
   6   3   5 286.876 7.79287   6 
  -7  -3  -5 -0.0792 0.33322   2 
  -7  -3  -5 0.03340 0.44810   1 
   7   3   5 -0.6879 0.42803   5 
   7   3   5 -0.6549 0.35722   6 
   7   3   5 -0.0301 0.66221   4 
   7   3   5 0.03536 0.38047   3 
  -8  -3  -5 408.520 10.7867   5 
  -8  -3  -5 392.870 10.8772   1 
   8   3   5 372.894 11.5027   4 
   8   3   5 400.601 10.7957   5 
   8   3   5 395.872 10.8616   6 
  -9  -3  -5 36.7111 1.93556   1 
  -9  -3  -5 37.0687 1.90686   5 
   9   3   5 35.8248 2.47229   4 
   9   3   5 32.4365 1.87066   6 
 -10  -3  -5 156.407 5.03889   5 
 -10  -3  -5 152.574 5.08270   1 
  10   3   5 143.998 5.82653   4 
  10   3   5 157.404 5.13379   6 
 -11  -3  -5 39.5398 2.13238   5 
 -11  -3  -5 36.8401 2.12489   1 
  11   3   5 34.2461 2.73209   4 
  11   3   5 36.1062 2.18099   6 
 -12  -3  -5 5.48990 1.06751   1 
  12   3   5 4.41831 1.51236   4 
  12   3   5 5.27663 1.06483   6 
  10  -4  -5 11.7738 1.23911   6 
  10  -4  -5 12.9209 1.64521   3 
  10  -4  -5 12.2047 1.77106   4 
 -10   4   5 9.82868 1.39710   5 
   9  -4  -5 35.4648 1.93179   6 
   9  -4  -5 33.0930 2.34362   3 
   9  -4  -5 31.3453 2.49755   4 
  -9   4   5 27.8524 2.07726   5 
   8  -4  -5 41.5562 2.54801   3 
   8  -4  -5 43.7139 2.75722   4 
   8  -4  -5 44.9827 2.11748   6 
  -8   4   5 40.7611 2.34840   5 
   7  -4  -5 161.321 5.57661   3 
   7  -4  -5 152.862 4.99368   6 
   7  -4  -5 166.513 5.85089   4 
  -7   4   5 161.087 5.39765   5 
   6  -4  -5 6.65501 1.10203   3 
   6  -4  -5 5.53526 1.10865   4 
   6  -4  -5 6.61447 0.80583   6 
  -6   4   5 7.86185 0.97942   5 
   5  -4  -5 348.136 10.2706   4 
   5  -4  -5 352.825 10.0781   3 
   5  -4  -5 349.228 9.58856   6 
  -5   4   5 357.696 9.95568   5 
   4  -4  -5 11.8281 0.87511   6 
   4  -4  -5 9.97654 1.02039   3 
   4  -4  -5 12.0647 0.82821   2 
   4  -4  -5 10.0530 1.09998   4 
  -4   4   5 9.55564 1.22504   4 
  -4   4   5 10.2213 0.94233   5 
   3  -4  -5 399.345 10.9835   4 
   3  -4  -5 380.875 10.3352   2 
   3  -4  -5 381.105 10.7482   3 
   3  -4  -5 390.035 10.4114   6 
  -3   4   5 397.269 10.6855   5 
  -3   4   5 405.269 11.0039   4 
   2  -4  -5 0.36120 0.37526   2 
   2  -4  -5 -0.3367 0.44120   3 
   2  -4  -5 0.55343 0.31919   6 
  -2   4   5 0.71062 0.42234   5 
  -2   4   5 0.46544 0.51409   4 
  -2   4   5 0.41186 0.25134   6 
   1  -4  -5 1189.34 31.4132   3 
   1  -4  -5 1236.66 31.1777   6 
   1  -4  -5 1257.25 31.2468   2 
  -1   4   5 1205.54 31.2639   5 
  -1   4   5 1223.30 31.1168   6 
  -1   4   5 1261.68 31.6363   4 
   0  -4  -5 944.398 24.4977   6 
   0  -4  -5 949.737 24.5774   2 
   0  -4  -5 918.255 24.6631   3 
   0   4   5 1003.12 24.9150   4 
   0   4   5 985.125 24.4763   6 
   0   4   5 972.992 24.5072   5 
  -1  -4  -5 158.233 4.68975   2 
  -1  -4  -5 165.478 4.36165   1 
  -1  -4  -5 161.443 4.72596   3 
  -1  -4  -5 169.884 4.64501   6 
   1   4   5 166.365 4.55030   5 
   1   4   5 162.425 4.58028   6 
   1   4   5 173.293 5.03563   4 
  -2  -4  -5 9.89680 0.73325   3 
  -2  -4  -5 11.8875 0.74170   6 
  -2  -4  -5 10.3947 0.60236   1 
  -2  -4  -5 11.1946 0.80257   2 
   2   4   5 10.9146 0.67196   6 
   2   4   5 11.3497 1.07699   4 
   2   4   5 10.9897 0.63030   5 
   2   4   5 11.1159 0.68043   6 
  -3  -4  -5 130.670 3.89580   3 
  -3  -4  -5 133.907 3.96397   2 
  -3  -4  -5 134.014 3.80233   1 
  -3  -4  -5 134.960 3.92998   6 
   3   4   5 140.908 4.35804   4 
   3   4   5 132.394 3.72961   5 
   3   4   5 140.037 3.90453   6 
   3   4   5 133.618 3.90989   3 
  -4  -4  -5 7.29253 0.64859   2 
  -4  -4  -5 7.44761 0.62121   1 
  -4  -4  -5 8.50636 0.69164   6 
   4   4   5 7.07603 0.89511   4 
   4   4   5 8.95035 0.60495   5 
   4   4   5 8.98057 0.75236   3 
   4   4   5 8.50541 0.66788   6 
  -5  -4  -5 77.4175 2.58552   1 
  -5  -4  -5 79.0505 2.63952   6 
  -5  -4  -5 75.3098 2.56437   2 
   5   4   5 77.8450 2.58894   6 
   5   4   5 82.7612 2.62698   3 
   5   4   5 76.8616 2.42276   5 
   5   4   5 77.6404 3.08046   4 
  -6  -4  -5 4.44351 0.61957   1 
  -6  -4  -5 4.89360 0.60803   6 
  -6  -4  -5 3.53548 0.52242   2 
   6   4   5 3.62690 0.50244   5 
   6   4   5 3.83008 0.57018   6 
   6   4   5 4.14178 0.91154   4 
   6   4   5 4.15342 0.61321   3 
  -7  -4  -5 41.1494 1.82893   1 
  -7  -4  -5 38.9435 1.65046   2 
   7   4   5 39.4410 1.64641   5 
   7   4   5 42.0632 1.80822   3 
   7   4   5 38.2783 2.31312   4 
   7   4   5 41.8576 1.81544   6 
  -8  -4  -5 1.68409 0.53732   5 
  -8  -4  -5 0.84569 0.57636   1 
   8   4   5 0.99033 0.50664   5 
   8   4   5 0.56922 0.51576   6 
   8   4   5 0.75437 0.53864   3 
   8   4   5 0.42258 0.86292   4 
  -9  -4  -5 405.460 10.8924   5 
  -9  -4  -5 384.570 11.0482   1 
   9   4   5 407.630 11.1303   6 
   9   4   5 391.707 11.8195   4 
 -10  -4  -5 -0.5420 0.60724   5 
 -10  -4  -5 0.51032 0.68210   1 
  10   4   5 -1.5277 0.91461   4 
  10   4   5 0.75764 0.70513   6 
 -11  -4  -5 101.347 3.87017   1 
  11   4   5 100.378 4.64503   4 
 -12  -4  -5 23.3703 1.88506   1 
  12   4   5 24.0595 2.45473   4 
  10  -5  -5 24.9330 2.29667   3 
  10  -5  -5 25.9200 2.44849   4 
  10  -5  -5 25.9233 1.76611   6 
   9  -5  -5 10.8586 1.57243   3 
   9  -5  -5 13.1923 1.24724   6 
   9  -5  -5 14.7428 1.86445   4 
  -9   5   5 10.9369 1.39571   5 
   8  -5  -5 84.6497 4.07550   4 
   8  -5  -5 86.1383 3.25957   6 
   8  -5  -5 87.9383 3.83091   3 
  -8   5   5 84.7939 3.67224   5 
   7  -5  -5 16.4642 1.68122   4 
   7  -5  -5 12.2418 1.07310   6 
   7  -5  -5 10.4355 1.38204   3 
  -7   5   5 13.0130 1.32796   5 
   6  -5  -5 194.604 6.35630   3 
   6  -5  -5 191.398 6.63152   4 
   6  -5  -5 192.386 5.76658   6 
  -6   5   5 199.288 6.24741   5 
   5  -5  -5 127.520 4.59718   3 
   5  -5  -5 129.984 4.81317   4 
   5  -5  -5 132.739 4.07680   6 
  -5   5   5 131.627 4.45803   5 
   4  -5  -5 101.753 3.23113   6 
   4  -5  -5 99.3461 3.87630   4 
   4  -5  -5 99.8059 3.72039   3 
  -4   5   5 101.700 3.90433   4 
  -4   5   5 104.766 3.59889   5 
   3  -5  -5 60.3304 2.13267   6 
   3  -5  -5 61.7799 2.15929   2 
   3  -5  -5 60.1304 2.54596   3 
   3  -5  -5 63.5845 2.73218   4 
  -3   5   5 62.0752 2.70702   4 
  -3   5   5 60.7821 2.43055   5 
   2  -5  -5 644.252 16.7676   6 
   2  -5  -5 653.184 17.2085   3 
   2  -5  -5 658.427 16.8462   2 
  -2   5   5 652.310 17.4216   4 
  -2   5   5 636.868 17.0044   5 
   1  -5  -5 19.4305 1.31580   3 
   1  -5  -5 20.1313 1.14040   2 
   1  -5  -5 23.2742 1.01317   6 
   1  -5  -5 21.0630 1.03056   6 
  -1   5   5 23.8298 1.49159   4 
  -1   5   5 20.7226 1.17512   5 
   0  -5  -5 760.520 19.2319   2 
   0  -5  -5 712.458 19.0171   6 
   0  -5  -5 772.293 19.1144   6 
   0  -5  -5 755.861 19.4204   3 
   0   5   5 741.159 19.0387   6 
   0   5   5 750.137 19.5862   4 
   0   5   5 718.753 19.0968   5 
  -1  -5  -5 17.7857 0.94609   6 
  -1  -5  -5 19.2713 1.09340   2 
  -1  -5  -5 19.4680 1.15696   3 
  -1  -5  -5 18.1608 0.74582   1 
   1   5   5 19.6016 0.90795   5 
   1   5   5 19.1485 1.33471   4 
   1   5   5 18.7678 0.90180   6 
  -2  -5  -5 101.634 3.28607   3 
  -2  -5  -5 106.722 2.97853   1 
  -2  -5  -5 103.324 3.15847   6 
  -2  -5  -5 101.929 3.25936   2 
   2   5   5 107.103 3.13236   6 
   2   5   5 109.616 3.13988   6 
   2   5   5 102.772 2.96499   5 
   2   5   5 109.496 3.59250   4 
  -3  -5  -5 52.9078 1.76283   1 
  -3  -5  -5 52.7608 1.96609   3 
  -3  -5  -5 51.4537 1.96721   2 
  -3  -5  -5 51.7164 1.86616   6 
   3   5   5 52.9420 1.99059   3 
   3   5   5 54.7637 1.65179   5 
   3   5   5 53.3087 2.26482   4 
   3   5   5 56.3776 1.86379   6 
  -4  -5  -5 333.457 9.17310   2 
  -4  -5  -5 342.888 9.14931   6 
  -4  -5  -5 344.789 9.02194   1 
   4   5   5 340.714 8.81308   5 
   4   5   5 344.804 9.10364   6 
   4   5   5 334.425 9.57514   4 
   4   5   5 338.823 9.20529   3 
  -5  -5  -5 26.6665 1.27054   1 
  -5  -5  -5 26.6058 1.32299   2 
  -5  -5  -5 26.0565 1.29219   6 
   5   5   5 27.4231 1.07301   5 
   5   5   5 26.5082 1.71021   4 
   5   5   5 28.4282 1.29790   6 
   5   5   5 26.5005 1.35532   3 
  -6  -5  -5 323.229 8.78683   6 
  -6  -5  -5 311.861 8.69840   2 
  -6  -5  -5 318.039 8.71287   1 
   6   5   5 323.065 8.81642   3 
   6   5   5 312.532 9.30367   4 
   6   5   5 324.886 8.75996   6 
  -7  -5  -5 17.6468 1.16799   6 
  -7  -5  -5 17.5512 1.15735   1 
  -7  -5  -5 16.6365 1.07835   2 
   7   5   5 16.5592 1.26920   3 
   7   5   5 16.1697 1.58936   4 
   7   5   5 18.4557 1.17812   6 
   7   5   5 17.4415 0.99738   5 
  -8  -5  -5 94.7167 3.20736   2 
  -8  -5  -5 105.872 3.21852   5 
  -8  -5  -5 96.7267 3.43414   1 
   8   5   5 100.142 4.04917   4 
   8   5   5 102.804 3.47389   6 
   8   5   5 94.7843 3.43088   3 
  -9  -5  -5 30.5913 1.77458   1 
   9   5   5 28.9173 2.28426   4 
   9   5   5 29.8212 1.78635   3 
 -10  -5  -5 73.1693 3.02657   1 
  10   5   5 71.0275 3.57774   4 
 -11  -5  -5 69.4818 3.09399   1 
  11   5   5 73.1625 3.77230   4 
 -12  -5  -5 60.1988 2.93827   1 
  12   5   5 60.8200 3.63863   4 
 -13  -5  -5 13.4279 1.53867   1 
  13   5   5 11.5990 1.85027   4 
   9  -6  -5 76.9025 4.11550   4 
   9  -6  -5 73.2317 3.04836   6 
   9  -6  -5 74.8131 3.72431   3 
  -9   6   5 73.9276 3.60227   5 
   8  -6  -5 2.91758 0.78913   6 
   8  -6  -5 3.42649 1.27325   4 
   8  -6  -5 4.02462 1.12849   3 
  -8   6   5 3.55067 1.02590   5 
   7  -6  -5 133.077 4.31620   6 
   7  -6  -5 129.733 5.32739   4 
   7  -6  -5 135.340 5.02808   3 
  -7   6   5 127.411 4.82067   5 
   6  -6  -5 29.4888 1.52472   6 
   6  -6  -5 27.1113 2.02442   3 
   6  -6  -5 29.3312 2.22724   4 
  -6   6   5 28.1199 1.91620   5 
   5  -6  -5 116.011 3.63512   6 
   5  -6  -5 109.380 4.44107   4 
   5  -6  -5 107.983 4.23488   3 
  -5   6   5 117.446 4.12597   5 
  -5   6   5 112.763 4.49378   4 
   4  -6  -5 53.2605 1.99102   6 
   4  -6  -5 54.1652 2.71920   4 
   4  -6  -5 51.3111 2.01529   2 
   4  -6  -5 50.7803 2.54664   3 
  -4   6   5 52.9168 2.38434   5 
  -4   6   5 52.9856 2.71165   4 
   3  -6  -5 36.7672 1.62867   2 
   3  -6  -5 34.5367 2.04367   3 
   3  -6  -5 37.4396 1.53185   6 
   3  -6  -5 35.9692 2.10614   4 
  -3   6   5 37.9357 1.85571   5 
  -3   6   5 37.9228 2.15510   4 
   2  -6  -5 1.62906 0.41747   6 
   2  -6  -5 2.05575 0.53119   2 
   2  -6  -5 1.12101 0.59206   3 
  -2   6   5 2.09874 0.69245   4 
  -2   6   5 1.60606 0.52059   5 
   1  -6  -5 365.024 10.3838   3 
   1  -6  -5 380.116 9.93776   6 
   1  -6  -5 383.779 10.1141   2 
  -1   6   5 369.522 10.1123   5 
  -1   6   5 377.298 10.6069   4 
   0  -6  -5 175.087 4.69714   6 
   0  -6  -5 159.741 5.09042   3 
   0  -6  -5 159.209 4.70521   6 
   0  -6  -5 172.076 4.93884   2 
   0   6   5 163.753 4.77188   5 
   0   6   5 176.423 5.32867   4 
  -1  -6  -5 120.775 3.73845   2 
  -1  -6  -5 112.098 3.81708   3 
  -1  -6  -5 123.041 3.55280   6 
   1   6   5 121.734 3.47298   5 
   1   6   5 123.521 4.07649   4 
  -2  -6  -5 4.21725 0.60430   2 
  -2  -6  -5 3.95284 0.41453   1 
  -2  -6  -5 4.02079 0.58676   3 
  -2  -6  -5 3.58773 0.45220   6 
   2   6   5 4.22129 0.42761   6 
   2   6   5 4.41524 0.37792   5 
   2   6   5 3.53444 0.72868   4 
  -3  -6  -5 219.618 6.33664   3 
  -3  -6  -5 210.754 6.11527   6 
  -3  -6  -5 222.917 6.30511   2 
  -3  -6  -5 221.285 6.01694   1 
   3   6   5 230.364 6.11050   6 
   3   6   5 224.676 6.65460   4 
  -4  -6  -5 29.3661 1.45761   2 
  -4  -6  -5 29.2097 1.32257   6 
  -4  -6  -5 29.5632 1.28059   1 
   4   6   5 30.1496 1.27623   6 
   4   6   5 27.1645 0.96463   5 
   4   6   5 30.3168 1.50394   3 
   4   6   5 24.0603 1.65064   4 
  -5  -6  -5 490.518 13.2064   2 
  -5  -6  -5 472.748 13.1046   6 
  -5  -6  -5 506.850 13.0779   1 
   5   6   5 507.026 13.3010   3 
   5   6   5 516.285 13.1326   6 
   5   6   5 484.976 13.6324   4 
  -6  -6  -5 16.3202 1.07887   6 
  -6  -6  -5 14.5094 1.07629   1 
  -6  -6  -5 15.1688 1.13831   2 
   6   6   5 13.7897 1.33474   4 
   6   6   5 14.8750 1.21937   3 
  -7  -6  -5 102.885 3.42745   6 
  -7  -6  -5 96.3006 3.34844   1 
  -7  -6  -5 97.7192 3.32860   2 
   7   6   5 103.052 3.53221   3 
   7   6   5 99.9771 3.92021   4 
  -8  -6  -5 50.8511 2.20811   1 
  -8  -6  -5 49.8239 2.09764   2 
   8   6   5 48.5017 2.26504   3 
   8   6   5 48.7219 2.70452   4 
  -9  -6  -5 102.434 3.75714   1 
   9   6   5 108.389 4.40851   4 
   9   6   5 109.624 3.88160   3 
 -10  -6  -5 20.4679 1.59572   1 
  10   6   5 17.4258 1.87091   4 
  10   6   5 19.3009 1.68547   3 
 -11  -6  -5 48.5831 2.51683   1 
  11   6   5 49.3917 3.06095   4 
 -12  -6  -5 16.0277 1.59272   1 
  12   6   5 18.3204 2.10316   4 
 -13  -6  -5 16.3373 1.64016   1 
  13   6   5 16.8379 2.10485   4 
   8  -7  -5 67.3104 3.77485   4 
   8  -7  -5 62.3990 2.66254   6 
   8  -7  -5 63.7439 3.45325   3 
  -8   7   5 68.2906 3.31993   5 
   7  -7  -5 19.4717 1.32494   6 
   7  -7  -5 21.1153 1.99314   3 
   7  -7  -5 15.1844 1.86264   4 
  -7   7   5 17.8579 1.66623   5 
  -7   7   5 21.6790 2.16684   4 
   6  -7  -5 174.936 6.04548   3 
   6  -7  -5 170.204 6.34460   4 
   6  -7  -5 163.940 5.14290   6 
  -6   7   5 170.220 6.36072   4 
  -6   7   5 173.383 5.84621   5 
   5  -7  -5 8.95085 0.82434   6 
   5  -7  -5 9.04311 1.27613   3 
   5  -7  -5 6.97691 1.24164   4 
  -5   7   5 8.98629 1.38631   4 
  -5   7   5 8.05461 1.09284   5 
   4  -7  -5 225.040 6.39320   6 
   4  -7  -5 225.484 7.44295   4 
   4  -7  -5 226.640 7.18178   3 
  -4   7   5 227.764 7.46438   4 
  -4   7   5 231.571 6.98265   5 
   3  -7  -5 31.1256 1.52065   2 
   3  -7  -5 29.0481 1.95131   3 
   3  -7  -5 30.2467 1.35862   6 
  -3   7   5 31.0893 1.76785   5 
  -3   7   5 28.6335 2.00430   4 
   2  -7  -5 101.439 3.35297   2 
   2  -7  -5 103.331 3.74974   3 
   2  -7  -5 99.1618 3.10591   6 
  -2   7   5 104.549 3.49924   5 
  -2   7   5 96.2850 3.86306   4 
   1  -7  -5 103.757 3.31602   2 
   1  -7  -5 97.0363 3.56235   3 
   1  -7  -5 98.7050 3.02283   6 
  -1   7   5 92.7232 3.66652   4 
  -1   7   5 97.3618 3.26485   5 
   0  -7  -5 184.150 5.10992   6 
   0  -7  -5 187.716 5.41870   2 
   0  -7  -5 170.551 5.55375   3 
   0   7   5 178.680 5.20844   5 
   0   7   5 187.329 5.82064   4 
  -1  -7  -5 27.9314 1.59549   3 
  -1  -7  -5 29.6363 1.28381   6 
  -1  -7  -5 31.7856 1.04739   1 
  -1  -7  -5 30.3193 1.53876   2 
   1   7   5 31.6607 1.81107   4 
   1   7   5 29.5497 1.28651   5 
  -2  -7  -5 452.475 11.6761   1 
  -2  -7  -5 455.241 11.8622   6 
  -2  -7  -5 448.013 12.1439   2 
  -2  -7  -5 435.932 12.2138   3 
   2   7   5 457.013 11.6396   5 
   2   7   5 458.930 12.4751   4 
  -3  -7  -5 42.4268 1.87937   2 
  -3  -7  -5 45.3551 1.97093   3 
  -3  -7  -5 43.6228 1.61596   1 
  -3  -7  -5 42.5220 1.67630   6 
   3   7   5 45.6333 2.22991   4 
  -4  -7  -5 555.684 14.7798   2 
  -4  -7  -5 540.149 14.5491   6 
  -4  -7  -5 552.587 14.4878   1 
   4   7   5 560.052 15.1236   4 
   4   7   5 569.384 14.8745   3 
  -5  -7  -5 9.77936 0.82529   1 
  -5  -7  -5 10.4121 0.94575   2 
  -5  -7  -5 9.06688 0.78738   6 
   5   7   5 8.50329 1.15303   4 
   5   7   5 10.9034 1.00712   3 
  -6  -7  -5 302.145 8.35170   1 
  -6  -7  -5 304.252 8.37701   6 
  -6  -7  -5 300.365 8.45830   2 
   6   7   5 304.495 8.59802   3 
   6   7   5 291.864 8.88509   4 
  -7  -7  -5 59.8014 2.41849   2 
  -7  -7  -5 59.4231 2.38654   6 
  -7  -7  -5 58.9219 2.36978   1 
   7   7   5 59.5711 2.88573   4 
   7   7   5 59.9690 2.56832   3 
  -8  -7  -5 261.325 7.74830   1 
  -8  -7  -5 276.829 7.74563   2 
  -8  -7  -5 280.142 7.80776   6 
   8   7   5 264.735 8.38261   4 
   8   7   5 260.366 7.92202   3 
  -9  -7  -5 -0.4972 0.61079   1 
  -9  -7  -5 -1.0058 0.49665   2 
   9   7   5 -0.9856 0.90647   4 
   9   7   5 -0.2179 0.70558   3 
 -10  -7  -5 75.6012 3.12912   1 
  10   7   5 75.4771 3.65781   4 
  10   7   5 76.6463 3.25079   3 
 -11  -7  -5 17.5316 1.54062   1 
  11   7   5 16.4673 1.87297   4 
 -12  -7  -5 89.2201 3.80892   1 
  12   7   5 89.5133 4.35728   4 
 -13  -7  -5 4.28547 1.10901   1 
  13   7   5 4.89102 1.50615   4 
   7  -8  -5 103.734 4.51619   3 
   7  -8  -5 100.544 3.52348   6 
   7  -8  -5 102.297 4.84259   4 
  -7   8   5 100.368 4.26706   5 
  -7   8   5 103.516 4.85758   4 
   6  -8  -5 14.2411 1.63106   3 
   6  -8  -5 14.5922 1.77458   4 
   6  -8  -5 15.6918 1.15605   6 
  -6   8   5 14.4327 1.48365   5 
  -6   8   5 15.0949 1.81650   4 
   5  -8  -5 121.040 3.85371   6 
   5  -8  -5 117.405 4.98919   4 
   5  -8  -5 123.813 4.79738   3 
  -5   8   5 124.000 4.56568   5 
  -5   8   5 125.650 5.09547   4 
   4  -8  -5 2.76561 0.98795   4 
   4  -8  -5 4.34986 1.01024   3 
   4  -8  -5 4.35700 0.60383   6 
  -4   8   5 3.34167 0.84028   5 
  -4   8   5 3.71187 1.08918   4 
   3  -8  -5 200.565 6.49375   3 
   3  -8  -5 201.528 5.91481   2 
   3  -8  -5 195.317 5.59870   6 
  -3   8   5 190.106 6.65314   4 
  -3   8   5 202.232 6.19586   5 
   2  -8  -5 24.2777 1.16727   6 
   2  -8  -5 23.0977 1.73045   3 
   2  -8  -5 21.3450 1.39659   2 
  -2   8   5 23.4111 1.54754   5 
  -2   8   5 22.2633 1.77422   4 
   1  -8  -5 75.7940 3.05614   3 
   1  -8  -5 72.9860 2.74559   2 
   1  -8  -5 73.3256 2.42150   6 
  -1   8   5 70.3624 2.68749   5 
  -1   8   5 73.8669 3.19516   4 
   0  -8  -5 74.0681 2.41781   6 
   0  -8  -5 72.7733 2.95377   3 
   0  -8  -5 74.3213 2.73870   2 
   0   8   5 71.7246 3.09375   4 
   0   8   5 73.1242 2.56106   5 
  -1  -8  -5 142.447 4.13654   6 
  -1  -8  -5 145.753 4.51242   2 
  -1  -8  -5 137.073 4.64168   3 
   1   8   5 141.951 4.86329   4 
   1   8   5 140.679 4.11611   5 
  -2  -8  -5 51.7591 1.67050   1 
  -2  -8  -5 48.2386 1.81808   6 
  -2  -8  -5 51.3874 2.25788   3 
  -2  -8  -5 47.5767 2.11677   2 
   2   8   5 46.0117 2.37906   4 
  -3  -8  -5 480.619 12.4801   3 
  -3  -8  -5 424.805 11.9375   6 
  -3  -8  -5 454.124 11.8624   1 
  -3  -8  -5 465.825 12.3343   2 
   3   8   5 439.322 12.5750   4 
  -4  -8  -5 50.4414 2.22607   2 
  -4  -8  -5 52.4422 2.31436   3 
  -4  -8  -5 52.4931 2.00281   6 
  -4  -8  -5 55.2365 1.99952   1 
   4   8   5 55.2055 2.60772   4 
   4   8   5 53.1316 2.36193   3 
  -5  -8  -5 243.416 7.09739   2 
  -5  -8  -5 230.347 6.82101   6 
  -5  -8  -5 247.355 6.86626   1 
   5   8   5 251.847 7.25470   3 
   5   8   5 240.521 7.41515   4 
  -6  -8  -5 103.240 3.37580   6 
  -6  -8  -5 99.4995 3.53921   2 
  -6  -8  -5 100.384 3.37435   1 
   6   8   5 100.082 3.65529   3 
   6   8   5 97.8404 3.88143   4 
  -7  -8  -5 115.381 3.81946   6 
  -7  -8  -5 113.048 3.80394   1 
  -7  -8  -5 109.046 3.86788   2 
   7   8   5 115.066 4.33945   4 
   7   8   5 113.144 4.04911   3 
  -8  -8  -5 0.74224 0.64558   1 
  -8  -8  -5 0.22060 0.55282   6 
  -8  -8  -5 0.49825 0.64855   2 
   8   8   5 0.25888 0.91417   4 
   8   8   5 1.20876 0.78903   3 
  -9  -8  -5 109.741 4.01102   1 
  -9  -8  -5 119.999 4.04992   2 
   9   8   5 114.936 4.25354   3 
   9   8   5 112.258 4.55404   4 
 -10  -8  -5 -0.0271 0.68301   1 
  10   8   5 -0.5698 0.75690   3 
  10   8   5 0.16360 1.04312   4 
 -11  -8  -5 25.5179 1.85265   1 
  11   8   5 26.3561 2.26937   4 
  11   8   5 25.1714 1.97892   3 
 -12  -8  -5 8.59531 1.30303   1 
  12   8   5 8.12871 1.64127   4 
 -13  -8  -5 24.6804 2.07181   1 
  13   8   5 25.8879 2.46900   4 
   7  -9  -5 1.93798 1.04190   3 
  -7   9   5 0.48785 0.83627   5 
   6  -9  -5 61.9339 3.58612   4 
   6  -9  -5 59.3717 2.33475   6 
   6  -9  -5 59.0820 3.33910   3 
  -6   9   5 59.8967 3.11503   5 
  -6   9   5 62.5999 3.57604   4 
   5  -9  -5 25.6217 1.38463   6 
   5  -9  -5 29.4665 2.19588   3 
   5  -9  -5 26.3603 2.31371   4 
  -5   9   5 25.4991 1.95021   5 
  -5   9   5 23.4848 2.22968   4 
   4  -9  -5 71.3212 3.39102   3 
   4  -9  -5 69.5835 2.45402   6 
  -4   9   5 68.4750 3.54133   4 
  -4   9   5 67.0799 3.06481   5 
   3  -9  -5 4.63167 0.59858   6 
   3  -9  -5 4.19908 1.02874   3 
  -3   9   5 4.60060 1.09086   4 
  -3   9   5 2.21613 0.77695   5 
   2  -9  -5 238.647 6.73230   6 
   2  -9  -5 243.186 7.66391   3 
   2  -9  -5 253.224 7.23308   2 
  -2   9   5 231.940 7.83290   4 
  -2   9   5 253.284 7.33055   5 
   1  -9  -5 21.5245 1.10386   6 
   1  -9  -5 19.8395 1.46069   2 
   1  -9  -5 22.1421 1.67955   3 
  -1   9   5 20.0528 1.72987   4 
  -1   9   5 21.4424 1.42663   5 
   0  -9  -5 44.1759 2.29341   3 
   0  -9  -5 46.9970 1.73712   6 
   0  -9  -5 47.4482 2.15272   2 
   0   9   5 44.1532 2.45092   4 
  -1  -9  -5 193.883 5.77895   2 
  -1  -9  -5 187.567 5.27224   6 
  -1  -9  -5 183.446 5.93401   3 
   1   9   5 178.481 6.08222   4 
  -2  -9  -5 89.3080 3.45260   3 
  -2  -9  -5 88.2064 3.30704   2 
  -2  -9  -5 92.3882 2.91517   6 
   2   9   5 93.2554 3.66499   4 
  -3  -9  -5 58.8571 2.51096   2 
  -3  -9  -5 56.1521 2.11568   6 
  -3  -9  -5 60.9120 2.61264   3 
  -3  -9  -5 60.3525 2.06181   1 
   3   9   5 55.0359 2.76339   4 
  -4  -9  -5 367.218 9.98973   6 
  -4  -9  -5 374.969 9.94543   1 
  -4  -9  -5 365.642 10.3706   2 
  -4  -9  -5 381.028 10.5344   3 
   4   9   5 361.216 10.6638   4 
   4   9   5 368.414 10.5112   3 
  -5  -9  -5 -0.3008 0.48351   1 
  -5  -9  -5 -0.0114 0.62303   2 
  -5  -9  -5 1.90387 0.52539   6 
   5   9   5 0.92312 0.69138   3 
   5   9   5 0.03292 0.81659   4 
  -6  -9  -5 195.968 6.06542   2 
  -6  -9  -5 195.176 5.79824   6 
  -6  -9  -5 201.130 5.84985   1 
   6   9   5 190.719 6.36928   4 
   6   9   5 195.686 6.21016   3 
  -7  -9  -5 153.340 4.78305   6 
  -7  -9  -5 154.284 4.82665   1 
  -7  -9  -5 148.203 4.93184   2 
   7   9   5 152.370 5.16516   3 
   7   9   5 145.666 5.31138   4 
  -8  -9  -5 79.7107 3.15100   1 
  -8  -9  -5 85.2515 3.15196   6 
  -8  -9  -5 87.5716 3.33486   2 
   8   9   5 81.5797 3.42123   3 
   8   9   5 82.7057 3.69141   4 
  -9  -9  -5 0.38084 0.73172   2 
  -9  -9  -5 0.62008 0.72434   1 
  -9  -9  -5 1.91127 0.72297   6 
   9   9   5 -0.0281 0.96636   4 
   9   9   5 1.38955 0.83426   3 
 -10  -9  -5 39.2112 2.17725   1 
 -10  -9  -5 39.2962 2.19604   2 
  10   9   5 36.0079 2.54628   4 
  10   9   5 35.4003 2.26869   3 
 -11  -9  -5 -0.5052 0.68782   1 
  11   9   5 -1.2058 1.00680   4 
  11   9   5 1.24133 0.91977   3 
 -12  -9  -5 30.9722 2.17639   1 
  12   9   5 32.2976 2.25947   3 
  12   9   5 32.1887 2.60999   4 
 -13  -9  -5 8.33791 1.38366   1 
  13   9   5 9.68153 1.76026   4 
   6 -10  -5 0.18065 0.84533   3 
  -6  10   5 -0.3664 0.84231   5 
   5 -10  -5 123.767 3.87214   6 
   5 -10  -5 127.516 5.12452   3 
  -5  10   5 124.432 4.80944   5 
  -5  10   5 119.543 5.34222   4 
   4 -10  -5 28.8790 2.21224   3 
   4 -10  -5 31.1195 1.43815   6 
  -4  10   5 27.4375 2.37906   4 
  -4  10   5 26.6080 2.00503   5 
   3 -10  -5 50.0925 2.81466   3 
   3 -10  -5 54.8201 2.00375   6 
  -3  10   5 51.8361 3.03721   4 
  -3  10   5 55.5262 2.68152   5 
   2 -10  -5 10.4054 1.32220   3 
   2 -10  -5 10.1331 1.10953   2 
   2 -10  -5 8.38751 0.71570   6 
  -2  10   5 8.20597 1.36667   4 
   1 -10  -5 106.685 4.17502   3 
   1 -10  -5 109.952 3.88263   2 
   1 -10  -5 104.492 3.28005   6 
   0 -10  -5 3.69000 0.86409   2 
   0 -10  -5 4.98593 0.59056   6 
   0 -10  -5 5.02568 0.95821   3 
   0  10   5 3.89607 1.01833   4 
  -1 -10  -5 217.331 6.38398   2 
  -1 -10  -5 204.453 6.55524   3 
  -1 -10  -5 204.816 5.75434   6 
   1  10   5 191.475 6.67235   4 
  -2 -10  -5 32.9614 1.99336   3 
  -2 -10  -5 32.5048 1.90665   2 
  -2 -10  -5 35.9107 1.50232   6 
   2  10   5 31.3603 2.14663   4 
  -3 -10  -5 241.297 7.37223   3 
  -3 -10  -5 240.602 7.20078   2 
  -3 -10  -5 242.569 6.69788   6 
   3  10   5 230.955 7.48137   4 
   3  10   5 236.863 7.38458   3 
  -4 -10  -5 23.0638 1.66915   3 
  -4 -10  -5 23.9648 1.28208   6 
  -4 -10  -5 25.7866 1.31924   1 
  -4 -10  -5 22.1983 1.62298   2 
   4  10   5 23.8513 1.73571   3 
   4  10   5 22.9412 1.92098   4 
  -5 -10  -5 131.389 4.09859   1 
  -5 -10  -5 127.699 4.06344   6 
  -5 -10  -5 128.753 4.45618   2 
   5  10   5 131.270 4.62985   3 
   5  10   5 131.534 4.79504   4 
  -6 -10  -5 1.64390 0.56061   6 
  -6 -10  -5 1.18567 0.60648   1 
  -6 -10  -5 -0.1579 0.68912   2 
   6  10   5 0.08834 0.89016   4 
   6  10   5 1.28317 0.79144   3 
  -7 -10  -5 152.307 4.99268   6 
  -7 -10  -5 161.627 5.06992   1 
  -7 -10  -5 165.476 5.38896   2 
   7  10   5 162.100 5.49941   3 
   7  10   5 161.918 5.66500   4 
  -8 -10  -5 -0.4341 0.53588   6 
  -8 -10  -5 -0.9592 0.63280   2 
  -8 -10  -5 -1.1086 0.53664   1 
   8  10   5 -0.0847 0.77091   3 
   8  10   5 -0.1315 0.92923   4 
  -9 -10  -5 100.764 3.73648   6 
  -9 -10  -5 101.760 3.77824   1 
  -9 -10  -5 104.956 3.89873   2 
   9  10   5 94.4204 4.17155   4 
   9  10   5 99.4538 4.05300   3 
 -10 -10  -5 -0.2076 0.67132   2 
 -10 -10  -5 0.84688 0.75024   1 
  10  10   5 -1.5341 0.99072   4 
  10  10   5 -0.7361 0.82238   3 
 -11 -10  -5 38.5718 2.26097   1 
  11  10   5 34.5038 2.35967   3 
  11  10   5 32.4126 2.65531   4 
 -12 -10  -5 5.41463 1.16861   1 
  12  10   5 4.47770 1.47279   4 
  12  10   5 5.06780 1.24967   3 
   4 -11  -5 85.8651 2.89844   6 
   4 -11  -5 92.3283 4.17371   3 
  -4  11   5 90.8474 4.44295   4 
   3 -11  -5 46.6480 2.76121   3 
   3 -11  -5 44.9759 1.78113   6 
  -3  11   5 42.7556 2.93320   4 
   2 -11  -5 105.497 4.34443   3 
   2 -11  -5 106.567 3.25746   6 
  -2  11   5 99.3657 4.48435   4 
   1 -11  -5 9.74669 0.79607   6 
   1 -11  -5 8.56758 1.23768   3 
   1 -11  -5 8.44852 1.16073   2 
  -1  11   5 7.33529 1.31795   4 
   0 -11  -5 100.481 3.15837   6 
   0 -11  -5 105.889 3.87387   2 
   0 -11  -5 99.7928 4.08533   3 
   0  11   5 97.9079 4.20606   4 
  -1 -11  -5 1.41704 0.75642   2 
  -1 -11  -5 1.70850 0.78980   3 
  -1 -11  -5 2.72561 0.48837   6 
   1  11   5 3.01175 1.04094   4 
  -2 -11  -5 114.958 4.39366   3 
  -2 -11  -5 120.946 4.29432   2 
  -2 -11  -5 121.912 3.67125   6 
   2  11   5 114.433 4.57759   4 
  -3 -11  -5 10.3198 0.83334   6 
  -3 -11  -5 10.7157 1.22911   3 
  -3 -11  -5 9.72563 1.18908   2 
   3  11   5 9.61473 1.34577   4 
   3  11   5 11.2722 1.36940   3 
  -4 -11  -5 241.057 7.01778   6 
  -4 -11  -5 259.987 7.82966   3 
  -4 -11  -5 237.511 7.56105   2 
   4  11   5 260.542 7.88080   3 
   4  11   5 246.884 7.90013   4 
  -5 -11  -5 5.45937 0.69671   6 
  -5 -11  -5 3.23165 0.91624   2 
   5  11   5 2.74783 1.11395   4 
   5  11   5 4.15155 1.03473   3 
  -6 -11  -5 110.917 4.16177   2 
  -6 -11  -5 113.015 3.77301   1 
  -6 -11  -5 109.324 3.71904   6 
   6  11   5 112.045 4.31799   3 
   6  11   5 112.449 4.42131   4 
  -7 -11  -5 26.3849 1.90498   2 
  -7 -11  -5 27.2155 1.55954   6 
  -7 -11  -5 28.1012 1.67863   1 
   7  11   5 26.8020 2.14502   4 
   7  11   5 27.9604 2.04084   3 
  -8 -11  -5 56.4299 2.55358   1 
  -8 -11  -5 57.3816 2.50200   6 
  -8 -11  -5 56.0213 2.79977   2 
   8  11   5 54.4332 3.00754   4 
   8  11   5 59.2585 2.97574   3 
  -9 -11  -5 5.59300 1.00193   1 
  -9 -11  -5 6.46910 1.17828   2 
  -9 -11  -5 6.88726 0.99745   6 
   9  11   5 6.40764 1.24486   3 
   9  11   5 5.53990 1.37661   4 
 -10 -11  -5 20.0078 1.67139   1 
 -10 -11  -5 22.3091 1.84324   2 
 -10 -11  -5 23.0835 1.67342   6 
  10  11   5 21.5391 2.14868   4 
  10  11   5 20.9109 1.97061   3 
 -11 -11  -5 1.51693 0.88187   1 
  11  11   5 1.26413 1.25039   4 
  11  11   5 2.39346 1.08446   3 
 -12 -11  -5 15.6044 1.58273   1 
  12  11   5 14.0184 1.68970   3 
  13  11   5 9.00320 1.51431   3 
   3 -12  -5 7.86199 1.34265   3 
   3 -12  -5 5.54098 0.59663   6 
  -3  12   5 7.08158 1.49443   4 
   2 -12  -5 49.2835 2.92706   3 
   2 -12  -5 53.7201 1.89772   6 
  -2  12   5 47.8636 3.08601   4 
   1 -12  -5 83.6683 2.67238   6 
   1 -12  -5 81.0850 3.77975   3 
  -1  12   5 80.6305 3.94193   4 
   0 -12  -5 10.2057 1.33801   3 
   0 -12  -5 9.90759 1.28468   2 
   0 -12  -5 11.1628 0.80714   6 
   0  12   5 7.56199 1.41868   4 
  -1 -12  -5 84.5280 2.75724   6 
  -1 -12  -5 85.3833 3.72217   3 
  -1 -12  -5 88.8076 3.59160   2 
   1  12   5 76.4163 3.78536   4 
  -2 -12  -5 9.47391 1.27163   2 
  -2 -12  -5 10.6930 0.86251   6 
  -2 -12  -5 8.75357 1.19719   3 
   2  12   5 10.0819 1.44430   4 
  -3 -12  -5 116.826 4.30757   2 
  -3 -12  -5 112.514 3.56818   6 
  -3 -12  -5 110.552 4.36698   3 
   3  12   5 107.489 4.51757   4 
   3  12   5 114.614 4.48886   3 
  -4 -12  -5 5.11127 0.67634   6 
  -4 -12  -5 3.50514 0.99197   2 
   4  12   5 3.78299 1.15634   4 
   4  12   5 2.93459 1.05256   3 
  -5 -12  -5 57.7314 2.77479   2 
  -5 -12  -5 52.0056 2.18851   6 
   5  12   5 55.9962 2.93356   3 
   5  12   5 55.8803 3.01972   4 
  -6 -12  -5 2.47030 0.89938   2 
  -6 -12  -5 3.05697 0.67453   6 
   6  12   5 2.17421 0.94856   3 
   6  12   5 1.12342 1.05399   4 
  -7 -12  -5 141.281 4.57337   1 
  -7 -12  -5 133.977 4.44982   6 
  -7 -12  -5 132.291 4.94149   2 
   7  12   5 135.988 5.13010   3 
   7  12   5 134.077 5.16088   4 
  -8 -12  -5 45.1853 2.19693   6 
  -8 -12  -5 44.1546 2.55902   2 
   8  12   5 43.9279 2.69701   3 
   8  12   5 44.5171 2.82945   4 
  -9 -12  -5 9.71855 1.14165   6 
  -9 -12  -5 9.19877 1.33332   2 
  -9 -12  -5 9.30475 1.16102   1 
   9  12   5 9.01402 1.55474   4 
   9  12   5 8.73230 1.42780   3 
 -10 -12  -5 78.1119 3.32136   1 
 -10 -12  -5 78.1455 3.27320   6 
 -10 -12  -5 77.6207 3.56829   2 
  10  12   5 74.0473 3.68014   3 
 -11 -12  -5 13.3673 1.49409   2 
 -11 -12  -5 12.8597 1.47016   1 
  11  12   5 11.6635 1.64088   3 
 -12 -12  -5 5.93003 1.21419   1 
  12  12   5 6.61854 1.38282   3 
   2 -13  -5 92.6370 2.84282   6 
   1 -13  -5 3.15515 0.46706   6 
   1 -13  -5 3.38205 1.05802   3 
  -1  13   5 2.16955 1.13543   4 
   0 -13  -5 42.4614 2.69015   3 
   0 -13  -5 44.5237 1.68850   6 
   0 -13  -5 42.3746 2.48753   2 
   0  13   5 45.4248 2.92076   4 
  -1 -13  -5 26.7974 2.05390   2 
  -1 -13  -5 28.2062 2.14909   3 
  -1 -13  -5 28.8500 1.29620   6 
   1  13   5 23.3862 2.19737   4 
  -2 -13  -5 9.63139 0.79250   6 
  -2 -13  -5 8.62500 1.27012   2 
  -2 -13  -5 10.9401 1.37921   3 
   2  13   5 8.95955 1.46612   3 
   2  13   5 8.18397 1.43668   4 
  -3 -13  -5 0.76164 0.78404   2 
  -3 -13  -5 0.35427 0.39617   6 
  -3 -13  -5 -0.2202 0.68759   3 
   3  13   5 -0.2548 0.96766   4 
   3  13   5 -1.1902 0.78473   3 
  -4 -13  -5 225.368 6.42167   6 
  -4 -13  -5 232.334 7.32815   2 
   4  13   5 210.957 7.46603   4 
   4  13   5 219.996 7.48758   3 
  -5 -13  -5 0.03302 0.49659   6 
  -5 -13  -5 -0.5048 0.75951   2 
   5  13   5 -0.0513 0.85448   3 
   5  13   5 -1.8147 1.04245   4 
  -6 -13  -5 70.7188 2.77678   6 
  -6 -13  -5 77.0302 3.45337   2 
   6  13   5 75.5087 3.61740   3 
   6  13   5 72.5439 3.62597   4 
  -7 -13  -5 0.27287 0.53655   6 
  -7 -13  -5 -1.2385 0.79300   2 
   7  13   5 0.19704 0.91631   3 
   7  13   5 -1.0044 1.03688   4 
  -8 -13  -5 67.4021 3.29114   2 
  -8 -13  -5 66.8959 2.80947   6 
   8  13   5 66.2710 3.44632   3 
  -9 -13  -5 21.7878 1.61496   6 
  -9 -13  -5 19.8562 1.64836   1 
  -9 -13  -5 19.0561 1.87239   2 
   9  13   5 24.8908 2.19935   3 
 -10 -13  -5 32.5136 2.06928   6 
 -10 -13  -5 34.5125 2.41270   2 
 -10 -13  -5 33.3491 2.07814   1 
  10  13   5 33.2355 2.53828   3 
 -11 -13  -5 -0.4484 0.72395   1 
 -11 -13  -5 -2.0129 0.64481   6 
 -11 -13  -5 0.08794 0.95176   2 
  11  13   5 0.82665 1.31318   3 
   0 -14  -5 -0.5931 0.31216   6 
   0  14   5 0.03670 1.01117   4 
  -1 -14  -5 54.9547 3.13397   3 
  -1 -14  -5 56.8641 1.97575   6 
  -1 -14  -5 56.3514 3.00065   2 
   1  14   5 54.0372 3.27194   3 
   1  14   5 53.1216 3.28576   4 
  -2 -14  -5 19.6714 1.11222   6 
  -2 -14  -5 18.6183 1.80759   3 
  -2 -14  -5 19.9669 1.79594   2 
   2  14   5 17.4956 1.96571   4 
   2  14   5 18.6992 1.96165   3 
  -3 -14  -5 101.610 3.27296   6 
  -3 -14  -5 104.199 4.30681   2 
  -3 -14  -5 97.7129 4.33968   3 
   3  14   5 104.082 4.51643   3 
   3  14   5 92.0911 4.41796   4 
  -4 -14  -5 4.01096 1.09778   2 
  -4 -14  -5 4.37012 0.68365   6 
   4  14   5 3.29450 1.30197   4 
   4  14   5 3.39283 1.18756   3 
  -5 -14  -5 39.9904 2.54259   2 
  -5 -14  -5 38.4050 1.80648   6 
   5  14   5 33.5659 2.63117   4 
   5  14   5 37.3959 2.63813   3 
  -6 -14  -5 10.3245 0.99021   6 
  -6 -14  -5 9.26919 1.41876   2 
   6  14   5 9.51986 1.54030   3 
   6  14   5 8.81696 1.58256   4 
  -7 -14  -5 60.9525 2.62478   6 
  -7 -14  -5 68.4020 3.37743   2 
   7  14   5 60.7000 3.36362   3 
  -8 -14  -5 10.8699 1.12949   6 
  -8 -14  -5 10.5286 1.51532   2 
   8  14   5 11.5335 1.65981   3 
  -9 -14  -5 49.5835 2.90159   2 
  -9 -14  -5 48.3245 2.41084   6 
   9  14   5 46.8232 3.05642   3 
 -10 -14  -5 2.78669 0.85871   6 
 -10 -14  -5 0.29968 0.96866   2 
 -11 -14  -5 76.8818 3.46166   1 
  -2 -15  -5 76.7435 3.63270   2 
   2  15   5 65.6050 3.77292   4 
  -3 -15  -5 8.78633 1.45671   2 
   3  15   5 9.88667 1.73203   4 
  -4 -15  -5 52.8552 3.02765   2 
  -5 -15  -5 20.2372 1.35425   6 
  -5 -15  -5 20.0234 1.89843   2 
  -6 -15  -5 10.0561 1.49057   2 
   8  12  -6 53.9118 3.16154   3 
  -6 -12   6 42.1047 2.57368   1 
   5  12  -6 -0.1078 0.80680   2 
  -5 -12   6 -0.0100 0.37182   6 
  -5 -12   6 -0.3220 0.71644   1 
   4  12  -6 78.6217 3.74526   2 
  -4 -12   6 75.3436 2.46109   6 
  -4 -12   6 76.9217 3.51523   1 
   3  12  -6 3.33027 1.05707   2 
  -3 -12   6 2.25616 0.90791   1 
   2  12  -6 12.2714 1.60269   2 
   9  11  -6 56.2406 3.19955   3 
   9  11  -6 55.7703 3.08766   2 
  -9 -11   6 58.0266 2.60183   6 
  -9 -11   6 51.4867 2.84475   1 
   8  11  -6 0.55024 0.97862   2 
   8  11  -6 -1.8034 0.91423   3 
  -8 -11   6 -0.7213 0.50798   6 
  -8 -11   6 0.81419 0.75308   1 
   7  11  -6 33.9983 2.40811   2 
   7  11  -6 36.6987 2.52299   3 
  -7 -11   6 32.3533 1.75777   6 
  -7 -11   6 34.8909 2.25636   1 
   6  11  -6 24.0061 1.96200   2 
  -6 -11   6 18.2226 1.26793   6 
  -6 -11   6 21.6290 1.80101   1 
   5  11  -6 20.7132 1.86727   2 
  -5 -11   6 20.7799 1.24283   6 
   4  11  -6 36.2489 2.44554   2 
  -4 -11   6 33.9935 2.19179   1 
  -4 -11   6 34.6662 1.49240   6 
   3  11  -6 146.600 5.35879   2 
  -3 -11   6 134.988 3.92950   6 
  -3 -11   6 134.183 5.01793   1 
   2  11  -6 -0.0677 0.80411   2 
  -2 -11   6 -0.0523 0.67468   1 
   1  11  -6 94.3408 4.07568   2 
  -1 -11   6 90.1084 3.82551   1 
   0  11  -6 3.22961 1.09121   1 
   0 -11   6 5.38949 1.03283   1 
  11  10  -6 0.41102 0.90705   2 
 -11 -10   6 -0.7667 0.60113   6 
  10  10  -6 94.1218 4.12276   2 
  10  10  -6 101.969 4.52129   3 
 -10 -10   6 98.3467 4.10894   1 
 -10 -10   6 96.3106 3.78973   6 
   9  10  -6 -0.1656 0.84790   2 
   9  10  -6 -1.0387 0.95606   3 
  -9 -10   6 0.16878 0.57283   6 
  -9 -10   6 0.20779 0.75729   1 
   8  10  -6 22.0328 1.94104   2 
   8  10  -6 24.1863 2.14079   3 
  -8 -10   6 24.6525 1.59361   6 
  -8 -10   6 26.4759 1.93365   1 
   7  10  -6 13.7274 1.60517   3 
   7  10  -6 13.0066 1.52600   2 
  -7 -10   6 15.1290 1.46492   1 
  -7 -10   6 12.6573 1.11560   6 
   6  10  -6 26.8392 2.07380   3 
   6  10  -6 23.8980 1.97519   2 
  -6 -10   6 23.3554 1.81572   1 
  -6 -10   6 24.5759 1.40217   6 
   5  10  -6 2.73212 0.98678   2 
  -5 -10   6 3.31583 0.63419   6 
  -5 -10   6 4.16925 1.03128   1 
   4  10  -6 172.430 5.97282   2 
  -4 -10   6 169.849 4.92447   6 
  -4 -10   6 162.737 5.70029   1 
   3  10  -6 31.9709 2.21164   2 
  -3 -10   6 31.1955 1.99264   1 
  -3 -10   6 28.9884 1.28790   6 
   2  10  -6 71.6035 3.32440   2 
  -2 -10   6 69.0301 3.11389   1 
  -2 -10   6 68.1389 2.14720   6 
   1  10  -6 68.6252 3.26721   2 
  -1 -10   6 70.2696 3.10366   1 
  -1 -10   6 64.7598 2.91335   5 
   0  10  -6 116.607 4.47677   2 
   0  10  -6 107.813 4.38505   1 
   0 -10   6 109.063 4.18429   5 
   0 -10   6 113.785 4.32424   1 
  -1  10  -6 6.11056 1.17445   1 
   1 -10   6 4.66191 0.94880   5 
  -2  10  -6 134.335 5.06866   1 
   2 -10   6 130.348 4.95571   5 
  11   9  -6 24.5225 1.94167   2 
  11   9  -6 20.8041 2.11248   3 
 -11  -9   6 24.2153 1.80060   6 
 -11  -9   6 22.7997 1.91005   1 
  10   9  -6 2.93503 1.03892   2 
  10   9  -6 4.34167 1.31769   3 
 -10  -9   6 3.45482 0.99535   1 
 -10  -9   6 2.85039 0.87319   6 
   9   9  -6 43.7382 2.55213   2 
   9   9  -6 42.1518 2.79097   3 
  -9  -9   6 43.4491 2.45518   1 
  -9  -9   6 45.7268 2.26849   6 
   8   9  -6 0.49268 0.80681   2 
   8   9  -6 0.65449 0.97136   3 
  -8  -9   6 0.89169 0.78215   1 
  -8  -9   6 0.62814 0.60009   6 
   7   9  -6 118.338 4.51620   3 
   7   9  -6 115.261 4.44775   2 
  -7  -9   6 113.816 3.91140   6 
  -7  -9   6 108.795 4.26784   1 
   6   9  -6 18.3688 1.74936   3 
   6   9  -6 16.5262 1.58396   2 
  -6  -9   6 17.5071 1.20519   6 
  -6  -9   6 17.5377 1.51735   1 
   5   9  -6 94.9115 3.85414   2 
   5   9  -6 95.9307 3.76810   3 
  -5  -9   6 89.3517 3.12027   6 
  -5  -9   6 90.4393 3.62676   1 
   4   9  -6 10.1375 1.30960   2 
  -4  -9   6 10.0030 1.19083   1 
  -4  -9   6 9.72399 0.81800   6 
  -4  -9   6 10.2785 1.05123   5 
   3   9  -6 205.898 6.76714   2 
  -3  -9   6 205.820 6.57563   1 
  -3  -9   6 204.494 5.77646   6 
  -3  -9   6 209.385 6.31677   5 
   2   9  -6 90.3903 3.73523   2 
  -2  -9   6 88.7373 3.39821   5 
  -2  -9   6 88.3755 3.53924   1 
  -2  -9   6 91.4032 2.75965   6 
   1   9  -6 132.878 4.86208   2 
  -1  -9   6 135.893 4.71684   1 
  -1  -9   6 129.564 3.68120   6 
   0   9  -6 1.39991 0.79182   2 
   0  -9   6 1.18391 0.68622   5 
   0  -9   6 1.58960 0.70964   1 
  -1   9  -6 126.877 4.61250   2 
  -1   9  -6 123.740 4.66291   1 
   1  -9   6 129.954 4.61478   1 
   1  -9   6 121.170 4.53035   5 
  -2   9  -6 2.42104 0.94985   1 
   2  -9   6 2.31415 0.81723   5 
  -3   9  -6 97.1060 4.02491   1 
   3  -9   6 90.3654 3.89131   5 
  -4   9  -6 16.4064 1.63993   1 
 -12  -8   6 15.1242 1.58797   1 
  11   8  -6 8.45140 1.53858   3 
 -11  -8   6 9.91253 1.39052   1 
  10   8  -6 35.8812 2.26337   2 
  10   8  -6 39.8267 2.65775   3 
 -10  -8   6 42.6563 2.41499   1 
 -10  -8   6 43.1910 2.26312   6 
   9   8  -6 2.51320 0.92201   2 
   9   8  -6 1.12048 1.03215   3 
  -9  -8   6 2.33077 0.87252   1 
  -9  -8   6 1.42448 0.73334   6 
   8   8  -6 105.075 4.20193   2 
   8   8  -6 112.749 4.43565   3 
  -8  -8   6 109.034 4.14675   1 
  -8  -8   6 112.728 3.94100   6 
   7   8  -6 23.6147 1.83740   2 
   7   8  -6 26.1381 1.99535   3 
  -7  -8   6 23.4031 1.70181   1 
  -7  -8   6 21.7241 1.46808   6 
   6   8  -6 114.138 4.19065   2 
   6   8  -6 108.778 4.12105   3 
  -6  -8   6 100.751 3.56342   6 
  -6  -8   6 101.145 3.91711   1 
  -6  -8   6 107.403 3.66073   5 
   5   8  -6 -0.0110 0.72242   3 
   5   8  -6 0.66850 0.75773   2 
  -5  -8   6 -0.1669 0.39988   6 
  -5  -8   6 -0.1856 0.49732   5 
  -5  -8   6 0.05902 0.61343   1 
   4   8  -6 176.731 5.49439   3 
   4   8  -6 163.636 5.57840   2 
  -4  -8   6 159.353 5.38134   1 
  -4  -8   6 164.180 5.15290   5 
  -4  -8   6 161.084 4.83999   6 
   3   8  -6 52.7546 2.65843   2 
  -3  -8   6 57.0833 2.56750   1 
  -3  -8   6 58.7461 2.45603   5 
  -3  -8   6 55.6128 2.01609   6 
   2   8  -6 117.031 4.33998   2 
  -2  -8   6 119.111 3.49834   6 
  -2  -8   6 119.057 4.20115   1 
  -2  -8   6 118.903 4.05567   5 
   1   8  -6 51.5799 2.52520   2 
  -1  -8   6 48.2801 1.66163   6 
  -1  -8   6 48.1568 2.28177   5 
  -1  -8   6 47.2635 2.36390   1 
   0   8  -6 124.699 4.47709   2 
   0  -8   6 120.972 3.44225   6 
   0  -8   6 123.285 4.30064   5 
   0  -8   6 124.241 4.38969   1 
  -1   8  -6 0.14785 0.61166   2 
  -1   8  -6 -0.3834 0.65572   1 
   1  -8   6 0.21071 0.55149   5 
   1  -8   6 0.34848 0.57220   1 
   1  -8   6 -0.0682 0.21581   6 
  -2   8  -6 116.621 4.43878   1 
   2  -8   6 120.590 4.40035   5 
  -3   8  -6 2.85928 0.96682   1 
   3  -8   6 3.55436 0.87617   5 
  -4   8  -6 70.3174 3.30675   1 
   4  -8   6 70.2250 3.29114   5 
  -5   8  -6 11.0837 1.43523   1 
  12   7  -6 13.5151 1.82306   3 
 -12  -7   6 12.7420 1.45585   1 
  11   7  -6 54.9760 3.17432   3 
 -11  -7   6 53.8536 2.80970   1 
  10   7  -6 1.96521 1.09624   3 
  10   7  -6 1.30083 0.87959   2 
 -10  -7   6 2.94079 0.98377   1 
 -10  -7   6 2.55519 0.87672   6 
   9   7  -6 82.4471 3.71572   3 
   9   7  -6 82.6931 3.44056   2 
  -9  -7   6 80.6529 3.38615   1 
  -9  -7   6 82.0511 3.27174   6 
   8   7  -6 4.93777 0.96789   2 
   8   7  -6 2.12568 1.06706   3 
  -8  -7   6 3.89215 0.93491   1 
  -8  -7   6 2.89269 0.75934   6 
  -8  -7   6 2.75471 0.73300   5 
   7   7  -6 195.411 6.29782   2 
   7   7  -6 200.251 6.40438   3 
  -7  -7   6 199.188 5.96198   6 
  -7  -7   6 191.653 6.16916   1 
  -7  -7   6 187.992 5.84172   5 
   6   7  -6 15.1163 1.43509   3 
   6   7  -6 14.6657 1.36098   2 
  -6  -7   6 16.7424 1.29890   6 
  -6  -7   6 15.8446 1.25034   5 
  -6  -7   6 16.2678 1.38661   1 
   5   7  -6 65.1696 2.82502   3 
   5   7  -6 62.9864 2.84777   2 
  -5  -7   6 66.0335 2.54243   5 
  -5  -7   6 63.5415 2.40063   6 
  -5  -7   6 63.2867 2.70171   1 
   4   7  -6 1.54507 0.71210   3 
   4   7  -6 0.26619 0.58492   2 
  -4  -7   6 1.73515 0.68753   1 
  -4  -7   6 1.48577 0.45889   6 
  -4  -7   6 1.90095 0.58565   5 
   3   7  -6 209.950 6.48998   2 
   3   7  -6 208.847 6.23294   3 
  -3  -7   6 202.635 6.27937   1 
  -3  -7   6 204.835 6.13692   5 
  -3  -7   6 200.752 5.75443   6 
   2   7  -6 168.749 5.47707   2 
  -2  -7   6 164.151 5.18096   5 
  -2  -7   6 166.641 5.29343   1 
  -2  -7   6 162.734 4.67478   6 
   1   7  -6 48.1537 2.37312   2 
  -1  -7   6 51.8436 2.23451   5 
  -1  -7   6 46.9057 1.67061   6 
  -1  -7   6 46.4863 2.23837   1 
   0   7  -6 7.17478 0.97640   2 
   0  -7   6 6.44246 0.94108   1 
   0  -7   6 7.80598 0.94233   5 
   0  -7   6 7.66637 0.57872   6 
  -1   7  -6 73.5898 3.07881   1 
  -1   7  -6 76.1703 3.00139   2 
   1  -7   6 70.6260 2.17056   6 
   1  -7   6 72.5799 2.95649   1 
   1  -7   6 68.2912 2.90904   5 
  -2   7  -6 21.4859 1.55271   2 
  -2   7  -6 20.9449 1.64614   1 
   2  -7   6 19.3683 1.52914   5 
   2  -7   6 20.3310 0.88705   6 
  -3   7  -6 128.867 4.51715   1 
   3  -7   6 117.276 4.37422   5 
   3  -7   6 115.626 3.38242   6 
  -4   7  -6 5.88170 1.09839   1 
   4  -7   6 5.26695 0.48375   6 
   4  -7   6 4.44577 1.08537   4 
   4  -7   6 4.70689 0.98844   5 
  -5   7  -6 135.236 4.89179   1 
   5  -7   6 132.943 4.93450   5 
   5  -7   6 133.887 5.28549   4 
   5  -7   6 122.595 3.76889   6 
  -6   7  -6 11.8428 1.41192   1 
   6  -7   6 9.80982 1.59015   4 
   6  -7   6 11.5588 1.43432   5 
   6  -7   6 13.1615 0.86282   6 
 -13  -6   6 2.94733 0.96810   1 
  12   6  -6 32.2315 2.63675   3 
 -12  -6   6 33.2432 2.17421   1 
  11   6  -6 5.80160 1.40767   3 
 -11  -6   6 7.36537 1.19244   1 
  10   6  -6 59.9709 3.17648   3 
 -10  -6   6 60.5555 2.82764   1 
   9   6  -6 7.36350 1.32046   3 
   9   6  -6 7.85850 1.10267   2 
  -9  -6   6 9.91823 1.21082   1 
  -9  -6   6 8.68570 1.09811   6 
  -9  -6   6 8.19103 0.97258   5 
   8   6  -6 221.600 6.89804   2 
   8   6  -6 222.880 7.17056   3 
  -8  -6   6 221.365 6.61658   5 
  -8  -6   6 223.053 6.86498   1 
  -8  -6   6 225.813 6.76821   6 
   7   6  -6 1.05060 0.88670   3 
   7   6  -6 0.48782 0.67326   2 
  -7  -6   6 2.41279 0.76069   1 
  -7  -6   6 1.64880 0.63950   6 
  -7  -6   6 1.46489 0.61337   5 
   6   6  -6 198.643 6.22552   3 
   6   6  -6 192.458 6.18162   2 
  -6  -6   6 196.421 5.87511   6 
  -6  -6   6 199.223 6.10287   1 
  -6  -6   6 198.447 5.88080   5 
   5   6  -6 7.50236 0.98051   2 
   5   6  -6 7.95381 1.08430   3 
  -5  -6   6 7.59046 0.77541   6 
  -5  -6   6 7.61716 0.85192   5 
  -5  -6   6 6.98654 0.91438   1 
   4   6  -6 63.8404 2.74289   2 
   4   6  -6 63.8358 2.64341   3 
  -4  -6   6 63.9396 2.48736   5 
  -4  -6   6 65.6825 2.31254   6 
  -4  -6   6 63.6327 2.58881   1 
   3   6  -6 31.5443 1.65389   3 
   3   6  -6 34.3259 1.87300   2 
  -3  -6   6 29.8487 1.65447   1 
  -3  -6   6 30.9693 1.36809   6 
  -3  -6   6 31.1397 1.61242   5 
   2   6  -6 113.260 4.09385   2 
   2   6  -6 120.057 3.84681   3 
  -2  -6   6 123.431 3.95251   5 
  -2  -6   6 118.074 3.99323   1 
  -2  -6   6 119.492 3.53384   6 
   1   6  -6 21.0290 1.50311   2 
  -1  -6   6 20.4042 1.40741   5 
  -1  -6   6 21.7481 1.01684   6 
  -1  -6   6 20.0133 1.41487   1 
   0   6  -6 560.682 14.9693   2 
   0  -6   6 538.340 14.1929   6 
   0  -6   6 550.092 14.8438   5 
   0  -6   6 555.979 14.9006   1 
  -1   6  -6 18.2579 1.38557   2 
  -1   6  -6 14.7267 1.32138   1 
   1  -6   6 17.0992 1.34133   5 
   1  -6   6 15.9097 0.81472   6 
   1  -6   6 17.3572 1.35341   1 
  -2   6  -6 111.093 3.79042   2 
  -2   6  -6 110.349 3.96195   1 
   2  -6   6 107.702 3.99145   4 
   2  -6   6 103.794 3.10174   6 
   2  -6   6 105.867 3.85829   5 
  -3   6  -6 20.4195 1.59970   1 
   3  -6   6 21.3873 1.80831   4 
   3  -6   6 21.0825 1.60635   5 
   3  -6   6 22.9607 1.00887   6 
  -4   6  -6 100.389 3.84052   1 
   4  -6   6 92.3462 2.92361   6 
   4  -6   6 101.179 4.12935   4 
   4  -6   6 95.0630 3.78653   5 
  -5   6  -6 13.3399 1.36190   1 
   5  -6   6 12.7552 1.60530   4 
   5  -6   6 12.9032 0.86332   6 
   5  -6   6 11.8856 1.37260   5 
  -6   6  -6 181.441 5.92215   1 
   6  -6   6 169.669 5.96643   5 
   6  -6   6 157.875 4.93024   6 
   6  -6   6 172.797 6.43414   4 
  -7   6  -6 -0.3640 0.68336   1 
   7  -6   6 0.75460 0.48526   6 
   7  -6   6 0.90928 0.93848   4 
  12   5  -6 2.13134 1.20517   3 
 -12  -5   6 1.17028 0.94996   1 
  11   5  -6 62.9603 3.37577   3 
 -11  -5   6 61.1675 2.81831   5 
 -11  -5   6 67.0804 2.97626   1 
  10   5  -6 -1.0398 0.91567   3 
 -10  -5   6 1.44055 0.71258   5 
 -10  -5   6 1.57227 0.78781   1 
   9   5  -6 58.0962 2.95764   3 
   9   5  -6 53.9731 2.49834   2 
  -9  -5   6 57.2951 2.50315   5 
  -9  -5   6 60.9615 2.65320   6 
  -9  -5   6 58.7705 2.62927   1 
   8   5  -6 41.0549 2.47377   3 
   8   5  -6 44.0178 2.17012   2 
  -8  -5   6 48.3084 2.18605   6 
  -8  -5   6 40.8767 2.02876   5 
  -8  -5   6 44.5189 2.19049   1 
   7   5  -6 70.5774 3.06893   3 
   7   5  -6 68.6297 2.82557   2 
  -7  -5   6 69.0296 2.79930   1 
  -7  -5   6 68.5846 2.72139   6 
  -7  -5   6 70.1387 2.67543   5 
   6   5  -6 24.2393 1.66171   3 
   6   5  -6 23.3719 1.55318   2 
  -6  -5   6 23.5447 1.50214   1 
  -6  -5   6 22.6622 1.40975   5 
  -6  -5   6 22.9508 1.37042   6 
   5   5  -6 179.669 5.44340   3 
   5   5  -6 168.358 5.43058   2 
  -5  -5   6 167.955 5.18136   5 
  -5  -5   6 172.212 5.31588   1 
  -5  -5   6 174.647 5.15435   6 
   4   5  -6 1.53970 0.60849   2 
   4   5  -6 1.67743 0.58358   3 
  -4  -5   6 1.15489 0.51999   5 
  -4  -5   6 1.65328 0.45117   6 
  -4  -5   6 2.42892 0.58994   1 
   3   5  -6 120.486 3.83798   3 
   3   5  -6 119.051 4.04446   2 
  -3  -5   6 117.417 3.86753   1 
  -3  -5   6 111.792 3.55640   6 
  -3  -5   6 124.017 3.86033   5 
   2   5  -6 41.9464 2.05946   2 
   2   5  -6 45.6641 1.86959   3 
  -2  -5   6 44.6132 1.97275   1 
  -2  -5   6 46.1350 1.96383   5 
  -2  -5   6 46.3140 1.67590   6 
   1   5  -6 107.814 3.36553   3 
   1   5  -6 103.304 3.68242   2 
  -1  -5   6 104.677 3.58661   1 
  -1  -5   6 107.475 3.18532   6 
  -1  -5   6 112.933 3.63281   5 
   0   5  -6 0.70547 0.48989   2 
   0  -5   6 0.03838 0.28829   6 
   0  -5   6 0.51620 0.48413   5 
   0  -5   6 0.62194 0.50774   1 
   0  -5   6 0.65809 0.47947   4 
  -1   5  -6 929.039 25.1561   1 
  -1   5  -6 971.851 25.0825   2 
   1  -5   6 1009.02 25.1099   4 
   1  -5   6 956.162 25.0936   1 
   1  -5   6 940.894 24.4691   6 
   1  -5   6 970.735 25.1144   5 
  -2   5  -6 1.17155 0.54384   2 
  -2   5  -6 0.74427 0.63954   1 
   2  -5   6 0.21112 0.55161   1 
   2  -5   6 0.30097 0.52289   5 
   2  -5   6 0.12823 0.27885   6 
  -3   5  -6 166.228 5.02571   2 
  -3   5  -6 163.775 5.28780   1 
   3  -5   6 159.769 5.25480   5 
   3  -5   6 157.412 4.51929   6 
   3  -5   6 159.300 5.45109   4 
  -4   5  -6 119.041 4.21939   1 
   4  -5   6 115.998 3.46914   6 
   4  -5   6 116.891 4.22988   5 
   4  -5   6 114.024 4.46362   4 
  -5   5  -6 139.532 4.79263   1 
   5  -5   6 133.183 4.01194   6 
   5  -5   6 130.572 4.78120   5 
   5  -5   6 136.526 5.18040   4 
  -6   5  -6 40.4971 2.25143   1 
   6  -5   6 40.6751 2.34226   5 
   6  -5   6 38.1454 2.64613   4 
   6  -5   6 35.4987 1.62800   6 
  -7   5  -6 43.8503 2.52371   5 
  -7   5  -6 47.2893 2.53346   1 
   7  -5   6 46.3445 3.02830   4 
   7  -5   6 45.8658 2.59295   5 
   7  -5   6 42.9547 1.93981   6 
  -8   5  -6 0.53986 0.76971   1 
   8  -5   6 -1.9529 0.92698   4 
  12   4  -6 19.2437 2.07184   3 
 -12  -4   6 24.8096 1.81844   5 
  11   4  -6 4.62129 1.34313   3 
 -11  -4   6 4.93295 0.94614   5 
 -11  -4   6 6.36408 1.09043   1 
  10   4  -6 109.607 4.50914   3 
 -10  -4   6 108.215 3.96119   5 
 -10  -4   6 111.879 4.02584   1 
   9   4  -6 0.58170 0.65406   2 
   9   4  -6 0.49171 0.88597   3 
  -9  -4   6 1.21434 0.74456   1 
  -9  -4   6 0.73738 0.66455   5 
   8   4  -6 108.605 4.15128   3 
   8   4  -6 106.094 3.71769   2 
  -8  -4   6 102.032 3.66340   5 
  -8  -4   6 103.863 3.74081   1 
  -8  -4   6 111.538 3.80846   6 
   7   4  -6 77.2889 2.96002   2 
   7   4  -6 77.2319 3.23903   3 
  -7  -4   6 79.0529 2.93028   5 
  -7  -4   6 77.8334 2.93341   6 
  -7  -4   6 78.9942 2.97548   1 
   6   4  -6 25.0099 1.68344   3 
   6   4  -6 23.9311 1.47884   2 
  -6  -4   6 22.1650 1.37541   5 
  -6  -4   6 21.7132 1.42060   1 
  -6  -4   6 22.1122 1.34154   6 
   5   4  -6 187.177 5.61020   3 
   5   4  -6 176.660 5.51837   2 
  -5  -4   6 182.864 5.33688   6 
  -5  -4   6 176.961 5.41216   1 
  -5  -4   6 179.246 5.39109   5 
   4   4  -6 26.2445 1.53573   2 
   4   4  -6 28.3861 1.55045   3 
  -4  -4   6 28.7959 1.46558   5 
  -4  -4   6 26.7781 1.44979   1 
  -4  -4   6 25.2116 1.32231   6 
   3   4  -6 55.8435 2.12418   3 
   3   4  -6 50.5574 2.21102   2 
  -3  -4   6 53.6838 2.14547   5 
  -3  -4   6 54.7029 2.15255   1 
  -3  -4   6 53.2629 1.93695   6 
   2   4  -6 316.801 9.15358   2 
   2   4  -6 331.367 8.91045   3 
  -2  -4   6 323.491 9.03683   1 
  -2  -4   6 330.073 8.76775   6 
  -2  -4   6 341.436 9.08614   5 
   1   4  -6 104.327 3.59582   2 
   1   4  -6 107.967 3.28568   3 
  -1  -4   6 108.945 3.55805   5 
  -1  -4   6 104.253 3.18708   6 
  -1  -4   6 116.069 3.24942   4 
  -1  -4   6 103.598 3.50392   1 
   0   4  -6 560.950 15.0440   2 
   0  -4   6 554.282 14.9880   5 
   0  -4   6 539.016 14.5393   6 
   0  -4   6 594.572 14.8467   4 
   0  -4   6 572.880 15.0055   1 
  -1   4  -6 86.2768 3.14630   1 
  -1   4  -6 89.1074 3.06520   2 
   1  -4   6 82.5823 3.06138   5 
   1  -4   6 84.8863 2.62484   6 
   1  -4   6 93.8538 3.12130   4 
   1  -4   6 83.1805 3.04204   1 
  -2   4  -6 375.508 10.0964   2 
  -2   4  -6 379.325 10.3108   1 
   2  -4   6 382.945 10.3471   4 
   2  -4   6 354.126 9.62414   6 
   2  -4   6 360.989 10.1958   1 
   2  -4   6 362.949 10.2080   5 
   2  -4   6 355.747 9.62624   6 
  -3   4  -6 0.14455 0.58070   1 
  -3   4  -6 0.61718 0.45443   2 
   3  -4   6 0.70885 0.65561   4 
   3  -4   6 0.02611 0.47558   5 
   3  -4   6 -0.1249 0.30894   6 
  -4   4  -6 174.634 5.48433   1 
   4  -4   6 168.576 5.72996   4 
   4  -4   6 166.728 5.44387   5 
   4  -4   6 168.851 4.82283   6 
  -5   4  -6 56.1198 2.53837   1 
   5  -4   6 53.1854 2.85703   4 
   5  -4   6 54.2424 1.99056   6 
   5  -4   6 52.7742 2.54338   5 
  -6   4  -6 153.049 5.18512   1 
   6  -4   6 147.514 5.68153   4 
   6  -4   6 149.234 4.55871   6 
   6  -4   6 157.044 5.30514   5 
  -7   4  -6 45.9125 2.39215   1 
   7  -4   6 42.0391 1.88197   6 
   7  -4   6 41.9963 2.40609   5 
   7  -4   6 42.5761 2.84326   4 
  -8   4  -6 25.7926 1.94424   5 
  -8   4  -6 28.6000 1.99720   1 
   8  -4   6 25.2542 2.38554   4 
   8  -4   6 25.3119 1.52075   6 
   8  -4   6 29.6613 2.09312   5 
  -9   4  -6 45.1120 2.52814   1 
 -13  -3   6 10.5689 1.31412   5 
  12   3  -6 -1.1540 0.91170   3 
 -12  -3   6 -0.5986 0.70739   5 
  11   3  -6 46.7014 2.90501   3 
 -11  -3   6 49.9892 2.45983   1 
 -11  -3   6 43.4332 2.38170   5 
  10   3  -6 6.14316 1.27706   3 
 -10  -3   6 6.13269 0.99971   1 
 -10  -3   6 7.32835 1.05443   5 
   9   3  -6 118.096 4.60381   3 
  -9  -3   6 119.282 4.20024   5 
  -9  -3   6 127.418 4.20990   1 
   8   3  -6 28.0738 1.95823   3 
   8   3  -6 28.0567 1.56393   2 
  -8  -3   6 26.9909 1.67251   5 
  -8  -3   6 29.7941 1.69700   1 
   7   3  -6 70.7617 2.99899   3 
   7   3  -6 68.1318 2.63480   2 
  -7  -3   6 65.3114 2.61747   1 
  -7  -3   6 69.4472 2.69464   5 
  -7  -3   6 67.0257 2.63553   6 
   6   3  -6 75.3999 2.81048   2 
   6   3  -6 74.3658 3.00397   3 
  -6  -3   6 75.2560 2.78165   5 
  -6  -3   6 77.2143 2.78598   1 
  -6  -3   6 76.0516 2.75906   6 
   5   3  -6 644.579 17.3955   2 
   5   3  -6 658.031 17.5240   3 
  -5  -3   6 675.298 17.3021   6 
  -5  -3   6 667.448 17.3211   1 
  -5  -3   6 654.532 17.3336   5 
   4   3  -6 12.5487 1.11495   3 
   4   3  -6 11.6210 1.06694   2 
  -4  -3   6 11.2389 0.93912   5 
  -4  -3   6 12.8664 0.90616   6 
  -4  -3   6 11.8746 0.99014   1 
   3   3  -6 262.527 7.54921   2 
   3   3  -6 271.763 7.43236   3 
  -3  -3   6 262.538 7.44826   5 
  -3  -3   6 270.813 7.42945   1 
  -3  -3   6 266.307 7.28391   6 
   2   3  -6 -0.3900 0.34632   2 
   2   3  -6 0.21618 0.34734   3 
  -2  -3   6 -0.0525 0.34318   1 
  -2  -3   6 -0.1179 0.26701   6 
  -2  -3   6 0.00030 0.37389   5 
   1   3  -6 125.271 3.93017   2 
   1   3  -6 124.220 3.58298   3 
  -1  -3   6 112.628 3.76385   1 
  -1  -3   6 118.533 3.57046   6 
  -1  -3   6 128.577 3.89742   5 
  -1  -3   6 132.085 3.67161   6 
   0   3  -6 216.607 5.89206   3 
   0   3  -6 224.531 6.36057   2 
   0  -3   6 207.080 6.25755   1 
   0  -3   6 221.548 6.34512   5 
   0  -3   6 215.983 5.98273   6 
   0  -3   6 224.180 6.04464   6 
   0  -3   6 234.596 6.19209   4 
  -1   3  -6 579.532 15.5841   2 
  -1   3  -6 573.166 15.6681   1 
   1  -3   6 589.118 15.2432   6 
   1  -3   6 585.581 15.2649   6 
   1  -3   6 598.701 15.6590   5 
   1  -3   6 589.363 15.6187   1 
   1  -3   6 625.684 15.6539   4 
  -2   3  -6 2.33195 0.51702   2 
  -2   3  -6 2.96382 0.66157   1 
   2  -3   6 2.68661 0.39381   6 
   2  -3   6 3.11094 0.61283   5 
   2  -3   6 2.99929 0.69308   4 
  -3   3  -6 495.140 13.3283   1 
  -3   3  -6 488.623 13.0481   2 
   3  -3   6 481.004 13.2832   5 
   3  -3   6 509.990 13.5642   4 
   3  -3   6 480.690 12.7696   6 
  -4   3  -6 5.34547 0.83121   1 
  -4   3  -6 5.19270 0.64003   2 
   4  -3   6 5.56726 0.55607   6 
   4  -3   6 6.24661 1.03251   4 
   4  -3   6 6.25616 0.85506   5 
  -5   3  -6 134.469 4.56315   1 
   5  -3   6 138.696 4.62326   5 
   5  -3   6 134.870 4.04983   6 
   5  -3   6 133.372 4.96673   4 
  -6   3  -6 3.51205 0.82673   1 
   6  -3   6 3.20843 0.57973   6 
   6  -3   6 2.37545 0.78050   5 
   6  -3   6 4.20399 1.10766   4 
  -7   3  -6 58.2301 2.68389   1 
   7  -3   6 57.9929 2.74147   5 
   7  -3   6 54.2668 2.24316   6 
   7  -3   6 54.9688 3.15807   4 
  -8   3  -6 3.91696 0.96191   5 
  -8   3  -6 5.63375 1.01209   1 
   8  -3   6 2.61497 0.65484   6 
   8  -3   6 4.36947 1.27732   4 
   8  -3   6 3.63621 0.98775   5 
  -9   3  -6 71.3339 3.15155   1 
  -9   3  -6 64.3552 3.19976   5 
   9  -3   6 63.8342 3.80132   4 
   9  -3   6 64.8857 2.76566   6 
   9  -3   6 69.9164 3.32132   5 
  12   2  -6 34.0448 2.53684   3 
 -12  -2   6 31.7608 2.17086   5 
  11   2  -6 14.0847 1.74370   3 
 -11  -2   6 10.8862 1.26737   5 
  10   2  -6 36.4774 2.42401   3 
 -10  -2   6 36.9252 2.12716   5 
   9   2  -6 4.84064 1.11265   3 
  -9  -2   6 4.64761 0.85979   1 
  -9  -2   6 5.14440 0.91332   5 
   8   2  -6 77.0423 2.83671   2 
   8   2  -6 83.5867 3.42897   3 
  -8  -2   6 77.8904 3.08467   5 
  -8  -2   6 82.6387 3.00210   1 
   7   2  -6 44.2949 1.92836   2 
   7   2  -6 44.0028 2.28697   3 
  -7  -2   6 40.8209 1.93586   6 
  -7  -2   6 43.8428 2.05789   5 
  -7  -2   6 42.8463 1.94770   1 
   6   2  -6 574.646 15.1539   2 
   6   2  -6 574.074 15.4622   3 
  -6  -2   6 585.037 15.2106   6 
  -6  -2   6 563.335 15.2099   5 
  -6  -2   6 560.711 15.0856   1 
   5   2  -6 8.70526 0.81844   6 
   5   2  -6 8.44449 0.84584   2 
   5   2  -6 8.92039 1.00174   3 
  -5  -2   6 9.08407 0.80555   1 
  -5  -2   6 8.16659 0.77642   6 
  -5  -2   6 10.1630 0.91672   5 
   4   2  -6 783.058 20.6803   2 
   4   2  -6 782.518 20.5850   6 
   4   2  -6 799.015 20.7229   3 
  -4  -2   6 799.959 20.5467   6 
  -4  -2   6 775.695 20.6470   5 
  -4  -2   6 824.849 20.2483   4 
  -4  -2   6 801.365 20.5518   1 
   3   2  -6 106.207 3.27615   6 
   3   2  -6 104.695 3.43194   2 
   3   2  -6 107.755 3.35895   3 
  -3  -2   6 101.740 3.22368   6 
  -3  -2   6 105.763 3.40909   5 
  -3  -2   6 106.710 3.28798   1 
   2   2  -6 494.110 13.0142   3 
   2   2  -6 488.262 13.2098   2 
   2   2  -6 495.724 12.9953   6 
  -2  -2   6 504.694 13.1838   5 
  -2  -2   6 500.126 13.0845   1 
  -2  -2   6 504.193 12.9818   6 
   1   2  -6 3.16699 0.38878   3 
   1   2  -6 2.72139 0.50281   2 
  -1  -2   6 2.56878 0.46238   1 
  -1  -2   6 2.96376 0.37955   4 
  -1  -2   6 3.03775 0.39686   6 
  -1  -2   6 3.07577 0.41320   6 
  -1  -2   6 2.41808 0.50422   5 
   0   2  -6 328.936 8.91644   2 
   0   2  -6 327.672 8.46504   3 
   0  -2   6 345.755 8.78234   4 
   0  -2   6 325.945 8.92379   5 
   0  -2   6 314.033 8.82250   1 
   0  -2   6 333.734 8.68508   6 
   0  -2   6 307.863 8.61174   6 
  -1   2  -6 16.1445 1.15236   1 
  -1   2  -6 18.6671 1.11038   2 
   1  -2   6 17.7739 1.12255   5 
   1  -2   6 19.7296 1.16036   4 
   1  -2   6 17.7698 0.89417   6 
   1  -2   6 17.9125 0.91530   6 
   1  -2   6 17.0012 1.08815   1 
  -2   2  -6 471.461 12.1735   2 
  -2   2  -6 430.627 12.2491   1 
   2  -2   6 460.723 11.9142   6 
   2  -2   6 470.595 12.3946   4 
   2  -2   6 451.836 12.2596   5 
  -3   2  -6 28.8615 1.54685   1 
  -3   2  -6 29.8089 1.41525   2 
   3  -2   6 31.5644 1.79067   4 
   3  -2   6 31.9635 1.27134   6 
   3  -2   6 30.5704 1.56904   5 
  -4   2  -6 61.5023 2.16511   2 
  -4   2  -6 53.2315 2.33813   1 
   4  -2   6 57.5003 2.63077   4 
   4  -2   6 57.3734 2.37034   5 
   4  -2   6 57.7586 2.01417   6 
  -5   2  -6 102.796 3.68970   1 
   5  -2   6 105.490 4.08967   4 
   5  -2   6 105.824 3.30439   6 
   5  -2   6 107.774 3.73479   5 
  -6   2  -6 223.977 6.70688   1 
   6  -2   6 219.847 6.23945   6 
   6  -2   6 220.983 6.72679   5 
   6  -2   6 208.418 7.16136   4 
  -7   2  -6 13.2056 1.25072   1 
   7  -2   6 13.9543 1.31088   5 
   7  -2   6 12.8394 1.64944   4 
   7  -2   6 13.6158 1.07077   6 
  -8   2  -6 143.587 4.87567   1 
   8  -2   6 135.239 4.47903   6 
   8  -2   6 141.542 4.97498   5 
   8  -2   6 134.736 5.52684   4 
  -9   2  -6 4.24244 0.94836   1 
  -9   2  -6 3.16898 0.90838   5 
   9  -2   6 1.70888 0.92187   5 
   9  -2   6 5.38049 0.86038   6 
   9  -2   6 3.91535 1.32401   4 
 -10   2  -6 53.1963 2.68499   1 
 -10   2  -6 52.9370 2.79799   5 
  10  -2   6 46.6917 3.36399   4 
  10  -2   6 46.3543 2.39490   6 
  12   1  -6 0.93464 1.13153   3 
 -12  -1   6 1.25012 0.84552   5 
  11   1  -6 50.8951 2.98112   3 
 -11  -1   6 45.8244 2.54378   5 
  10   1  -6 19.1108 1.85150   3 
 -10  -1   6 20.6968 1.67267   5 
   9   1  -6 40.8218 2.42188   3 
  -9  -1   6 38.1345 2.10995   5 
   8   1  -6 76.2595 3.33054   3 
  -8  -1   6 82.7560 2.94400   1 
  -8  -1   6 75.4527 3.07308   5 
   7   1  -6 68.9041 2.94593   3 
   7   1  -6 63.0931 2.40915   2 
   7   1  -6 66.9103 2.68555   6 
  -7  -1   6 66.7502 2.70558   5 
  -7  -1   6 66.6775 2.48123   1 
   6   1  -6 38.9189 1.72233   2 
   6   1  -6 40.3160 2.09019   3 
   6   1  -6 36.7675 1.72133   4 
   6   1  -6 35.8592 1.81301   6 
  -6  -1   6 38.0838 1.66203   1 
  -6  -1   6 42.0421 1.91346   5 
  -6  -1   6 38.0799 1.74098   6 
  -6  -1   6 36.0342 1.71204   4 
   5   1  -6 657.333 17.0844   3 
   5   1  -6 636.522 16.8951   6 
   5   1  -6 623.411 16.7966   2 
  -5  -1   6 646.825 16.8190   6 
  -5  -1   6 653.605 16.9597   5 
  -5  -1   6 633.628 16.7036   4 
  -5  -1   6 646.857 16.7096   1 
   4   1  -6 127.334 3.96682   6 
   4   1  -6 124.919 4.07476   3 
   4   1  -6 124.461 3.97327   2 
  -4  -1   6 130.054 3.91712   6 
  -4  -1   6 137.496 3.78553   4 
  -4  -1   6 128.935 4.04494   5 
  -4  -1   6 131.752 3.85671   1 
   3   1  -6 100.974 3.23252   6 
   3   1  -6 97.2400 3.30337   2 
   3   1  -6 103.677 3.31070   3 
  -3  -1   6 105.602 3.35551   5 
  -3  -1   6 101.646 3.18604   6 
  -3  -1   6 103.821 3.17298   1 
  -3  -1   6 115.793 3.09070   4 
   2   1  -6 100.831 3.21345   2 
   2   1  -6 96.3922 3.05092   6 
   2   1  -6 97.4268 3.05090   3 
  -2  -1   6 98.8477 3.04703   1 
  -2  -1   6 105.938 2.95064   4 
  -2  -1   6 99.6993 3.19291   5 
  -2  -1   6 98.9105 3.03101   6 
   1   1  -6 135.157 3.87855   6 
   1   1  -6 125.573 3.74795   3 
   1   1  -6 127.447 4.01711   2 
  -1  -1   6 142.900 3.87717   4 
  -1  -1   6 131.873 3.84969   6 
  -1  -1   6 141.506 4.06152   5 
  -1  -1   6 134.039 3.90776   1 
   0   1  -6 18.1196 0.86466   6 
   0   1  -6 15.4468 0.98760   2 
   0   1  -6 16.8109 0.71363   3 
   0  -1   6 17.3434 1.02444   5 
   0  -1   6 18.9258 1.02201   4 
   0  -1   6 15.8027 0.86361   6 
   0  -1   6 17.1055 0.97090   1 
  -1   1  -6 262.917 7.04502   2 
  -1   1  -6 242.108 7.02624   1 
   1  -1   6 247.033 6.81181   6 
   1  -1   6 249.006 6.98154   1 
   1  -1   6 252.624 6.84767   6 
   1  -1   6 258.473 7.06886   5 
   1  -1   6 262.710 7.10066   4 
  -2   1  -6 8.31676 0.71226   2 
  -2   1  -6 10.0649 0.83927   1 
   2  -1   6 11.5021 0.88898   5 
   2  -1   6 10.0279 0.71122   6 
   2  -1   6 9.66695 0.68163   6 
   2  -1   6 10.8446 1.01508   4 
  -3   1  -6 138.244 4.39817   1 
  -3   1  -6 144.126 4.25743   2 
   3  -1   6 149.189 4.41615   5 
   3  -1   6 140.024 4.58186   4 
   3  -1   6 142.665 4.11358   6 
   3  -1   6 142.327 4.11366   6 
  -4   1  -6 99.4633 3.35607   1 
  -4   1  -6 100.068 3.10456   2 
   4  -1   6 96.7021 3.32341   5 
   4  -1   6 91.6038 3.55567   4 
   4  -1   6 98.7641 3.03486   6 
  -5   1  -6 24.8116 1.48306   1 
  -5   1  -6 25.2561 1.24308   2 
   5  -1   6 28.0971 1.55779   5 
   5  -1   6 26.9337 1.87425   4 
   5  -1   6 24.6463 1.23226   6 
  -6   1  -6 63.9775 2.59763   1 
   6  -1   6 62.6969 2.30051   6 
   6  -1   6 62.8598 2.60797   5 
   6  -1   6 58.3320 2.97455   4 
  -7   1  -6 174.132 5.52027   1 
   7  -1   6 161.819 6.06941   4 
   7  -1   6 173.569 5.20604   6 
   7  -1   6 175.952 5.59332   5 
  -8   1  -6 47.3161 2.35217   1 
   8  -1   6 47.6110 2.43732   5 
   8  -1   6 43.9702 2.89349   4 
   8  -1   6 47.3637 2.13301   6 
  -9   1  -6 90.8657 3.49858   1 
  -9   1  -6 83.7406 3.53066   5 
   9  -1   6 83.5123 3.22077   6 
   9  -1   6 89.7872 3.64878   5 
   9  -1   6 77.4902 4.14860   4 
 -10   1  -6 0.51878 0.75736   1 
 -10   1  -6 -0.1586 0.71780   5 
  10  -1   6 1.04521 1.23085   4 
  10  -1   6 -1.1066 0.55313   6 
  12   0  -6 42.5874 2.91655   3 
 -12   0   6 36.4525 2.43826   5 
  11   0  -6 1.91616 1.13011   3 
 -11   0   6 1.79075 0.87823   5 
  10   0  -6 116.632 4.74085   3 
 -10   0   6 119.885 4.44731   5 
   9   0  -6 -0.2928 0.77552   3 
   9   0  -6 -1.9428 0.56019   6 
  -9   0   6 -0.4514 0.62781   5 
   8   0  -6 124.582 4.35206   6 
   8   0  -6 124.994 4.60547   3 
   8   0  -6 132.234 4.57601   4 
  -8   0   6 123.771 4.37713   5 
   7   0  -6 185.953 5.77366   4 
   7   0  -6 183.916 5.92382   3 
   7   0  -6 182.023 5.67464   6 
  -7   0   6 179.852 5.69729   5 
  -7   0   6 183.495 5.36149   1 
   6   0  -6 78.8267 2.95579   4 
   6   0  -6 81.4859 3.16037   3 
   6   0  -6 80.9083 2.73047   2 
   6   0  -6 82.3391 2.95101   6 
  -6   0   6 79.7342 3.01671   5 
  -6   0   6 76.7474 2.94530   4 
  -6   0   6 84.1247 2.71550   1 
   5   0  -6 11.5220 0.92510   6 
   5   0  -6 11.7641 0.95195   2 
   5   0  -6 12.1564 1.08712   3 
  -5   0   6 11.5395 0.99068   4 
  -5   0   6 11.5584 0.87330   6 
  -5   0   6 11.1675 0.86754   1 
  -5   0   6 11.6205 0.97574   5 
   4   0  -6 660.173 17.6950   6 
   4   0  -6 658.813 17.8058   3 
   4   0  -6 678.118 17.6551   2 
  -4   0   6 688.009 17.4757   1 
  -4   0   6 696.146 17.6487   6 
  -4   0   6 699.953 17.6829   4 
  -4   0   6 672.948 17.7864   5 
   3   0  -6 112.198 3.50016   6 
   3   0  -6 108.620 3.55273   3 
   3   0  -6 115.896 3.55295   2 
  -3   0   6 114.619 3.59457   5 
  -3   0   6 112.025 3.43200   6 
  -3   0   6 122.268 3.46776   4 
  -3   0   6 112.171 3.32159   1 
   2   0  -6 192.581 5.52829   6 
   2   0  -6 191.722 5.60531   2 
   2   0  -6 189.672 5.51587   3 
  -2   0   6 201.265 5.63863   5 
  -2   0   6 216.696 5.54879   4 
  -2   0   6 198.966 5.50504   6 
  -2   0   6 195.277 5.40287   1 
   1   0  -6 1.76489 0.32932   6 
   1   0  -6 1.60729 0.33180   3 
   1   0  -6 1.43150 0.41173   2 
  -1   0   6 1.16474 0.31818   1 
  -1   0   6 1.66706 0.32181   6 
  -1   0   6 1.27719 0.40637   4 
  -1   0   6 1.45813 0.38539   5 
   0   0  -6 136.034 3.94317   6 
   0   0  -6 134.405 4.06309   2 
   0   0  -6 130.441 3.73279   3 
   0   0   6 138.386 3.93215   6 
   0   0   6 142.711 4.08191   5 
   0   0   6 143.039 4.09036   4 
   0   0   6 137.043 3.94901   1 
  -1   0  -6 3.88460 0.40696   6 
  -1   0  -6 2.86062 0.46981   2 
  -1   0  -6 3.63978 0.52357   1 
   1   0   6 3.26743 0.49411   5 
   1   0   6 4.16487 0.51286   1 
   1   0   6 3.23320 0.40222   6 
   1   0   6 4.39321 0.58743   4 
  -2   0  -6 1012.05 26.8999   1 
  -2   0  -6 1095.94 26.9224   2 
  -2   0  -6 1032.72 26.7492   6 
   2   0   6 1062.33 26.9378   5 
   2   0   6 1085.26 27.1653   4 
   2   0   6 1022.34 26.7390   6 
  -3   0  -6 20.2395 1.20484   1 
  -3   0  -6 20.4271 1.08712   2 
   3   0   6 20.0657 1.39744   4 
   3   0   6 19.8206 1.17696   5 
   3   0   6 19.4317 0.99748   6 
   3   0   6 20.3259 1.00732   6 
  -4   0  -6 192.766 5.85837   1 
  -4   0  -6 214.010 5.72309   2 
   4   0   6 194.468 6.19479   4 
   4   0   6 201.211 5.64368   6 
   4   0   6 206.987 5.88798   5 
  -5   0  -6 60.6938 2.09966   2 
  -5   0  -6 59.7492 2.35899   1 
   5   0   6 56.2263 2.30273   5 
   5   0   6 58.2542 2.10527   6 
   5   0   6 55.7979 2.66913   4 
  -6   0  -6 300.222 8.51627   1 
   6   0   6 309.223 8.54552   5 
   6   0   6 287.558 8.99824   4 
   6   0   6 296.750 8.24403   6 
  -7   0  -6 37.8937 1.95772   1 
   7   0   6 38.9411 2.51609   4 
   7   0   6 37.9969 2.00211   5 
   7   0   6 40.1969 1.80229   6 
  -8   0  -6 229.201 6.99064   1 
   8   0   6 219.285 7.70413   4 
   8   0   6 240.050 6.82912   6 
   8   0   6 231.955 7.07794   5 
  -9   0  -6 29.5604 1.86462   1 
  -9   0  -6 36.3827 2.09114   5 
   9   0   6 33.2961 2.06995   5 
   9   0   6 30.9948 2.51450   4 
   9   0   6 30.3388 1.78313   6 
 -10   0  -6 89.5328 3.68796   5 
 -10   0  -6 91.5548 3.59693   1 
  10   0   6 84.4979 3.42155   6 
  10   0   6 83.4283 4.37213   4 
 -11   0  -6 3.29298 0.94451   1 
 -11   0  -6 3.62584 0.97213   5 
  11   0   6 4.66703 1.42443   4 
  11   0   6 3.81196 0.89157   6 
  11  -1  -6 72.1253 3.63056   3 
 -11   1   6 62.1365 3.18069   5 
  10  -1  -6 0.60685 0.74750   6 
  10  -1  -6 1.36729 1.09357   3 
 -10   1   6 0.92401 0.78255   5 
   9  -1  -6 135.721 5.16853   3 
   9  -1  -6 139.253 4.84081   6 
   9  -1  -6 147.649 5.26942   4 
  -9   1   6 136.407 4.92457   5 
   8  -1  -6 -0.7880 0.70932   4 
   8  -1  -6 0.06484 0.50595   6 
   8  -1  -6 0.97243 0.81103   3 
  -8   1   6 -0.8320 0.54513   5 
   7  -1  -6 89.0509 3.43934   4 
   7  -1  -6 83.2716 3.41096   3 
   7  -1  -6 84.9521 3.16734   6 
  -7   1   6 79.4538 3.18778   5 
   6  -1  -6 3.07436 0.79923   3 
   6  -1  -6 2.96393 0.71138   4 
   6  -1  -6 3.17134 0.51408   2 
   6  -1  -6 2.29483 0.60558   6 
  -6   1   6 2.33590 0.68004   5 
  -6   1   6 3.42994 0.49133   1 
   5  -1  -6 94.4605 3.10954   2 
   5  -1  -6 98.9938 3.45992   4 
   5  -1  -6 98.0547 3.30116   6 
   5  -1  -6 98.0455 3.50083   3 
  -5   1   6 103.784 3.47514   4 
  -5   1   6 100.817 3.00328   1 
  -5   1   6 101.575 3.43489   5 
   4  -1  -6 70.4462 2.50437   6 
   4  -1  -6 72.1234 2.44924   2 
   4  -1  -6 70.6454 2.68063   3 
  -4   1   6 71.1261 2.60950   5 
  -4   1   6 71.9522 2.22911   1 
  -4   1   6 73.6921 2.44927   6 
  -4   1   6 71.5931 2.61673   4 
   3  -1  -6 702.831 19.0306   3 
   3  -1  -6 717.018 18.9487   6 
   3  -1  -6 741.444 18.9440   2 
  -3   1   6 762.089 19.0664   4 
  -3   1   6 718.835 18.8688   6 
  -3   1   6 755.366 18.6815   1 
  -3   1   6 730.097 19.0592   5 
   2  -1  -6 0.12425 0.36460   2 
   2  -1  -6 -0.0288 0.24871   6 
   2  -1  -6 -0.0363 0.33367   3 
  -2   1   6 0.17285 0.26521   6 
  -2   1   6 0.62607 0.25389   1 
  -2   1   6 1.00494 0.41238   4 
  -2   1   6 0.61369 0.37533   5 
   1  -1  -6 373.213 10.5102   3 
   1  -1  -6 406.588 10.6742   2 
   1  -1  -6 404.739 10.5989   6 
  -1   1   6 400.044 10.4194   1 
  -1   1   6 400.966 10.6624   5 
  -1   1   6 422.366 10.7292   4 
  -1   1   6 405.646 10.5596   6 
   0  -1  -6 83.4024 2.68799   2 
   0  -1  -6 78.6440 2.45039   3 
   0  -1  -6 83.1944 2.59356   6 
   0  -1  -6 80.0478 2.52701   1 
   0   1   6 85.7063 2.77280   4 
   0   1   6 85.2735 2.68033   5 
   0   1   6 81.1386 2.48895   1 
   0   1   6 84.0937 2.56757   6 
  -1  -1  -6 444.248 12.0663   6 
  -1  -1  -6 452.901 11.8472   3 
  -1  -1  -6 473.559 12.2086   2 
  -1  -1  -6 456.453 12.0796   1 
   1   1   6 481.710 12.3805   4 
   1   1   6 456.683 12.0654   6 
   1   1   6 475.854 12.1802   5 
  -2  -1  -6 0.94747 0.29008   6 
  -2  -1  -6 0.43930 0.34579   2 
  -2  -1  -6 0.01681 0.32111   1 
   2   1   6 0.02684 0.42630   4 
   2   1   6 0.36066 0.32657   5 
   2   1   6 0.82071 0.28979   6 
  -3  -1  -6 679.853 18.1738   1 
  -3  -1  -6 707.267 18.1472   2 
  -3  -1  -6 692.847 18.0790   6 
   3   1   6 712.407 18.0703   6 
   3   1   6 714.283 18.1847   5 
   3   1   6 706.967 18.0668   6 
   3   1   6 695.229 18.5330   4 
  -4  -1  -6 50.9883 1.88517   2 
  -4  -1  -6 55.2676 2.07044   1 
   4   1   6 51.1187 2.37030   4 
   4   1   6 50.6057 1.86441   6 
   4   1   6 50.8836 1.98684   5 
  -5  -1  -6 311.555 8.74893   1 
  -5  -1  -6 326.472 8.52421   2 
   5   1   6 315.734 8.57111   6 
   5   1   6 302.294 9.18822   4 
   5   1   6 318.573 8.71341   5 
  -6  -1  -6 68.2466 2.24959   2 
  -6  -1  -6 66.3593 2.55198   1 
   6   1   6 64.0650 2.50866   5 
   6   1   6 60.4592 2.92418   4 
   6   1   6 62.8769 2.34875   6 
  -7  -1  -6 173.442 5.51742   1 
   7   1   6 185.239 5.40114   6 
   7   1   6 177.721 6.16050   4 
   7   1   6 181.029 5.54845   5 
  -8  -1  -6 17.2173 1.40149   1 
   8   1   6 20.3849 2.02350   4 
   8   1   6 20.8234 1.36181   6 
   8   1   6 21.1906 1.52647   5 
  -9  -1  -6 106.210 3.84712   5 
  -9  -1  -6 101.212 3.79219   1 
   9   1   6 105.039 3.88030   5 
   9   1   6 102.612 3.70656   6 
   9   1   6 96.9034 4.48165   4 
 -10  -1  -6 3.55079 0.87131   1 
 -10  -1  -6 4.29635 0.94249   5 
  10   1   6 4.55396 1.38460   4 
  10   1   6 3.25892 0.82740   6 
 -11  -1  -6 21.1580 1.72595   5 
 -11  -1  -6 19.1376 1.65368   1 
  11   1   6 16.2552 1.52320   6 
  11   1   6 19.2155 2.19715   4 
 -12  -1  -6 -1.4697 0.64492   5 
  11  -2  -6 3.99896 1.40025   3 
  11  -2  -6 3.39781 1.03457   6 
 -11   2   6 3.05519 1.03245   5 
  10  -2  -6 77.4307 3.33374   6 
  10  -2  -6 80.6723 3.89691   4 
  10  -2  -6 80.7715 3.79919   3 
 -10   2   6 75.0799 3.50592   5 
   9  -2  -6 34.6315 2.37628   3 
   9  -2  -6 35.0266 2.44098   4 
   9  -2  -6 33.4808 2.00587   6 
  -9   2   6 32.8663 2.14783   5 
   8  -2  -6 76.6128 3.04876   6 
   8  -2  -6 75.1796 3.37466   3 
   8  -2  -6 74.0144 3.38895   4 
  -8   2   6 72.3782 3.16791   5 
   7  -2  -6 51.1271 2.60705   4 
   7  -2  -6 52.2807 2.29429   6 
   7  -2  -6 52.1273 2.61070   3 
  -7   2   6 50.2123 2.42562   5 
   6  -2  -6 3.38385 0.53013   2 
   6  -2  -6 4.91782 0.71567   6 
   6  -2  -6 3.83722 0.85337   3 
   6  -2  -6 3.29071 0.82048   4 
  -6   2   6 3.72818 0.75774   5 
   5  -2  -6 -0.6787 0.48747   3 
   5  -2  -6 -0.4580 0.48236   4 
   5  -2  -6 0.39183 0.36808   2 
   5  -2  -6 0.07858 0.37065   6 
  -5   2   6 -0.3452 0.44130   5 
  -5   2   6 0.70431 0.54681   4 
   4  -2  -6 166.486 4.97014   6 
   4  -2  -6 161.204 4.82496   2 
   4  -2  -6 168.259 5.19521   3 
  -4   2   6 169.930 4.88626   6 
  -4   2   6 167.413 5.11909   5 
  -4   2   6 174.515 4.57796   1 
  -4   2   6 175.274 5.26054   4 
   3  -2  -6 90.6006 2.93871   2 
   3  -2  -6 91.7535 2.96332   6 
   3  -2  -6 89.5495 3.13275   3 
  -3   2   6 94.0915 2.59946   1 
  -3   2   6 96.0668 3.20007   4 
  -3   2   6 91.7490 2.88739   6 
  -3   2   6 89.9396 3.06806   5 
   2  -2  -6 435.834 12.0201   3 
   2  -2  -6 460.961 11.9794   2 
   2  -2  -6 439.139 11.9328   6 
  -2   2   6 479.841 12.1844   4 
  -2   2   6 444.672 11.8737   6 
  -2   2   6 464.247 12.0614   5 
  -2   2   6 452.635 11.6048   1 
   1  -2  -6 179.009 5.33399   3 
   1  -2  -6 182.915 5.30992   6 
   1  -2  -6 193.326 5.40166   2 
  -1   2   6 203.042 5.55460   4 
  -1   2   6 193.937 5.39326   5 
  -1   2   6 193.810 5.06456   1 
  -1   2   6 186.675 5.27033   6 
   0  -2  -6 659.498 16.9587   1 
   0  -2  -6 625.654 17.0447   3 
   0  -2  -6 644.113 17.1211   6 
   0  -2  -6 646.159 17.1961   2 
   0   2   6 669.581 17.1092   6 
   0   2   6 694.478 17.1893   5 
   0   2   6 711.826 17.4266   4 
  -1  -2  -6 161.140 4.47929   3 
  -1  -2  -6 161.215 4.62668   6 
  -1  -2  -6 166.304 4.53958   1 
  -1  -2  -6 154.912 4.67906   2 
   1   2   6 169.708 4.93756   4 
   1   2   6 168.313 4.62060   6 
   1   2   6 162.079 4.63085   5 
  -2  -2  -6 1033.18 27.0845   6 
  -2  -2  -6 1053.03 26.8929   3 
  -2  -2  -6 1061.59 27.0700   1 
  -2  -2  -6 1094.67 27.1850   2 
   2   2   6 1043.75 27.0958   5 
   2   2   6 1089.40 27.5047   4 
   2   2   6 1070.67 27.0673   6 
  -3  -2  -6 81.6382 2.62921   2 
  -3  -2  -6 76.4668 2.58252   1 
  -3  -2  -6 78.9306 2.55635   6 
   3   2   6 77.5574 2.53188   6 
   3   2   6 81.7874 2.55678   6 
   3   2   6 80.3305 2.58285   5 
   3   2   6 78.2779 2.97593   4 
  -4  -2  -6 201.167 5.46898   6 
  -4  -2  -6 181.261 5.47365   1 
  -4  -2  -6 199.516 5.46107   2 
   4   2   6 188.742 5.40265   6 
   4   2   6 193.230 5.97552   4 
   4   2   6 187.057 5.43089   5 
  -5  -2  -6 99.8183 3.05805   2 
  -5  -2  -6 92.1286 3.17384   1 
   5   2   6 94.0780 3.66042   4 
   5   2   6 99.1619 3.16354   5 
   5   2   6 96.4307 3.09456   6 
  -6  -2  -6 140.052 4.06673   2 
  -6  -2  -6 137.539 4.32797   1 
   6   2   6 129.349 4.78827   4 
   6   2   6 139.633 4.22209   6 
   6   2   6 138.531 4.26806   5 
  -7  -2  -6 97.5549 3.47295   1 
   7   2   6 102.948 3.48485   5 
   7   2   6 99.1180 4.08068   4 
   7   2   6 107.477 3.45525   6 
  -8  -2  -6 127.682 4.38573   1 
   8   2   6 123.488 5.02371   4 
   8   2   6 137.448 4.37999   6 
   8   2   6 143.908 4.45727   5 
  -9  -2  -6 67.7844 2.85010   1 
  -9  -2  -6 71.9319 2.89134   5 
   9   2   6 72.6983 2.95405   5 
   9   2   6 69.4568 2.83351   6 
   9   2   6 65.0052 3.49234   4 
 -10  -2  -6 58.0313 2.61527   5 
 -10  -2  -6 52.1942 2.52518   1 
  10   2   6 53.9764 2.52585   6 
  10   2   6 49.2970 3.18076   4 
 -11  -2  -6 14.0194 1.30829   5 
 -11  -2  -6 15.1522 1.43159   1 
  11   2   6 15.3458 1.43504   6 
  11   2   6 12.8875 1.87595   4 
 -12  -2  -6 7.34680 1.11502   5 
 -12  -2  -6 8.01850 1.20281   1 
  12   2   6 7.93778 1.24130   6 
  11  -3  -6 15.1811 1.49944   6 
  11  -3  -6 14.9427 1.87227   4 
  10  -3  -6 5.83315 1.36128   3 
  10  -3  -6 6.40450 1.40375   4 
  10  -3  -6 6.04693 1.07627   6 
 -10   3   6 3.42148 1.06754   5 
   9  -3  -6 54.4757 2.54278   6 
   9  -3  -6 51.5901 2.91018   3 
   9  -3  -6 51.7187 3.04256   4 
  -9   3   6 51.3054 2.73888   5 
   8  -3  -6 7.98623 0.98085   6 
   8  -3  -6 7.24849 1.28240   4 
   8  -3  -6 5.48034 1.18179   3 
  -8   3   6 5.95461 1.02648   5 
   7  -3  -6 78.7959 3.07308   6 
   7  -3  -6 86.8720 3.67001   4 
   7  -3  -6 82.7179 3.49444   3 
  -7   3   6 83.6467 3.35655   5 
   6  -3  -6 4.74451 0.93833   4 
   6  -3  -6 2.90050 0.86337   3 
   6  -3  -6 2.80485 0.63725   6 
  -6   3   6 3.41144 0.80945   5 
   5  -3  -6 51.6775 2.40802   3 
   5  -3  -6 51.2217 2.47671   4 
   5  -3  -6 50.7380 2.09636   6 
   5  -3  -6 49.8388 1.90856   2 
  -5   3   6 58.5002 2.39224   5 
  -5   3   6 54.2374 2.49999   4 
   4  -3  -6 62.6859 2.30045   6 
   4  -3  -6 59.8165 2.17463   2 
   4  -3  -6 63.7873 2.60466   3 
  -4   3   6 64.3556 2.51981   5 
  -4   3   6 65.7140 2.68043   4 
   3  -3  -6 615.888 15.6995   2 
   3  -3  -6 574.199 15.9432   3 
   3  -3  -6 593.695 15.7333   6 
  -3   3   6 622.901 16.1652   4 
  -3   3   6 602.758 15.9168   5 
  -3   3   6 608.012 15.6581   6 
   2  -3  -6 7.98901 0.73277   2 
   2  -3  -6 8.66928 0.70201   6 
   2  -3  -6 7.53100 0.81104   3 
  -2   3   6 9.03435 0.42573   1 
  -2   3   6 11.4310 0.96416   5 
  -2   3   6 9.70417 0.75433   6 
  -2   3   6 10.5316 1.07746   4 
   1  -3  -6 488.963 13.2888   3 
   1  -3  -6 512.132 12.8422   1 
   1  -3  -6 476.290 13.1536   6 
   1  -3  -6 522.531 13.2611   2 
  -1   3   6 512.852 13.2536   5 
  -1   3   6 507.790 13.1501   6 
  -1   3   6 512.336 13.4838   4 
   0  -3  -6 271.554 7.54664   3 
   0  -3  -6 282.761 7.60367   2 
   0  -3  -6 277.170 7.23970   1 
   0  -3  -6 263.195 7.49634   6 
   0   3   6 290.251 7.55773   5 
   0   3   6 275.300 7.47760   6 
   0   3   6 288.103 7.86097   4 
  -1  -3  -6 228.762 6.34646   6 
  -1  -3  -6 227.566 6.41246   2 
  -1  -3  -6 228.512 6.15166   1 
  -1  -3  -6 228.164 6.30624   3 
   1   3   6 233.677 6.30426   5 
   1   3   6 230.135 6.31766   6 
   1   3   6 243.541 6.72673   4 
  -2  -3  -6 144.112 4.15437   6 
  -2  -3  -6 137.297 4.00387   3 
  -2  -3  -6 137.581 4.19500   2 
  -2  -3  -6 144.233 4.04435   1 
   2   3   6 143.852 4.09267   5 
   2   3   6 145.329 4.12976   6 
   2   3   6 149.910 4.56888   4 
  -3  -3  -6 512.321 13.3492   1 
  -3  -3  -6 513.457 13.4373   2 
  -3  -3  -6 480.799 13.3727   6 
   3   3   6 506.538 13.3179   5 
   3   3   6 519.887 13.2293   3 
   3   3   6 517.224 13.8761   4 
   3   3   6 529.857 13.3980   6 
   3   3   6 518.209 13.3907   6 
  -4  -3  -6 161.595 4.73572   6 
  -4  -3  -6 166.656 4.73360   2 
  -4  -3  -6 161.444 4.71697   1 
   4   3   6 155.653 5.18873   4 
   4   3   6 160.156 4.63392   5 
   4   3   6 167.746 4.53606   3 
   4   3   6 164.523 4.69740   6 
  -5  -3  -6 319.770 8.73417   2 
  -5  -3  -6 327.633 8.83804   1 
  -5  -3  -6 307.289 8.78334   6 
   5   3   6 326.201 9.44158   4 
   5   3   6 329.716 8.74503   5 
   5   3   6 330.104 8.81080   6 
  -6  -3  -6 0.83674 0.50222   1 
  -6  -3  -6 1.87498 0.44396   2 
   6   3   6 1.87297 0.51433   5 
   6   3   6 0.89670 0.69238   4 
   6   3   6 1.67514 0.39119   3 
   6   3   6 1.42525 0.45964   6 
  -7  -3  -6 17.5026 1.07674   2 
  -7  -3  -6 18.1334 1.30158   1 
   7   3   6 18.3666 1.70560   4 
   7   3   6 17.6955 1.22258   5 
   7   3   6 20.5595 1.26271   6 
  -8  -3  -6 0.45555 0.62196   1 
   8   3   6 0.58759 0.82985   4 
   8   3   6 0.81993 0.61637   5 
   8   3   6 -0.2245 0.55640   6 
  -9  -3  -6 191.183 6.04987   1 
  -9  -3  -6 201.657 5.99683   5 
   9   3   6 195.679 6.00613   5 
   9   3   6 194.788 6.04966   6 
   9   3   6 189.507 6.81072   4 
 -10  -3  -6 0.70840 0.62582   5 
 -10  -3  -6 -0.1945 0.65395   1 
  10   3   6 1.32113 0.73878   6 
  10   3   6 0.77007 1.13940   4 
 -11  -3  -6 26.5591 1.81003   5 
 -11  -3  -6 27.2085 1.86306   1 
  11   3   6 26.8228 1.85436   6 
  11   3   6 26.8832 2.55718   4 
 -12  -3  -6 2.98502 0.93010   1 
  12   3   6 2.82756 1.40045   4 
  12   3   6 4.09464 1.01812   6 
  10  -4  -6 72.6868 3.89214   4 
  10  -4  -6 69.0006 3.07789   6 
  10  -4  -6 69.4418 3.63659   3 
 -10   4   6 66.4399 3.35805   5 
   9  -4  -6 16.5928 1.44889   6 
   9  -4  -6 19.8100 1.95165   3 
   9  -4  -6 19.5859 2.00700   4 
  -9   4   6 20.5356 1.80053   5 
   8  -4  -6 37.9244 2.62312   4 
   8  -4  -6 44.8597 2.64241   3 
   8  -4  -6 42.5009 2.13538   6 
  -8   4   6 42.0356 2.40570   5 
   7  -4  -6 19.3279 1.77187   3 
   7  -4  -6 16.5968 1.66675   4 
   7  -4  -6 17.3319 1.31320   6 
  -7   4   6 19.1457 1.58234   5 
   6  -4  -6 97.7409 4.05616   4 
   6  -4  -6 104.819 3.99435   3 
   6  -4  -6 104.234 3.52843   6 
  -6   4   6 102.743 4.12457   4 
  -6   4   6 101.129 3.80007   5 
   5  -4  -6 43.3982 2.27832   3 
   5  -4  -6 42.7861 2.36991   4 
   5  -4  -6 46.1768 1.75727   2 
   5  -4  -6 42.4935 1.88019   6 
  -5   4   6 45.5507 2.17812   5 
  -5   4   6 42.9309 2.34841   4 
   4  -4  -6 489.328 13.0792   6 
   4  -4  -6 487.557 13.4696   3 
   4  -4  -6 482.175 12.9212   2 
  -4   4   6 499.825 13.3851   5 
  -4   4   6 503.511 13.7196   4 
   3  -4  -6 23.7308 1.25112   6 
   3  -4  -6 26.0628 1.58595   3 
   3  -4  -6 27.2348 1.29372   2 
  -3   4   6 27.8667 1.71525   4 
  -3   4   6 27.3916 1.48763   5 
   2  -4  -6 1402.04 34.8130   2 
   2  -4  -6 1344.34 34.7834   6 
   2  -4  -6 1316.69 35.0390   3 
  -2   4   6 1424.39 35.3145   4 
  -2   4   6 1357.16 34.9383   5 
   1  -4  -6 161.430 4.77215   6 
   1  -4  -6 168.019 4.83830   2 
   1  -4  -6 161.798 4.98916   3 
  -1   4   6 170.049 4.86835   5 
  -1   4   6 172.086 4.75083   6 
  -1   4   6 170.513 5.18341   4 
   0  -4  -6 513.695 13.3524   1 
   0  -4  -6 496.600 13.8420   3 
   0  -4  -6 528.138 13.7511   6 
   0  -4  -6 516.949 13.7983   2 
   0   4   6 545.899 13.7603   5 
   0   4   6 543.013 13.7181   6 
   0   4   6 545.562 14.1656   4 
  -1  -4  -6 424.560 10.9482   2 
  -1  -4  -6 405.388 10.8489   6 
  -1  -4  -6 400.082 10.5381   1 
  -1  -4  -6 398.562 10.8968   3 
   1   4   6 413.960 11.2391   4 
   1   4   6 413.796 10.7705   5 
   1   4   6 421.080 10.8226   6 
  -2  -4  -6 249.294 7.04879   2 
  -2  -4  -6 255.858 6.78110   1 
  -2  -4  -6 250.218 6.98487   6 
  -2  -4  -6 247.253 6.96393   3 
   2   4   6 258.702 7.41639   4 
   2   4   6 256.587 6.86903   5 
   2   4   6 274.851 7.00332   6 
  -3  -4  -6 2.17005 0.40006   3 
  -3  -4  -6 2.39002 0.49444   2 
  -3  -4  -6 2.30452 0.41595   6 
  -3  -4  -6 2.67786 0.43414   1 
   3   4   6 2.84183 0.43430   3 
   3   4   6 1.85613 0.66385   4 
   3   4   6 2.40454 0.40793   6 
   3   4   6 1.94477 0.37866   5 
  -4  -4  -6 408.678 10.8023   1 
  -4  -4  -6 417.859 10.9329   6 
  -4  -4  -6 392.580 10.8762   2 
   4   4   6 404.635 11.4246   4 
   4   4   6 418.443 10.8053   3 
   4   4   6 404.214 10.7092   5 
   4   4   6 416.245 10.8698   6 
  -5  -4  -6 19.9214 1.12872   6 
  -5  -4  -6 19.9668 1.14739   2 
  -5  -4  -6 20.1949 1.17020   1 
   5   4   6 20.6283 1.14257   6 
   5   4   6 20.1333 1.59607   4 
   5   4   6 20.4035 1.13007   3 
   5   4   6 19.7288 1.02385   5 
  -6  -4  -6 64.9241 2.47116   1 
  -6  -4  -6 70.0938 2.44601   2 
   6   4   6 70.7224 2.43556   3 
   6   4   6 70.1026 2.51686   6 
   6   4   6 71.4873 2.38997   5 
   6   4   6 71.3192 3.10223   4 
  -7  -4  -6 59.9336 2.22410   2 
  -7  -4  -6 61.8388 2.41249   1 
   7   4   6 55.7891 2.89111   4 
   7   4   6 65.0963 2.42214   6 
   7   4   6 63.6726 2.27634   5 
  -8  -4  -6 98.7667 3.51987   1 
   8   4   6 102.825 3.39596   5 
   8   4   6 106.751 3.56905   6 
   8   4   6 94.2172 4.09937   4 
  -9  -4  -6 6.15575 0.93760   1 
  -9  -4  -6 4.80194 0.85102   5 
   9   4   6 7.66602 0.94513   5 
   9   4   6 4.88717 1.27630   4 
   9   4   6 5.64425 0.91921   6 
 -10  -4  -6 349.049 9.52078   5 
 -10  -4  -6 313.211 9.58398   1 
  10   4   6 346.310 9.72659   6 
  10   4   6 322.212 10.4990   4 
 -11  -4  -6 5.71357 1.04472   1 
  11   4   6 6.05802 1.57094   4 
 -12  -4  -6 38.3349 2.27048   1 
  12   4   6 33.8938 2.90361   4 
  10  -5  -6 4.42533 1.31091   4 
   9  -5  -6 35.0275 2.01638   6 
   9  -5  -6 32.7121 2.47666   3 
   9  -5  -6 33.5069 2.69753   4 
  -9   5   6 32.7554 2.31737   5 
   8  -5  -6 27.5950 2.15896   3 
   8  -5  -6 24.7644 1.66228   6 
   8  -5  -6 27.2426 2.31569   4 
  -8   5   6 23.7125 1.96594   5 
   7  -5  -6 108.497 4.27990   3 
   7  -5  -6 104.610 3.69942   6 
   7  -5  -6 104.624 4.48458   4 
  -7   5   6 102.040 4.08352   5 
  -7   5   6 102.270 4.47370   4 
   6  -5  -6 46.5808 2.07110   6 
   6  -5  -6 48.6614 2.74091   4 
   6  -5  -6 47.1549 2.53282   3 
  -6   5   6 46.1457 2.39705   5 
  -6   5   6 44.5960 2.65835   4 
   5  -5  -6 135.542 4.34754   6 
   5  -5  -6 142.128 4.90241   3 
   5  -5  -6 142.026 5.11698   4 
  -5   5   6 143.493 4.76229   5 
  -5   5   6 136.144 5.06211   4 
   4  -5  -6 1.39053 0.72672   3 
   4  -5  -6 3.58436 0.57977   2 
   4  -5  -6 1.99172 0.51391   6 
  -4   5   6 2.45183 0.78817   4 
  -4   5   6 2.74171 0.69880   5 
   3  -5  -6 180.554 5.26487   2 
   3  -5  -6 185.265 5.28882   6 
   3  -5  -6 177.827 5.69119   3 
  -3   5   6 187.068 5.93630   4 
  -3   5   6 183.823 5.57607   5 
   2  -5  -6 -0.1791 0.30120   6 
   2  -5  -6 0.05860 0.49198   3 
   2  -5  -6 0.03090 0.40677   2 
  -2   5   6 0.30401 0.43630   5 
  -2   5   6 0.85441 0.58017   4 
   1  -5  -6 555.346 14.5838   2 
   1  -5  -6 532.625 14.8022   3 
   1  -5  -6 575.353 14.5398   6 
  -1   5   6 565.227 15.0529   4 
  -1   5   6 552.411 14.6097   5 
   0  -5  -6 57.6606 2.05624   6 
   0  -5  -6 56.3548 2.26193   3 
   0  -5  -6 60.1870 2.17165   2 
   0   5   6 59.6420 2.07271   5 
   0   5   6 58.7143 2.00805   6 
   0   5   6 59.0297 2.48044   4 
  -1  -5  -6 314.162 8.32978   1 
  -1  -5  -6 326.237 8.80204   2 
  -1  -5  -6 314.201 8.84518   3 
  -1  -5  -6 317.893 8.69067   6 
   1   5   6 329.574 8.60918   5 
   1   5   6 330.285 9.17007   4 
   1   5   6 333.286 8.65128   6 
  -2  -5  -6 142.303 4.16877   2 
  -2  -5  -6 135.301 3.77781   1 
  -2  -5  -6 131.454 4.11570   3 
  -2  -5  -6 138.512 4.05381   6 
   2   5   6 135.609 3.99088   6 
   2   5   6 134.925 4.48232   4 
   2   5   6 135.700 3.87053   5 
   2   5   6 144.650 4.01704   6 
  -3  -5  -6 257.310 6.93076   1 
  -3  -5  -6 260.453 7.22726   2 
  -3  -5  -6 264.846 7.17961   3 
  -3  -5  -6 249.901 7.11735   6 
   3   5   6 259.747 7.62059   4 
   3   5   6 254.091 6.89317   5 
   3   5   6 269.992 7.11281   6 
  -4  -5  -6 135.916 4.16734   6 
  -4  -5  -6 136.756 4.02207   1 
  -4  -5  -6 138.779 4.21854   2 
   4   5   6 137.194 4.64241   4 
   4   5   6 140.956 4.13448   6 
   4   5   6 137.875 3.89942   5 
   4   5   6 142.206 4.18217   3 
  -5  -5  -6 71.1958 2.49697   1 
  -5  -5  -6 75.1947 2.62832   2 
  -5  -5  -6 69.8948 2.56698   6 
   5   5   6 77.6562 2.62137   3 
   5   5   6 76.6574 2.57608   6 
   5   5   6 74.6601 3.10600   4 
   5   5   6 74.7890 2.34622   5 
  -6  -5  -6 0.32868 0.42044   1 
  -6  -5  -6 0.07671 0.42281   2 
  -6  -5  -6 0.21693 0.37210   6 
   6   5   6 0.14471 0.36165   6 
   6   5   6 0.05512 0.43675   3 
   6   5   6 -0.1491 0.32846   5 
   6   5   6 0.04685 0.63069   4 
  -7  -5  -6 14.1102 1.10152   1 
  -7  -5  -6 13.3345 1.01316   2 
   7   5   6 15.6954 1.18503   3 
   7   5   6 13.0018 1.04239   6 
   7   5   6 14.5288 0.95507   5 
   7   5   6 12.9786 1.40788   4 
  -8  -5  -6 2.92227 0.67742   1 
  -8  -5  -6 2.87130 0.56301   2 
   8   5   6 4.59862 0.74475   3 
   8   5   6 2.16947 1.00505   4 
   8   5   6 3.45779 0.71186   6 
  -9  -5  -6 131.978 4.36537   1 
   9   5   6 124.415 5.03903   4 
 -10  -5  -6 14.6467 1.33534   1 
  10   5   6 13.4238 1.84164   4 
 -11  -5  -6 72.1847 3.10810   1 
  11   5   6 64.5177 3.66925   4 
 -12  -5  -6 18.1704 1.63614   1 
  12   5   6 16.4613 2.08762   4 
   9  -6  -6 5.93000 1.00277   6 
   9  -6  -6 5.79956 1.45913   4 
   9  -6  -6 8.64667 1.45915   3 
  -9   6   6 5.84788 1.43641   4 
  -9   6   6 7.40239 1.31819   5 
   8  -6  -6 75.6702 3.72566   3 
   8  -6  -6 77.9047 4.00970   4 
   8  -6  -6 75.4565 3.04812   6 
  -8   6   6 74.4949 3.53469   5 
  -8   6   6 78.8365 4.01438   4 
   7  -6  -6 2.74131 1.12239   4 
   7  -6  -6 3.70132 0.80964   6 
   7  -6  -6 4.03891 1.11178   3 
  -7   6   6 3.12613 0.96051   5 
  -7   6   6 3.16559 1.18901   4 
   6  -6  -6 124.732 5.01713   4 
   6  -6  -6 122.501 4.08730   6 
   6  -6  -6 124.306 4.76794   3 
  -6   6   6 127.080 5.05140   4 
  -6   6   6 126.013 4.59779   5 
   5  -6  -6 34.3038 1.66712   6 
   5  -6  -6 38.2155 2.21930   3 
   5  -6  -6 35.0542 2.32714   4 
  -5   6   6 33.6979 2.29993   4 
  -5   6   6 35.6949 2.05450   5 
   4  -6  -6 65.6697 2.38157   2 
   4  -6  -6 59.5527 2.87044   3 
   4  -6  -6 62.8887 2.34444   6 
  -4   6   6 64.7868 2.73214   5 
  -4   6   6 63.1319 3.03855   4 
   3  -6  -6 82.7751 2.78670   6 
   3  -6  -6 83.2684 2.85302   2 
   3  -6  -6 86.8722 3.32893   3 
  -3   6   6 82.5138 3.10814   5 
  -3   6   6 80.9123 3.43257   4 
   2  -6  -6 127.882 4.47563   3 
   2  -6  -6 138.328 4.16398   2 
   2  -6  -6 138.461 4.05582   6 
  -2   6   6 130.074 4.66748   4 
  -2   6   6 138.187 4.30381   5 
   1  -6  -6 32.3553 1.54828   2 
   1  -6  -6 32.8826 1.39932   6 
   1  -6  -6 29.9273 1.69444   3 
  -1   6   6 30.5714 1.84571   4 
  -1   6   6 31.4173 1.53943   5 
   0  -6  -6 316.743 8.24311   6 
   0  -6  -6 304.858 8.37218   2 
   0  -6  -6 295.319 8.56349   3 
   0   6   6 301.028 8.21293   5 
   0   6   6 298.942 8.79078   4 
  -1  -6  -6 31.0754 1.39045   6 
  -1  -6  -6 32.8296 1.64428   3 
  -1  -6  -6 36.3674 1.61504   2 
   1   6   6 33.3924 1.36387   5 
   1   6   6 34.1907 1.89160   4 
  -2  -6  -6 220.255 6.31670   2 
  -2  -6  -6 224.751 5.90772   1 
  -2  -6  -6 222.895 6.17328   6 
  -2  -6  -6 215.805 6.35963   3 
   2   6   6 225.237 5.96134   5 
   2   6   6 215.137 6.64453   4 
  -3  -6  -6 -0.1246 0.39817   2 
  -3  -6  -6 0.22098 0.31169   1 
  -3  -6  -6 0.40342 0.30833   6 
  -3  -6  -6 0.05663 0.36869   3 
   3   6   6 0.35449 0.62308   4 
   3   6   6 0.61040 0.26926   5 
  -4  -6  -6 454.329 12.2615   6 
  -4  -6  -6 455.623 12.3433   2 
  -4  -6  -6 458.101 12.0821   1 
   4   6   6 468.029 12.8412   4 
   4   6   6 465.418 12.3755   3 
   4   6   6 457.553 11.8687   5 
   4   6   6 469.245 12.2098   6 
  -5  -6  -6 46.3030 1.82881   1 
  -5  -6  -6 46.3394 1.90438   6 
  -5  -6  -6 45.7595 2.01913   2 
   5   6   6 45.6877 1.55766   5 
   5   6   6 46.9176 2.41374   4 
   5   6   6 45.7186 1.97078   3 
  -6  -6  -6 194.476 5.82016   1 
  -6  -6  -6 200.501 5.92275   6 
  -6  -6  -6 202.449 5.94456   2 
   6   6   6 212.130 6.02487   3 
   6   6   6 201.568 6.53626   4 
  -7  -6  -6 8.98666 0.87945   6 
  -7  -6  -6 7.35860 0.82517   2 
  -7  -6  -6 7.41659 0.84136   1 
   7   6   6 8.34789 0.90738   3 
   7   6   6 7.08610 1.19753   4 
  -8  -6  -6 123.241 4.03692   2 
  -8  -6  -6 122.432 4.11634   1 
   8   6   6 125.388 4.18005   3 
   8   6   6 127.307 4.82646   4 
  -9  -6  -6 0.60580 0.64787   1 
   9   6   6 -1.2335 0.90151   4 
 -10  -6  -6 90.3029 3.54714   1 
  10   6   6 91.0158 4.21534   4 
 -11  -6  -6 38.5057 2.24589   1 
  11   6   6 40.2722 2.89910   4 
 -12  -6  -6 17.8334 1.62201   1 
  12   6   6 16.1769 2.03877   4 
  13   6   6 17.4704 2.20272   4 
   8  -7  -6 -0.2736 1.00953   4 
   8  -7  -6 -0.9519 0.57048   6 
   8  -7  -6 0.70173 0.94251   3 
  -8   7   6 -0.5150 0.73914   5 
  -8   7   6 -0.9116 0.94790   4 
   7  -7  -6 178.203 6.42904   3 
   7  -7  -6 173.002 5.57296   6 
   7  -7  -6 181.931 6.85922   4 
  -7   7   6 183.217 6.30557   5 
  -7   7   6 185.175 6.89452   4 
   6  -7  -6 13.6374 1.57613   3 
   6  -7  -6 11.6275 1.02094   6 
   6  -7  -6 11.0627 1.54175   4 
  -6   7   6 10.1086 1.31308   5 
  -6   7   6 11.8001 1.61363   4 
   5  -7  -6 91.8659 3.92418   3 
   5  -7  -6 91.7932 3.18736   6 
   5  -7  -6 90.4774 4.10812   4 
  -5   7   6 97.1634 4.19461   4 
  -5   7   6 94.4448 3.72389   5 
   4  -7  -6 2.70233 0.86428   3 
   4  -7  -6 2.73302 0.58428   6 
  -4   7   6 2.55734 0.92780   4 
  -4   7   6 3.42430 0.83007   5 
   3  -7  -6 168.996 4.98738   6 
   3  -7  -6 173.467 5.67928   3 
  -3   7   6 167.609 5.88024   4 
   2  -7  -6 3.53516 0.81397   3 
   2  -7  -6 3.48107 0.66375   2 
   2  -7  -6 3.45141 0.53235   6 
  -2   7   6 3.50088 0.82931   4 
  -2   7   6 3.35250 0.68062   5 
   1  -7  -6 159.718 4.66161   6 
   1  -7  -6 164.931 5.21714   3 
   1  -7  -6 159.685 4.87422   2 
  -1   7   6 160.209 4.85160   5 
  -1   7   6 154.155 5.33081   4 
   0  -7  -6 8.43019 0.83272   2 
   0  -7  -6 7.42922 0.67288   6 
   0  -7  -6 7.05960 0.86534   3 
   0   7   6 7.63886 1.02169   4 
   0   7   6 7.38399 0.69826   5 
  -1  -7  -6 192.879 5.62493   2 
  -1  -7  -6 182.363 5.73689   3 
  -1  -7  -6 187.160 5.36810   6 
   1   7   6 189.049 6.00936   4 
   1   7   6 193.619 5.30176   5 
  -2  -7  -6 168.141 4.86075   6 
  -2  -7  -6 159.766 5.12622   3 
  -2  -7  -6 169.001 5.08146   2 
   2   7   6 166.432 5.45419   4 
   2   7   6 172.233 4.63380   5 
  -3  -7  -6 205.199 6.23546   3 
  -3  -7  -6 225.073 6.27071   2 
  -3  -7  -6 211.951 5.83488   1 
  -3  -7  -6 210.475 6.01713   6 
   3   7   6 210.811 6.60036   4 
  -4  -7  -6 1.11153 0.42583   6 
  -4  -7  -6 1.24547 0.49474   3 
  -4  -7  -6 -0.0409 0.52840   2 
  -4  -7  -6 1.11963 0.46125   1 
   4   7   6 1.42955 0.59147   3 
   4   7   6 -0.0509 0.73075   4 
  -5  -7  -6 478.899 13.2430   2 
  -5  -7  -6 496.609 13.0141   1 
  -5  -7  -6 479.668 13.1120   6 
   5   7   6 490.177 13.7476   4 
   5   7   6 516.038 13.3677   3 
  -6  -7  -6 28.3659 1.63308   2 
  -6  -7  -6 29.8194 1.53910   6 
  -6  -7  -6 29.2908 1.52320   1 
   6   7   6 29.7627 1.68574   3 
   6   7   6 29.9889 2.10128   4 
  -7  -7  -6 216.092 6.40183   2 
  -7  -7  -6 214.113 6.36248   6 
  -7  -7  -6 212.275 6.29920   1 
   7   7   6 213.394 7.01120   4 
   7   7   6 217.324 6.50367   3 
  -8  -7  -6 0.33218 0.55518   1 
  -8  -7  -6 -0.3419 0.55088   2 
   8   7   6 -0.4287 0.63132   3 
   8   7   6 -1.7101 0.83232   4 
  -9  -7  -6 112.324 3.99873   1 
  -9  -7  -6 117.399 3.93053   2 
   9   7   6 111.971 4.62962   4 
   9   7   6 113.968 4.11493   3 
 -10  -7  -6 21.2134 1.63140   1 
  10   7   6 18.7694 1.95327   4 
 -11  -7  -6 58.8503 2.83562   1 
  11   7   6 58.0334 3.35558   4 
 -12  -7  -6 14.4237 1.52383   1 
  12   7   6 15.5597 1.97561   4 
  13   7   6 26.3752 2.59598   4 
   7  -8  -6 -0.2092 0.95649   4 
   7  -8  -6 -0.3714 0.55571   6 
   7  -8  -6 1.43338 0.96834   3 
  -7   8   6 -0.8088 0.91486   4 
  -7   8   6 0.06418 0.80497   5 
   6  -8  -6 79.0215 4.04122   4 
   6  -8  -6 81.4056 2.95117   6 
   6  -8  -6 76.4239 3.74682   3 
  -6   8   6 77.4851 4.03332   4 
  -6   8   6 79.5565 3.57159   5 
   5  -8  -6 49.8000 2.10571   6 
   5  -8  -6 53.2602 2.88021   3 
  -5   8   6 49.9603 3.02716   4 
  -5   8   6 48.5363 2.62937   5 
   4  -8  -6 102.705 4.24025   3 
   4  -8  -6 103.261 3.40488   6 
  -4   8   6 107.464 3.98391   5 
  -4   8   6 102.810 4.42524   4 
   3  -8  -6 0.14926 0.66454   3 
   3  -8  -6 -0.2012 0.50129   2 
   3  -8  -6 0.37499 0.36929   6 
  -3   8   6 0.24511 0.57461   5 
  -3   8   6 0.50849 0.73686   4 
   2  -8  -6 272.873 7.83421   2 
   2  -8  -6 277.199 7.56185   6 
   2  -8  -6 274.029 8.30673   3 
  -2   8   6 269.131 8.51143   4 
  -2   8   6 272.670 7.93827   5 
   1  -8  -6 16.5473 1.25356   2 
   1  -8  -6 17.3916 1.44262   3 
   1  -8  -6 16.7511 1.02249   6 
  -1   8   6 15.5770 1.23656   5 
  -1   8   6 15.8578 1.53536   4 
   0  -8  -6 192.228 6.22654   3 
   0  -8  -6 201.765 6.01713   2 
   0  -8  -6 208.815 5.72657   6 
   0   8   6 204.826 5.79888   5 
   0   8   6 194.359 6.43743   4 
  -1  -8  -6 223.207 6.22559   6 
  -1  -8  -6 228.284 6.57154   2 
  -1  -8  -6 208.897 6.66558   3 
   1   8   6 218.014 6.93435   4 
   1   8   6 227.374 6.14843   5 
  -2  -8  -6 20.1480 1.12320   6 
  -2  -8  -6 19.7971 1.42514   3 
  -2  -8  -6 23.8730 1.44661   2 
   2   8   6 20.9736 1.69438   4 
  -3  -8  -6 14.5513 0.99813   6 
  -3  -8  -6 15.0185 1.27450   2 
  -3  -8  -6 17.0643 0.96288   1 
  -3  -8  -6 17.5631 1.36102   3 
   3   8   6 16.8947 1.59289   4 
  -4  -8  -6 504.314 13.6987   2 
  -4  -8  -6 527.632 13.8166   3 
  -4  -8  -6 488.616 13.4143   6 
  -4  -8  -6 507.877 13.2999   1 
   4   8   6 498.623 13.7514   3 
   4   8   6 507.888 14.1133   4 
  -5  -8  -6 21.6450 1.27314   6 
  -5  -8  -6 21.7573 1.27041   1 
  -5  -8  -6 19.9940 1.44515   2 
   5   8   6 18.5983 1.79533   4 
   5   8   6 19.0810 1.47554   3 
  -6  -8  -6 137.737 4.30953   1 
  -6  -8  -6 135.236 4.34725   6 
  -6  -8  -6 138.971 4.53995   2 
   6   8   6 134.750 4.94378   4 
   6   8   6 140.756 4.63730   3 
  -7  -8  -6 83.5243 3.08139   1 
  -7  -8  -6 83.0865 3.17493   2 
  -7  -8  -6 90.4592 3.15266   6 
   7   8   6 83.9100 3.30791   3 
   7   8   6 83.1813 3.67877   4 
  -8  -8  -6 108.140 3.71545   1 
  -8  -8  -6 102.691 3.70176   2 
  -8  -8  -6 104.908 3.70864   6 
   8   8   6 104.759 3.88030   3 
   8   8   6 97.8434 4.20208   4 
  -9  -8  -6 -0.9004 0.60367   1 
  -9  -8  -6 -0.6738 0.59762   2 
   9   8   6 -1.1666 0.91891   4 
   9   8   6 -0.5778 0.70543   3 
 -10  -8  -6 82.7126 3.36377   1 
  10   8   6 79.7761 3.89466   4 
  10   8   6 81.1751 3.45071   3 
 -11  -8  -6 0.49098 0.80089   1 
  11   8   6 0.62788 1.17110   4 
 -12  -8  -6 30.5952 2.10816   1 
  12   8   6 28.7621 2.60735   4 
  13   8   6 4.75776 1.51561   4 
  -7   9   6 40.9183 2.66084   5 
   6  -9  -6 1.42835 0.56028   6 
   6  -9  -6 0.53861 0.91246   3 
  -6   9   6 0.47448 1.03503   4 
  -6   9   6 0.02579 0.79462   5 
   5  -9  -6 80.7529 2.85771   6 
   5  -9  -6 74.2701 3.73158   3 
  -5   9   6 84.7573 3.61001   5 
  -5   9   6 79.0245 4.03202   4 
   4  -9  -6 51.3212 2.88121   3 
   4  -9  -6 50.5244 2.05487   6 
  -4   9   6 49.9934 3.02654   4 
  -4   9   6 54.5462 2.69168   5 
   3  -9  -6 178.615 6.17349   3 
   3  -9  -6 178.080 5.22555   6 
  -3   9   6 177.546 5.81341   5 
  -3   9   6 176.581 6.40808   4 
   2  -9  -6 2.56394 0.50591   6 
   2  -9  -6 1.54373 0.68331   2 
   2  -9  -6 3.23336 0.88789   3 
  -2   9   6 2.23083 0.91698   4 
  -2   9   6 1.03658 0.67363   5 
   1  -9  -6 201.294 6.39894   3 
   1  -9  -6 200.655 6.01571   2 
   1  -9  -6 197.289 5.58685   6 
  -1   9   6 189.273 5.87475   5 
  -1   9   6 185.122 6.49019   4 
   0  -9  -6 -0.0777 0.34102   6 
   0  -9  -6 -0.5129 0.56393   2 
   0  -9  -6 -0.4063 0.55372   3 
   0   9   6 0.12632 0.74777   4 
  -1  -9  -6 159.866 4.78452   6 
  -1  -9  -6 168.813 5.22184   2 
  -1  -9  -6 164.836 5.42102   3 
   1   9   6 161.195 5.59706   4 
  -2  -9  -6 225.939 6.98518   3 
  -2  -9  -6 238.715 6.88647   2 
  -2  -9  -6 225.374 6.43704   6 
   2   9   6 224.747 7.20751   4 
  -3  -9  -6 64.1367 2.72550   3 
  -3  -9  -6 59.7866 2.28452   6 
  -3  -9  -6 64.8201 2.65189   2 
   3   9   6 63.2001 2.94641   4 
  -4  -9  -6 -0.6412 0.48288   3 
  -4  -9  -6 0.16289 0.40411   6 
  -4  -9  -6 -0.6520 0.55950   2 
  -4  -9  -6 -0.4199 0.38777   1 
   4   9   6 -1.0600 0.79421   4 
   4   9   6 0.09640 0.62962   3 
  -5  -9  -6 523.562 13.7219   2 
  -5  -9  -6 491.453 13.2689   1 
  -5  -9  -6 480.740 13.3289   6 
   5   9   6 502.663 14.1143   4 
   5   9   6 499.017 13.7772   3 
  -6  -9  -6 86.7940 3.10846   1 
  -6  -9  -6 86.9498 3.37039   2 
  -6  -9  -6 86.7964 3.10750   6 
   6   9   6 88.2521 3.77655   4 
   6   9   6 91.4948 3.50998   3 
  -7  -9  -6 49.3627 2.21420   1 
  -7  -9  -6 53.0547 2.43128   2 
  -7  -9  -6 45.5478 2.15423   6 
   7   9   6 47.8799 2.72395   4 
   7   9   6 48.5530 2.47343   3 
  -8  -9  -6 11.7162 1.12307   1 
  -8  -9  -6 11.0771 1.18150   2 
  -8  -9  -6 12.4780 1.13466   6 
   8   9   6 9.77336 1.23534   3 
   8   9   6 9.13480 1.41474   4 
  -9  -9  -6 75.3802 3.06764   2 
  -9  -9  -6 70.5984 2.97991   1 
   9   9   6 71.5776 3.20196   3 
   9   9   6 69.1074 3.49347   4 
 -10  -9  -6 0.50052 0.71602   1 
  10   9   6 1.12940 1.13972   4 
 -11  -9  -6 65.2128 3.03640   1 
  11   9   6 62.6653 3.52867   4 
 -12  -9  -6 3.60568 1.04725   1 
  12   9   6 0.37258 1.33295   4 
  13   9   6 31.3383 2.71096   4 
  -6  10   6 88.3173 4.00071   5 
   5 -10  -6 4.68292 1.20023   3 
   5 -10  -6 3.49627 0.64401   6 
  -5  10   6 3.77415 1.10900   5 
  -5  10   6 3.45086 1.25389   4 
   4 -10  -6 85.1523 2.96053   6 
   4 -10  -6 87.0181 4.00102   3 
  -4  10   6 83.3164 4.17377   4 
  -4  10   6 88.8415 3.71480   5 
   3 -10  -6 47.3554 2.71738   3 
   3 -10  -6 49.1362 1.95707   6 
  -3  10   6 45.6045 2.89055   4 
  -3  10   6 47.4717 2.48239   5 
   2 -10  -6 96.9398 4.05457   3 
   2 -10  -6 97.3940 3.16741   6 
   2 -10  -6 100.466 3.67073   2 
  -2  10   6 92.8022 4.19634   4 
   1 -10  -6 3.03392 0.94029   3 
   1 -10  -6 2.84869 0.83548   2 
   1 -10  -6 2.92515 0.54113   6 
  -1  10   6 2.79105 1.00206   4 
   0 -10  -6 341.164 10.1804   3 
   0 -10  -6 351.009 9.86087   2 
   0 -10  -6 347.022 9.31676   6 
   0  10   6 332.106 10.3438   4 
  -1 -10  -6 24.0725 1.25966   6 
  -1 -10  -6 21.5814 1.64299   2 
  -1 -10  -6 24.0833 1.74596   3 
   1  10   6 26.7758 1.99608   4 
  -2 -10  -6 6.34936 1.01641   3 
  -2 -10  -6 9.46000 0.78515   6 
  -2 -10  -6 8.27108 1.03671   2 
   2  10   6 5.72465 1.13541   4 
  -3 -10  -6 53.7713 2.52422   2 
  -3 -10  -6 56.5511 2.14835   6 
  -3 -10  -6 55.0762 2.61247   3 
   3  10   6 52.9262 2.81913   4 
  -4 -10  -6 58.3462 2.29855   6 
  -4 -10  -6 62.4436 2.73752   2 
  -4 -10  -6 59.5692 2.75413   3 
   4  10   6 64.5952 2.88107   3 
   4  10   6 62.9966 3.07910   4 
  -5 -10  -6 0.66428 0.47625   1 
  -5 -10  -6 -0.3359 0.60710   2 
  -5 -10  -6 0.04034 0.44389   6 
   5  10   6 -0.0603 0.68250   3 
   5  10   6 0.16428 0.86428   4 
  -6 -10  -6 178.026 5.80426   2 
  -6 -10  -6 181.499 5.45305   1 
  -6 -10  -6 178.965 5.47842   6 
   6  10   6 184.365 5.98638   3 
   6  10   6 177.876 6.20041   4 
  -7 -10  -6 8.74827 0.97129   6 
  -7 -10  -6 8.36486 1.14750   2 
  -7 -10  -6 7.54073 0.98177   1 
   7  10   6 9.49244 1.42278   4 
   7  10   6 9.03827 1.20688   3 
  -8 -10  -6 121.630 4.22342   6 
  -8 -10  -6 127.772 4.46805   2 
  -8 -10  -6 122.118 4.25019   1 
   8  10   6 123.461 4.62000   3 
   8  10   6 122.930 4.87784   4 
  -9 -10  -6 3.64898 0.82825   6 
  -9 -10  -6 2.54767 0.86020   1 
  -9 -10  -6 1.72314 0.88214   2 
   9  10   6 2.14222 1.16188   4 
   9  10   6 3.37296 0.99334   3 
 -10 -10  -6 23.4873 1.75467   1 
 -10 -10  -6 25.9340 1.85782   2 
  10  10   6 25.8647 2.00781   3 
  10  10   6 23.3565 2.24333   4 
 -11 -10  -6 1.08243 0.82939   1 
  11  10   6 1.79628 0.97517   3 
  11  10   6 0.95485 1.25795   4 
 -12 -10  -6 19.1016 1.74127   1 
  12  10   6 20.5069 2.17138   4 
  13  10   6 2.60591 1.41938   4 
   4 -11  -6 11.3715 0.91265   6 
   4 -11  -6 10.7254 1.53819   3 
  -4  11   6 13.2239 1.84104   4 
   3 -11  -6 136.025 4.23745   6 
   3 -11  -6 141.791 5.46098   3 
   2 -11  -6 10.4753 1.41690   3 
   2 -11  -6 10.4749 0.85588   6 
  -2  11   6 8.78750 1.46447   4 
   1 -11  -6 67.5966 2.42145   6 
   1 -11  -6 65.8271 3.25277   3 
   1 -11  -6 69.9504 2.99860   2 
  -1  11   6 64.3143 3.40441   4 
   0 -11  -6 32.7226 2.00289   2 
   0 -11  -6 33.6056 1.52480   6 
   0 -11  -6 32.4010 2.17598   3 
   0  11   6 29.7039 2.28412   4 
  -1 -11  -6 107.930 4.24033   3 
  -1 -11  -6 113.618 4.07478   2 
  -1 -11  -6 112.063 3.48171   6 
   1  11   6 100.597 4.36308   4 
  -2 -11  -6 30.6995 1.48338   6 
  -2 -11  -6 31.4213 1.96630   2 
  -2 -11  -6 33.5070 2.09467   3 
   2  11   6 32.3608 2.26674   4 
  -3 -11  -6 125.707 4.64371   3 
  -3 -11  -6 118.224 3.91787   6 
  -3 -11  -6 132.203 4.52222   2 
   3  11   6 120.649 4.83351   4 
   3  11   6 130.865 4.75151   3 
  -4 -11  -6 6.32542 1.02788   3 
  -4 -11  -6 3.60161 0.91284   2 
  -4 -11  -6 4.52542 0.65578   6 
   4  11   6 3.51122 1.14553   4 
   4  11   6 6.09469 1.12109   3 
  -5 -11  -6 185.318 5.98373   2 
  -5 -11  -6 178.451 5.49120   6 
   5  11   6 183.422 6.35599   4 
   5  11   6 184.344 6.14423   3 
  -6 -11  -6 7.04683 1.10018   2 
  -6 -11  -6 7.78379 0.87283   6 
   6  11   6 9.21711 1.25066   3 
   6  11   6 5.86564 1.30059   4 
  -7 -11  -6 22.6373 1.80498   2 
  -7 -11  -6 23.6202 1.55980   6 
  -7 -11  -6 21.1186 1.54042   1 
   7  11   6 21.4731 2.03899   4 
   7  11   6 25.3343 1.92492   3 
  -8 -11  -6 17.9999 1.41292   6 
  -8 -11  -6 15.6118 1.51138   2 
  -8 -11  -6 17.1980 1.44874   1 
   8  11   6 16.2623 1.62630   3 
   8  11   6 16.4258 1.81590   4 
  -9 -11  -6 119.899 4.34470   1 
  -9 -11  -6 116.010 4.32031   6 
  -9 -11  -6 133.533 4.70554   2 
   9  11   6 124.484 5.08966   4 
   9  11   6 122.386 4.77177   3 
 -10 -11  -6 0.89150 0.85782   2 
 -10 -11  -6 0.21897 0.74299   1 
  10  11   6 -0.5328 1.02954   4 
  10  11   6 0.36281 0.86617   3 
 -11 -11  -6 72.8081 3.33144   1 
  11  11   6 75.1852 3.62561   3 
  11  11   6 79.1371 3.99693   4 
 -12 -11  -6 9.29173 1.35059   1 
  12  11   6 6.34154 1.65338   4 
   3 -12  -6 58.7174 2.19263   6 
   3 -12  -6 54.9203 3.24883   3 
  -3  12   6 56.2422 3.49324   4 
   2 -12  -6 38.7758 2.58646   3 
   2 -12  -6 35.5707 1.62108   6 
  -2  12   6 38.1188 2.77183   4 
   1 -12  -6 18.6104 1.78378   3 
   1 -12  -6 16.8332 1.57442   2 
   1 -12  -6 20.3661 1.16448   6 
  -1  12   6 15.9554 1.85080   4 
   0 -12  -6 110.594 3.49900   6 
   0 -12  -6 112.963 4.55270   3 
   0 -12  -6 114.553 4.24084   2 
   0  12   6 101.051 4.59796   4 
  -1 -12  -6 1.95156 0.85818   2 
  -1 -12  -6 2.97427 0.56512   6 
  -1 -12  -6 1.19431 0.83203   3 
   1  12   6 2.91591 1.13780   4 
  -2 -12  -6 34.1375 2.13283   2 
  -2 -12  -6 34.2402 1.58992   6 
  -2 -12  -6 34.6000 2.22119   3 
   2  12   6 32.6493 2.40787   4 
  -3 -12  -6 0.04462 0.75298   2 
  -3 -12  -6 1.01154 0.48682   6 
  -3 -12  -6 0.23354 0.68626   3 
   3  12   6 -0.7573 0.92113   4 
   3  12   6 -0.0272 0.86311   3 
  -4 -12  -6 94.2687 3.80507   2 
  -4 -12  -6 95.5863 3.23085   6 
  -4 -12  -6 91.1548 3.89369   3 
   4  12   6 95.8888 4.01658   3 
   4  12   6 92.2665 4.10730   4 
  -5 -12  -6 3.67290 0.98778   2 
  -5 -12  -6 3.39170 0.66959   6 
   5  12   6 6.22844 1.16732   3 
   5  12   6 4.22965 1.29073   4 
  -6 -12  -6 125.577 4.62520   2 
  -6 -12  -6 118.645 4.07890   6 
   6  12   6 123.778 4.94699   4 
   6  12   6 125.926 4.81487   3 
  -7 -12  -6 0.40615 0.57507   6 
  -7 -12  -6 -0.4178 0.81467   2 
   7  12   6 -1.2476 0.99907   4 
   7  12   6 0.06123 0.85555   3 
  -8 -12  -6 98.9245 3.72766   6 
  -8 -12  -6 110.089 4.24092   2 
  -8 -12  -6 107.164 3.81541   1 
   8  12   6 99.8153 4.28185   3 
   8  12   6 98.3030 4.46235   4 
  -9 -12  -6 17.1995 1.42786   6 
  -9 -12  -6 14.3300 1.59017   2 
  -9 -12  -6 15.9447 1.41768   1 
   9  12   6 22.1860 1.99140   3 
   9  12   6 16.5856 1.91052   4 
 -10 -12  -6 10.6917 1.32296   1 
 -10 -12  -6 11.4627 1.47661   2 
 -10 -12  -6 11.9587 1.28972   6 
  10  12   6 9.45742 1.65032   4 
  10  12   6 11.5173 1.58213   3 
 -11 -12  -6 1.40096 0.99669   2 
 -11 -12  -6 2.61068 0.94132   1 
  11  12   6 0.48651 1.24160   4 
  11  12   6 1.89827 1.07563   3 
 -12 -12  -6 5.31549 1.17570   1 
  12  12   6 3.33323 1.23904   3 
   1 -13  -6 49.1191 1.90935   6 
   1 -13  -6 46.0076 2.87587   3 
  -1  13   6 51.0062 3.21205   4 
   0 -13  -6 15.1718 1.49624   2 
   0 -13  -6 11.8086 1.55043   3 
   0 -13  -6 12.7278 0.93881   6 
   0  13   6 13.6890 1.83776   4 
  -1 -13  -6 36.9326 2.34147   2 
  -1 -13  -6 38.0739 2.49313   3 
  -1 -13  -6 35.7789 1.63069   6 
   1  13   6 37.7859 2.72678   4 
  -2 -13  -6 41.8413 1.80380   6 
  -2 -13  -6 43.5524 2.49233   2 
  -2 -13  -6 41.9949 2.55703   3 
   2  13   6 37.2830 2.68662   4 
  -3 -13  -6 73.1037 2.63352   6 
  -3 -13  -6 66.6804 3.34159   3 
  -3 -13  -6 74.8156 3.32476   2 
   3  13   6 70.0900 3.64247   4 
   3  13   6 73.1384 3.59275   3 
  -4 -13  -6 -0.1828 0.41872   6 
  -4 -13  -6 -0.5352 0.76791   2 
   4  13   6 -1.3406 0.83962   3 
   4  13   6 -1.2161 0.97569   4 
  -5 -13  -6 74.6909 3.39325   2 
  -5 -13  -6 75.4948 2.80105   6 
   5  13   6 71.7008 3.51603   3 
   5  13   6 73.7031 3.72472   4 
  -6 -13  -6 -0.7280 0.43966   6 
  -6 -13  -6 0.38967 0.82582   2 
   6  13   6 -0.2972 0.78176   3 
   6  13   6 -0.3561 1.11148   4 
  -7 -13  -6 81.1431 3.62584   2 
  -7 -13  -6 77.2999 3.06389   6 
   7  13   6 79.7142 3.89980   4 
   7  13   6 80.5235 3.78171   3 
  -8 -13  -6 7.45831 1.34702   2 
  -8 -13  -6 9.25528 1.09342   6 
   8  13   6 6.33697 1.51881   4 
   8  13   6 9.44208 1.52159   3 
  -9 -13  -6 95.7458 4.08863   2 
   9  13   6 91.8724 4.36495   4 
   9  13   6 93.6953 4.26496   3 
 -10 -13  -6 22.0924 1.79117   6 
 -10 -13  -6 22.6003 1.81305   1 
 -10 -13  -6 24.4789 2.10628   2 
  10  13   6 22.5340 2.13017   3 
 -11 -13  -6 22.2661 1.82471   1 
 -11 -13  -6 22.3069 2.03410   2 
  11  13   6 19.5085 2.02051   3 
  -1 -14  -6 0.95290 0.94562   3 
  -1 -14  -6 0.75035 0.45917   6 
  -1 -14  -6 1.05113 0.85598   2 
   1  14   6 1.54704 1.18590   4 
  -2 -14  -6 9.50308 1.39740   2 
  -2 -14  -6 10.2933 1.42405   3 
  -2 -14  -6 12.9140 0.98139   6 
   2  14   6 10.5609 1.67543   4 
   2  14   6 11.1963 1.70978   3 
  -3 -14  -6 34.7245 2.40103   2 
  -3 -14  -6 35.3622 1.66292   6 
  -3 -14  -6 36.3628 2.49998   3 
   3  14   6 36.1259 2.60370   3 
   3  14   6 33.3961 2.73517   4 
  -4 -14  -6 43.6964 1.93352   6 
  -4 -14  -6 47.5139 2.69541   2 
   4  14   6 38.1101 2.83933   4 
   4  14   6 43.6420 2.82785   3 
  -5 -14  -6 0.24080 0.86849   2 
  -5 -14  -6 0.51769 0.57170   6 
   5  14   6 0.39564 1.22402   4 
   5  14   6 1.89388 1.09664   3 
  -6 -14  -6 80.7361 3.73244   2 
  -6 -14  -6 74.7448 2.98387   6 
   6  14   6 81.1438 3.90543   3 
   6  14   6 82.2182 4.04580   4 
  -7 -14  -6 0.12381 0.63258   6 
  -7 -14  -6 -1.4971 0.81576   2 
   7  14   6 -1.8347 1.12217   4 
   7  14   6 0.88422 0.97553   3 
  -8 -14  -6 54.3513 3.04065   2 
  -8 -14  -6 56.6278 2.57810   6 
   8  14   6 51.0379 3.11032   3 
  -9 -14  -6 10.5594 1.21110   6 
  -9 -14  -6 12.4146 1.62081   2 
   9  14   6 11.4251 1.64974   3 
 -10 -14  -6 26.2505 1.84458   6 
   3  15   6 67.0455 3.80372   4 
  -4 -15  -6 3.55673 1.11130   2 
   4  15   6 4.26640 1.48577   4 
   5  15   6 76.9498 4.09601   4 
   9  11  -7 17.0050 1.90941   3 
   7  11  -7 -0.2756 0.84682   2 
  -7 -11   7 0.06293 0.75539   1 
  -7 -11   7 -0.1600 0.46397   6 
   6  11  -7 70.0844 3.49744   2 
  -6 -11   7 68.3674 2.64558   6 
  -6 -11   7 67.5415 3.31745   1 
   5  11  -7 12.4827 1.52871   2 
  -5 -11   7 10.8701 0.92683   6 
  -5 -11   7 15.0585 1.56033   1 
   4  11  -7 27.6394 2.22196   2 
  -4 -11   7 25.1389 1.29840   6 
  -4 -11   7 26.5615 1.99231   1 
   3  11  -7 2.86482 1.00295   2 
  -3 -11   7 1.86925 0.94867   1 
  -3 -11   7 2.39327 0.43409   6 
   2  11  -7 64.6390 3.34494   2 
  -2 -11   7 69.1621 3.27416   1 
   1  11  -7 17.4795 1.75283   2 
  10  10  -7 7.47799 1.31393   2 
  10  10  -7 6.67462 1.47405   3 
 -10 -10   7 9.67281 1.17457   6 
   9  10  -7 26.2736 2.36197   3 
   9  10  -7 25.7555 2.10190   2 
  -9 -10   7 28.5600 1.78097   6 
  -9 -10   7 26.2439 2.06812   1 
   8  10  -7 -0.1349 0.98285   3 
   8  10  -7 -0.1210 0.79963   2 
  -8 -10   7 -0.0731 0.71782   1 
  -8 -10   7 -0.0333 0.53118   6 
   7  10  -7 60.7478 3.12674   3 
   7  10  -7 56.4828 3.05874   2 
  -7 -10   7 57.2670 2.91968   1 
  -7 -10   7 59.6651 2.51079   6 
   6  10  -7 1.96295 0.94063   2 
  -6 -10   7 1.39206 0.57537   6 
  -6 -10   7 1.51074 0.83081   1 
   5  10  -7 68.5420 3.36149   2 
  -5 -10   7 65.3694 2.52774   6 
  -5 -10   7 70.0054 3.20011   1 
   4  10  -7 41.9620 2.60686   2 
  -4 -10   7 40.2511 2.40035   1 
  -4 -10   7 41.3626 1.75387   6 
   3  10  -7 48.3235 2.78585   2 
  -3 -10   7 45.4432 2.54094   1 
  -3 -10   7 46.7413 1.78602   6 
   2  10  -7 52.9584 2.87962   2 
  -2 -10   7 50.4576 1.77805   6 
  -2 -10   7 51.6261 2.71141   1 
   1  10  -7 64.4356 3.18542   2 
  -1 -10   7 57.4363 2.78354   5 
  -1 -10   7 60.0248 2.97210   1 
   0  10  -7 0.78429 0.80107   2 
   0  10  -7 -0.0020 0.89647   1 
   0 -10   7 0.30725 0.62452   1 
   0 -10   7 0.06092 0.67115   5 
  -1  10  -7 163.907 5.83995   1 
   1 -10   7 150.179 5.55509   5 
  11   9  -7 -1.2540 0.73571   2 
 -11  -9   7 -0.4554 0.67126   6 
  10   9  -7 65.8139 3.50906   3 
  10   9  -7 57.4454 3.06335   2 
 -10  -9   7 59.3774 3.07882   1 
 -10  -9   7 68.0627 3.01645   6 
   9   9  -7 0.15866 0.84809   2 
   9   9  -7 0.04051 1.04786   3 
  -9  -9   7 -0.1952 0.68602   6 
  -9  -9   7 -0.1727 0.74356   1 
   8   9  -7 104.621 4.35776   3 
   8   9  -7 101.053 4.21276   2 
  -8  -9   7 101.482 4.10660   1 
  -8  -9   7 100.534 3.73324   6 
   7   9  -7 -0.4286 0.86700   3 
   7   9  -7 -0.6659 0.73982   2 
  -7  -9   7 -0.7374 0.49409   6 
  -7  -9   7 -0.4705 0.63508   1 
   6   9  -7 89.1583 3.87539   2 
   6   9  -7 95.3640 3.88052   3 
  -6  -9   7 92.6312 3.76584   1 
  -6  -9   7 89.0689 3.26225   6 
   5   9  -7 8.18143 1.25073   2 
  -5  -9   7 7.41231 1.13998   1 
  -5  -9   7 7.86671 0.81093   6 
   4   9  -7 92.3141 3.95074   2 
  -4  -9   7 96.7902 3.57720   5 
  -4  -9   7 93.1872 3.14644   6 
  -4  -9   7 95.9048 3.81728   1 
   3   9  -7 28.2328 2.05874   2 
  -3  -9   7 26.7919 1.32077   6 
  -3  -9   7 25.8011 1.86555   1 
  -3  -9   7 25.3489 1.71891   5 
   2   9  -7 258.614 8.10788   2 
  -2  -9   7 255.065 7.70138   5 
  -2  -9   7 245.024 6.89207   6 
  -2  -9   7 255.863 7.90044   1 
   1   9  -7 10.6403 1.34986   2 
  -1  -9   7 12.3713 1.33488   1 
  -1  -9   7 11.9132 0.72541   6 
  -1  -9   7 10.9506 1.17340   5 
   0   9  -7 64.3040 3.11618   1 
   0   9  -7 62.1762 3.01386   2 
   0  -9   7 61.4602 1.93505   6 
   0  -9   7 68.0398 3.03220   1 
   0  -9   7 62.6908 2.89547   5 
  -1   9  -7 10.2958 1.40073   1 
   1  -9   7 9.81290 1.27336   1 
   1  -9   7 6.99267 1.14393   5 
  -2   9  -7 127.747 4.83127   1 
   2  -9   7 116.759 4.63093   5 
  -3   9  -7 2.77899 1.00461   1 
   3  -9   7 2.72601 0.92554   5 
  11   8  -7 32.5985 2.60065   3 
 -11  -8   7 31.8140 2.18260   1 
  10   8  -7 5.99464 1.40727   3 
  10   8  -7 5.64663 1.14347   2 
 -10  -8   7 6.07545 1.18457   1 
 -10  -8   7 5.38752 1.07245   6 
   9   8  -7 62.1576 3.06681   2 
   9   8  -7 65.8248 3.36020   3 
  -9  -8   7 66.9949 3.12227   1 
  -9  -8   7 64.3200 2.88687   6 
   8   8  -7 43.5073 2.62158   3 
   8   8  -7 39.8907 2.40833   2 
  -8  -8   7 35.5879 2.21952   1 
  -8  -8   7 38.3488 2.07256   6 
   7   8  -7 26.6999 1.98845   2 
   7   8  -7 30.6430 2.18408   3 
  -7  -8   7 31.8121 1.74247   6 
  -7  -8   7 29.2468 1.96462   1 
   6   8  -7 3.81031 1.00503   2 
   6   8  -7 6.74178 1.15073   3 
  -6  -8   7 4.56009 0.86420   5 
  -6  -8   7 4.37766 0.76099   6 
  -6  -8   7 5.79846 1.01902   1 
   5   8  -7 172.088 5.99745   2 
   5   8  -7 188.156 5.90809   3 
  -5  -8   7 178.010 5.59080   5 
  -5  -8   7 172.583 5.80662   1 
  -5  -8   7 175.379 5.33816   6 
   4   8  -7 1.10692 0.75755   2 
  -4  -8   7 3.14115 0.58905   6 
  -4  -8   7 1.64647 0.71283   5 
  -4  -8   7 1.47556 0.71436   1 
   3   8  -7 82.7682 3.53881   2 
  -3  -8   7 81.3846 3.34835   1 
  -3  -8   7 82.2091 3.20211   5 
  -3  -8   7 82.2057 2.74856   6 
   2   8  -7 84.0179 3.64045   2 
  -2  -8   7 94.5849 3.59544   1 
  -2  -8   7 89.8256 2.87378   6 
  -2  -8   7 91.2361 3.44843   5 
   1   8  -7 89.1466 3.65053   2 
  -1  -8   7 86.1587 2.72404   6 
  -1  -8   7 92.4602 3.57259   1 
  -1  -8   7 84.8282 3.39476   5 
   0   8  -7 10.6800 1.25156   2 
   0  -8   7 8.45946 1.12293   1 
   0  -8   7 10.6921 0.68404   6 
   0  -8   7 9.79206 1.13938   5 
  -1   8  -7 82.9197 3.44802   2 
  -1   8  -7 80.1737 3.49908   1 
   1  -8   7 83.0385 3.42484   1 
   1  -8   7 81.4218 2.46353   6 
   1  -8   7 84.2840 3.45147   5 
  -2   8  -7 5.79316 1.12575   1 
   2  -8   7 4.38629 0.96200   5 
   2  -8   7 4.38595 0.42082   6 
  -3   8  -7 97.7009 3.99162   1 
   3  -8   7 88.1357 3.84463   5 
  -4   8  -7 7.66934 1.26301   1 
   4  -8   7 9.48682 1.31500   5 
 -12  -7   7 24.5338 2.00078   1 
  11   7  -7 7.16693 1.48489   3 
 -11  -7   7 8.43692 1.29233   1 
  10   7  -7 24.9425 1.85695   2 
  10   7  -7 23.4982 2.23946   3 
 -10  -7   7 21.3196 1.70122   6 
 -10  -7   7 19.0910 1.67539   1 
   9   7  -7 23.9147 2.11616   3 
   9   7  -7 23.7575 1.87064   2 
  -9  -7   7 24.3503 1.82068   1 
  -9  -7   7 24.2340 1.76546   6 
   8   7  -7 134.857 5.01515   3 
   8   7  -7 128.746 4.78746   2 
  -8  -7   7 129.929 4.71534   1 
  -8  -7   7 134.988 4.57846   6 
  -8  -7   7 133.777 4.45964   5 
   7   7  -7 38.7543 2.28150   2 
   7   7  -7 42.1061 2.44467   3 
  -7  -7   7 39.0603 1.95975   6 
  -7  -7   7 34.6715 2.08959   1 
  -7  -7   7 37.5588 1.95433   5 
   6   7  -7 104.837 3.96811   3 
   6   7  -7 101.133 3.98740   2 
  -6  -7   7 100.231 3.62313   5 
  -6  -7   7 104.770 3.55170   6 
  -6  -7   7 101.151 3.84211   1 
   5   7  -7 -0.8646 0.55815   2 
   5   7  -7 -1.3035 0.61674   3 
  -5  -7   7 -0.8378 0.37991   6 
  -5  -7   7 -1.2208 0.46044   5 
  -5  -7   7 -0.5429 0.57281   1 
   4   7  -7 187.113 6.15253   2 
   4   7  -7 196.699 5.92864   3 
  -4  -7   7 184.284 5.76507   5 
  -4  -7   7 181.375 5.91382   1 
  -4  -7   7 183.703 5.45326   6 
   3   7  -7 30.8387 1.97651   2 
  -3  -7   7 30.4091 1.41665   6 
  -3  -7   7 30.4837 1.74629   5 
  -3  -7   7 29.5828 1.79656   1 
   2   7  -7 69.2317 3.00189   2 
  -2  -7   7 67.0718 2.82900   1 
  -2  -7   7 67.4360 2.75884   5 
  -2  -7   7 64.0888 2.26555   6 
   1   7  -7 14.6997 1.35175   2 
  -1  -7   7 16.5957 0.93906   6 
  -1  -7   7 15.2261 1.31616   5 
  -1  -7   7 16.6167 1.38387   1 
   0   7  -7 108.197 3.92353   2 
   0  -7   7 101.632 3.82046   1 
   0  -7   7 98.2127 3.04501   6 
   0  -7   7 101.247 3.76230   5 
  -1   7  -7 26.8428 1.88920   1 
  -1   7  -7 30.7282 1.88422   2 
   1  -7   7 29.4970 1.83188   1 
   1  -7   7 28.9070 1.82087   5 
   1  -7   7 27.8068 1.17630   6 
  -2   7  -7 117.207 4.36144   1 
  -2   7  -7 120.408 4.19178   2 
   2  -7   7 107.446 4.17488   5 
   2  -7   7 111.744 3.31441   6 
  -3   7  -7 17.0937 1.54586   1 
   3  -7   7 13.1323 1.36616   5 
   3  -7   7 13.8435 0.79723   6 
  -4   7  -7 123.108 4.53395   1 
   4  -7   7 107.017 3.29427   6 
   4  -7   7 107.314 4.35579   5 
  -5   7  -7 13.1669 1.48652   1 
   5  -7   7 14.2472 1.53107   5 
   5  -7   7 15.2340 0.90610   6 
 -12  -6   7 4.65928 1.16132   1 
  11   6  -7 39.5834 2.76716   3 
 -11  -6   7 39.1015 2.36741   1 
  10   6  -7 16.4331 1.80178   3 
 -10  -6   7 15.9378 1.48845   1 
   9   6  -7 159.991 5.84426   3 
  -9  -6   7 167.739 5.45548   6 
  -9  -6   7 160.357 5.45690   1 
  -9  -6   7 161.959 5.26997   5 
   8   6  -7 -0.5627 0.74705   2 
   8   6  -7 -1.0481 0.88926   3 
  -8  -6   7 0.59317 0.74143   1 
  -8  -6   7 0.21139 0.62339   5 
  -8  -6   7 -1.1473 0.53444   6 
   7   6  -7 100.516 3.81729   2 
   7   6  -7 104.592 3.98130   3 
  -7  -6   7 95.0395 3.68621   1 
  -7  -6   7 97.5938 3.53125   6 
  -7  -6   7 95.1640 3.50614   5 
   6   6  -7 0.88733 0.77527   3 
   6   6  -7 1.79133 0.75531   2 
  -6  -6   7 1.33733 0.60523   5 
  -6  -6   7 1.65202 0.73600   1 
  -6  -6   7 0.99936 0.56376   6 
   5   6  -7 249.445 7.62924   2 
   5   6  -7 254.667 7.51107   3 
  -5  -6   7 251.218 7.47272   1 
  -5  -6   7 249.785 7.17984   6 
  -5  -6   7 246.970 7.32548   5 
   4   6  -7 32.0087 1.80683   3 
   4   6  -7 29.0317 1.86812   2 
  -4  -6   7 31.7251 1.77260   1 
  -4  -6   7 33.8921 1.53371   6 
  -4  -6   7 29.8899 1.69784   5 
   3   6  -7 86.7447 3.13578   3 
   3   6  -7 90.6525 3.46218   2 
  -3  -6   7 88.1084 3.26126   1 
  -3  -6   7 87.2998 2.87654   6 
  -3  -6   7 83.4062 3.16778   5 
   2   6  -7 62.7332 2.69891   2 
  -2  -6   7 58.5519 2.07263   6 
  -2  -6   7 54.1823 2.43206   1 
  -2  -6   7 56.2110 2.44364   5 
   1   6  -7 195.330 6.00444   2 
  -1  -6   7 178.074 5.80347   1 
  -1  -6   7 185.890 5.82056   5 
  -1  -6   7 189.178 5.27401   6 
   0   6  -7 6.96981 0.96403   2 
   0  -6   7 9.82943 0.99979   5 
   0  -6   7 7.93352 0.63513   6 
   0  -6   7 6.78522 0.95354   1 
  -1   6  -7 56.7042 2.66374   1 
  -1   6  -7 59.2136 2.58259   2 
   1  -6   7 57.1835 1.94371   6 
   1  -6   7 57.0224 2.56123   1 
   1  -6   7 56.6938 2.54816   5 
  -2   6  -7 2.87149 0.86601   1 
  -2   6  -7 4.58055 0.82898   2 
   2  -6   7 4.77474 0.50396   6 
   2  -6   7 3.15561 0.78122   5 
  -3   6  -7 111.578 4.17464   1 
   3  -6   7 108.332 4.10266   5 
   3  -6   7 108.768 3.27288   6 
  -4   6  -7 44.8714 2.44973   1 
   4  -6   7 41.5752 1.65812   6 
   4  -6   7 47.7720 2.48661   5 
   4  -6   7 46.0960 2.71703   4 
  -5   6  -7 126.526 4.61670   1 
   5  -6   7 115.067 3.60575   6 
   5  -6   7 115.272 4.86651   4 
   5  -6   7 116.107 4.57584   5 
  -6   6  -7 4.47970 1.05898   1 
   6  -6   7 4.33767 1.06214   5 
   6  -6   7 4.31284 0.62398   6 
   6  -6   7 4.69047 1.26301   4 
   7  -6   7 139.825 5.85149   4 
  12   5  -7 31.6934 2.60443   3 
 -12  -5   7 35.6668 2.26870   1 
  11   5  -7 -0.1171 1.01610   3 
 -11  -5   7 0.41308 0.66897   5 
 -11  -5   7 0.29063 0.78905   1 
  10   5  -7 61.9269 3.25730   3 
 -10  -5   7 58.7579 2.73160   5 
 -10  -5   7 62.2206 2.86862   1 
   9   5  -7 13.0746 1.60148   3 
   9   5  -7 16.3332 1.46107   2 
  -9  -5   7 13.2586 1.31296   1 
  -9  -5   7 12.9248 1.20125   5 
   8   5  -7 100.893 3.86057   2 
   8   5  -7 107.704 4.21939   3 
  -8  -5   7 107.865 3.88314   1 
  -8  -5   7 105.209 3.75260   5 
   7   5  -7 74.4148 3.22921   3 
   7   5  -7 70.1233 2.99180   2 
  -7  -5   7 72.1288 2.86974   6 
  -7  -5   7 72.2396 2.86813   5 
  -7  -5   7 73.8547 2.96546   1 
   6   5  -7 118.425 4.21909   3 
   6   5  -7 114.739 4.13225   2 
  -6  -5   7 112.926 3.88409   6 
  -6  -5   7 122.567 4.08400   1 
  -6  -5   7 116.608 3.95400   5 
   5   5  -7 4.33644 0.88027   3 
   5   5  -7 4.73877 0.85439   2 
  -5  -5   7 3.54130 0.70766   5 
  -5  -5   7 4.00283 0.76716   1 
  -5  -5   7 3.54608 0.63742   6 
   4   5  -7 253.339 7.11383   3 
   4   5  -7 233.954 7.22638   2 
  -4  -5   7 234.402 7.02553   5 
  -4  -5   7 243.880 6.83727   6 
  -4  -5   7 239.027 7.08086   1 
   3   5  -7 12.3808 1.09845   3 
   3   5  -7 12.6531 1.15113   2 
  -3  -5   7 11.2621 1.01855   5 
  -3  -5   7 13.4260 0.93042   6 
  -3  -5   7 13.7212 1.14709   1 
   2   5  -7 15.1770 1.31328   2 
  -2  -5   7 13.7727 1.15921   1 
  -2  -5   7 14.0216 1.16695   5 
  -2  -5   7 12.8635 0.88510   6 
   1   5  -7 274.473 8.20623   2 
  -1  -5   7 283.771 8.13222   5 
  -1  -5   7 282.878 7.65499   6 
  -1  -5   7 288.225 8.15221   1 
   0   5  -7 274.344 7.98137   2 
   0  -5   7 265.004 7.34967   6 
   0  -5   7 272.119 7.92814   5 
   0  -5   7 278.026 7.93435   1 
  -1   5  -7 8.33296 0.95382   2 
  -1   5  -7 7.09417 1.05000   1 
   1  -5   7 8.44607 0.97954   5 
   1  -5   7 7.46155 0.98314   1 
   1  -5   7 6.59579 0.60401   6 
  -2   5  -7 506.092 13.6566   2 
  -2   5  -7 486.124 13.8279   1 
   2  -5   7 484.397 13.0463   6 
   2  -5   7 503.663 13.8153   5 
   2  -5   7 525.566 13.8969   4 
  -3   5  -7 15.4034 1.36808   1 
  -3   5  -7 16.6619 1.34783   2 
   3  -5   7 15.1443 0.90544   6 
   3  -5   7 17.5932 1.67582   4 
   3  -5   7 16.5405 1.41445   5 
  -4   5  -7 122.564 4.39201   1 
   4  -5   7 115.708 4.33551   5 
   4  -5   7 113.084 3.55024   6 
   4  -5   7 119.810 4.64541   4 
  -5   5  -7 122.120 4.43562   1 
   5  -5   7 117.382 4.74761   4 
   5  -5   7 113.754 4.39732   5 
   5  -5   7 114.724 3.62441   6 
  -6   5  -7 49.1165 2.64575   1 
   6  -5   7 47.1153 1.96024   6 
   6  -5   7 47.1973 2.64532   5 
   6  -5   7 46.5489 2.98586   4 
  -7   5  -7 0.85715 0.75654   1 
   7  -5   7 1.07029 0.73034   5 
   7  -5   7 0.65219 0.48184   6 
   7  -5   7 0.70694 1.04326   4 
  12   4  -7 1.09827 1.13709   3 
 -12  -4   7 3.40349 0.95358   5 
  11   4  -7 45.9498 2.94884   3 
 -11  -4   7 42.7798 2.35158   5 
 -11  -4   7 48.8566 2.48610   1 
  10   4  -7 -0.6821 0.92787   3 
 -10  -4   7 0.21272 0.67593   5 
 -10  -4   7 0.45216 0.74193   1 
   9   4  -7 76.1274 3.05126   2 
   9   4  -7 78.7584 3.52525   3 
  -9  -4   7 74.9220 3.08197   1 
  -9  -4   7 71.2400 3.00691   5 
   8   4  -7 18.9254 1.78795   3 
   8   4  -7 18.8541 1.48741   2 
  -8  -4   7 20.2051 1.48595   6 
  -8  -4   7 18.9883 1.46666   5 
  -8  -4   7 21.1258 1.51905   1 
   7   4  -7 80.6248 3.15413   2 
   7   4  -7 84.6620 3.44571   3 
  -7  -4   7 79.7725 3.06845   5 
  -7  -4   7 79.2586 3.09468   1 
  -7  -4   7 84.6326 3.10437   6 
   6   4  -7 139.050 4.68129   2 
   6   4  -7 147.317 4.86020   3 
  -6  -4   7 139.814 4.58601   1 
  -6  -4   7 142.353 4.54595   6 
  -6  -4   7 143.154 4.59971   5 
   5   4  -7 52.4211 2.39386   3 
   5   4  -7 53.2705 2.39954   2 
  -5  -4   7 51.8308 2.25213   5 
  -5  -4   7 56.2226 2.30947   1 
  -5  -4   7 58.0493 2.21897   6 
   4   4  -7 29.9749 1.72806   2 
   4   4  -7 34.3968 1.69140   3 
  -4  -4   7 29.4559 1.62060   5 
  -4  -4   7 31.7524 1.65239   1 
  -4  -4   7 31.2828 1.50753   6 
   3   4  -7 95.2028 3.41960   2 
   3   4  -7 93.3632 3.16694   3 
  -3  -4   7 93.7887 3.28873   5 
  -3  -4   7 93.1087 3.03920   6 
  -3  -4   7 96.7324 3.28933   1 
   2   4  -7 50.8862 2.23464   2 
   2   4  -7 51.3612 1.97348   3 
  -2  -4   7 50.8581 1.88974   6 
  -2  -4   7 49.1975 2.14440   5 
  -2  -4   7 49.3941 2.12733   1 
   1   4  -7 235.678 6.80769   2 
  -1  -4   7 222.894 6.29148   6 
  -1  -4   7 232.252 6.72259   5 
  -1  -4   7 223.691 6.63785   1 
   0   4  -7 44.0664 2.05380   2 
   0  -4   7 43.6551 2.03355   5 
   0  -4   7 44.3858 2.00570   1 
   0  -4   7 43.5986 1.65592   6 
  -1   4  -7 196.052 6.19141   1 
  -1   4  -7 204.258 6.13459   2 
   1  -4   7 217.955 6.15644   4 
   1  -4   7 206.334 6.18545   5 
   1  -4   7 198.592 5.65158   6 
   1  -4   7 202.746 6.14530   1 
  -2   4  -7 3.70640 0.83595   1 
  -2   4  -7 3.90592 0.72556   2 
   2  -4   7 5.01346 0.86168   4 
   2  -4   7 4.39946 0.50872   6 
   2  -4   7 5.84715 0.55668   6 
   2  -4   7 5.00575 0.82917   5 
  -3   4  -7 571.818 14.7812   2 
  -3   4  -7 531.883 14.9945   1 
   3  -4   7 533.447 14.3086   6 
   3  -4   7 571.332 15.2188   4 
   3  -4   7 541.431 14.9925   5 
  -4   4  -7 31.4778 1.91868   1 
   4  -4   7 32.2959 2.19039   4 
   4  -4   7 30.4387 1.87662   5 
   4  -4   7 29.7589 1.36383   6 
  -5   4  -7 181.661 5.92449   1 
   5  -4   7 177.368 5.21160   6 
   5  -4   7 178.702 5.93894   5 
   5  -4   7 180.151 6.29373   4 
  -6   4  -7 30.1781 1.97727   1 
   6  -4   7 26.9171 1.43325   6 
   6  -4   7 29.6137 2.35847   4 
   6  -4   7 28.6955 1.94303   5 
  -7   4  -7 64.8388 3.02403   1 
   7  -4   7 60.7664 2.42154   6 
   7  -4   7 63.0110 3.07148   5 
   7  -4   7 60.3106 3.49395   4 
  -8   4  -7 1.53384 0.82037   1 
  -8   4  -7 0.48662 0.75166   5 
   8  -4   7 0.64047 0.83591   5 
   8  -4   7 0.65883 0.53121   6 
   8  -4   7 2.78339 1.16190   4 
  12   3  -7 13.0186 1.81794   3 
 -12  -3   7 13.4837 1.41139   5 
  11   3  -7 2.49538 1.18940   3 
 -11  -3   7 2.52189 0.86901   5 
  10   3  -7 84.9211 3.90180   3 
 -10  -3   7 77.9688 3.35306   5 
 -10  -3   7 89.6658 3.35814   1 
   9   3  -7 6.39708 1.23585   3 
  -9  -3   7 5.47341 0.95283   1 
  -9  -3   7 7.92131 1.03002   5 
   8   3  -7 155.698 5.40340   3 
   8   3  -7 152.967 4.94484   2 
  -8  -3   7 149.721 5.00882   5 
  -8  -3   7 154.789 4.95337   1 
   7   3  -7 10.8283 1.26623   3 
   7   3  -7 7.42356 0.92151   2 
  -7  -3   7 7.92377 0.92833   6 
  -7  -3   7 9.06234 0.98023   1 
  -7  -3   7 9.09181 0.97802   5 
   6   3  -7 195.994 5.99796   3 
   6   3  -7 180.585 5.73291   2 
  -6  -3   7 189.929 5.67701   1 
  -6  -3   7 183.094 5.72344   5 
  -6  -3   7 191.145 5.68193   6 
   5   3  -7 61.3354 2.52285   2 
   5   3  -7 59.7115 2.56779   3 
  -5  -3   7 61.3851 2.40692   1 
  -5  -3   7 59.7204 2.46329   5 
  -5  -3   7 64.9836 2.39115   6 
   4   3  -7 90.5986 3.29673   2 
   4   3  -7 93.1891 3.25037   3 
  -4  -3   7 94.2297 3.10026   6 
  -4  -3   7 92.2972 3.23310   5 
  -4  -3   7 95.8892 3.19769   1 
   3   3  -7 68.2846 2.42436   3 
   3   3  -7 64.2253 2.56606   2 
  -3  -3   7 66.7939 2.32080   6 
  -3  -3   7 63.1355 2.46317   1 
  -3  -3   7 62.2642 2.50306   5 
   2   3  -7 220.208 6.52699   2 
   2   3  -7 219.489 6.20618   3 
  -2  -3   7 218.835 6.37216   1 
  -2  -3   7 229.527 6.50117   5 
  -2  -3   7 221.508 6.19621   6 
   1   3  -7 317.191 8.82468   2 
   1   3  -7 313.532 8.34672   3 
  -1  -3   7 318.316 8.77566   5 
  -1  -3   7 315.630 8.42736   6 
  -1  -3   7 301.771 8.64467   1 
   0   3  -7 448.430 12.1528   2 
   0  -3   7 445.471 12.0856   1 
   0  -3   7 430.129 12.1172   5 
   0  -3   7 483.442 11.9711   4 
   0  -3   7 431.274 11.7454   6 
  -1   3  -7 37.5589 1.80959   2 
  -1   3  -7 38.8138 1.90983   1 
   1  -3   7 42.0779 1.85280   4 
   1  -3   7 37.7266 1.50857   6 
   1  -3   7 36.2471 1.79117   1 
   1  -3   7 39.8429 1.89893   5 
  -2   3  -7 505.822 13.8776   1 
  -2   3  -7 509.214 13.7190   2 
   2  -3   7 540.036 13.9571   4 
   2  -3   7 500.781 13.3528   6 
   2  -3   7 503.374 13.8290   5 
  -3   3  -7 1.29695 0.54386   2 
  -3   3  -7 1.23327 0.60575   1 
   3  -3   7 1.44965 0.38937   6 
   3  -3   7 1.61466 0.62368   5 
   3  -3   7 1.26319 0.67374   4 
  -4   3  -7 142.349 4.85768   1 
  -4   3  -7 153.431 4.59326   2 
   4  -3   7 150.667 5.18103   4 
   4  -3   7 141.179 4.30159   6 
   4  -3   7 145.699 4.85437   5 
  -5   3  -7 6.04966 0.96116   1 
   5  -3   7 5.46986 1.14411   4 
   5  -3   7 6.28667 0.95269   5 
   5  -3   7 5.01699 0.64368   6 
  -6   3  -7 207.217 6.61993   1 
   6  -3   7 212.105 6.69024   5 
   6  -3   7 209.192 6.03717   6 
   6  -3   7 202.245 7.08518   4 
  -7   3  -7 10.9674 1.24275   1 
   7  -3   7 10.7759 0.94119   6 
   7  -3   7 10.5279 1.57227   4 
   7  -3   7 13.1838 1.38115   5 
  -8   3  -7 53.3589 2.76168   1 
   8  -3   7 55.0878 2.87161   5 
   8  -3   7 55.7225 2.36808   6 
   8  -3   7 55.6200 3.36727   4 
  -9   3  -7 14.4537 1.48511   1 
   9  -3   7 11.3317 1.80541   4 
  12   2  -7 9.77345 1.64918   3 
 -12  -2   7 11.8617 1.37276   5 
  11   2  -7 13.5519 1.73110   3 
 -11  -2   7 14.0580 1.40421   5 
  10   2  -7 -0.7741 0.85955   3 
 -10  -2   7 -0.1791 0.67369   5 
   9   2  -7 74.6412 3.44979   3 
  -9  -2   7 67.6768 2.98973   5 
  -9  -2   7 76.2016 2.92167   1 
   8   2  -7 9.95842 1.30751   3 
   8   2  -7 8.20827 0.93897   2 
  -8  -2   7 7.96785 0.96240   1 
  -8  -2   7 8.96124 1.08314   5 
   7   2  -7 117.191 3.91981   2 
   7   2  -7 121.209 4.31055   3 
  -7  -2   7 114.220 4.02145   5 
  -7  -2   7 116.845 3.87512   1 
   6   2  -7 182.413 5.72906   3 
   6   2  -7 182.978 5.49284   2 
  -6  -2   7 178.633 5.35001   1 
  -6  -2   7 183.214 5.43662   6 
  -6  -2   7 167.232 5.46776   5 
   5   2  -7 311.088 8.66983   3 
   5   2  -7 285.271 8.46371   2 
  -5  -2   7 306.534 8.42387   6 
  -5  -2   7 292.743 8.52442   5 
  -5  -2   7 313.711 8.39696   1 
   4   2  -7 44.5816 2.08484   2 
   4   2  -7 48.0506 2.05978   3 
  -4  -2   7 47.0348 1.90624   1 
  -4  -2   7 46.5604 1.88900   6 
  -4  -2   7 40.8967 1.95799   5 
   3   2  -7 588.743 15.8412   2 
   3   2  -7 580.818 15.6631   3 
  -3  -2   7 605.444 15.6100   6 
  -3  -2   7 601.709 15.7992   5 
  -3  -2   7 609.120 15.6538   1 
   2   2  -7 0.17970 0.34173   3 
   2   2  -7 0.31847 0.42745   2 
  -2  -2   7 -0.1051 0.26702   4 
  -2  -2   7 -0.0270 0.43986   5 
  -2  -2   7 0.81074 0.42430   1 
  -2  -2   7 0.29583 0.31576   6 
   1   2  -7 315.726 8.97770   2 
   1   2  -7 314.363 8.57054   3 
  -1  -2   7 317.041 8.83899   1 
  -1  -2   7 330.511 8.71912   6 
  -1  -2   7 325.576 8.98447   5 
  -1  -2   7 343.437 8.67451   4 
   0   2  -7 100.476 3.33937   2 
   0  -2   7 100.002 3.33831   5 
   0  -2   7 107.601 3.20829   4 
   0  -2   7 96.3914 3.23684   1 
   0  -2   7 90.7383 3.00582   6 
  -1   2  -7 139.904 4.46615   1 
  -1   2  -7 142.709 4.41661   2 
   1  -2   7 145.205 4.46639   5 
   1  -2   7 151.240 4.44521   4 
   1  -2   7 137.022 4.12559   6 
   1  -2   7 139.072 4.38405   1 
  -2   2  -7 24.5246 1.45430   1 
  -2   2  -7 25.8780 1.39403   2 
   2  -2   7 25.8775 1.56179   4 
   2  -2   7 25.0076 1.15806   6 
   2  -2   7 24.1039 1.43493   5 
  -3   2  -7 221.629 6.78307   1 
  -3   2  -7 240.802 6.63782   2 
   3  -2   7 228.862 6.37339   6 
   3  -2   7 227.123 6.76613   5 
   3  -2   7 238.662 7.01888   4 
   3  -2   7 224.700 6.36424   6 
  -4   2  -7 9.79156 1.00716   1 
  -4   2  -7 8.75523 0.80986   2 
   4  -2   7 8.71497 0.72304   6 
   4  -2   7 7.94678 0.93867   5 
   4  -2   7 10.4932 1.20244   4 
  -5   2  -7 105.165 3.81340   1 
   5  -2   7 110.073 3.84404   5 
   5  -2   7 102.689 4.13076   4 
   5  -2   7 103.347 3.33922   6 
  -6   2  -7 3.83625 0.85223   1 
   6  -2   7 3.64224 1.09695   4 
   6  -2   7 2.95362 0.79775   5 
   6  -2   7 1.77875 0.54410   6 
  -7   2  -7 101.708 3.87713   1 
   7  -2   7 102.181 3.95986   5 
   7  -2   7 103.951 3.49952   6 
   7  -2   7 99.1329 4.43769   4 
  -8   2  -7 3.97229 0.94569   1 
   8  -2   7 4.81845 1.05204   5 
   8  -2   7 3.67297 0.75521   6 
   8  -2   7 2.84063 1.20965   4 
  -9   2  -7 19.4450 1.65427   1 
  -9   2  -7 17.1362 1.57911   5 
   9  -2   7 16.9404 1.32517   6 
   9  -2   7 15.3364 1.98805   4 
   9  -2   7 17.1266 1.63772   5 
 -12  -1   7 21.5019 1.89812   5 
  11   1  -7 6.77970 1.39718   3 
 -11  -1   7 2.66595 0.94337   5 
  10   1  -7 79.1873 3.69630   3 
 -10  -1   7 75.1394 3.29651   5 
   9   1  -7 -0.8405 0.81007   3 
  -9  -1   7 0.78830 0.73006   5 
   8   1  -7 22.9515 1.83923   3 
  -8  -1   7 22.5046 1.63901   5 
  -8  -1   7 23.5497 1.44246   1 
   7   1  -7 105.553 3.93030   3 
  -7  -1   7 105.040 3.44802   1 
  -7  -1   7 96.1842 3.64040   5 
   6   1  -7 110.847 4.00221   3 
   6   1  -7 110.196 3.68964   2 
  -6  -1   7 111.509 3.82694   5 
  -6  -1   7 112.993 3.56625   1 
  -6  -1   7 108.838 3.68685   6 
   5   1  -7 31.9054 1.82399   3 
   5   1  -7 30.3734 1.59517   2 
  -5  -1   7 28.7785 1.49908   6 
  -5  -1   7 29.4816 1.44359   1 
  -5  -1   7 27.9836 1.64029   5 
   4   1  -7 834.888 22.3558   2 
   4   1  -7 848.075 22.3183   6 
   4   1  -7 858.290 22.4289   3 
  -4  -1   7 912.025 22.0941   4 
  -4  -1   7 870.043 22.2599   6 
  -4  -1   7 861.798 22.1664   1 
  -4  -1   7 840.579 22.4235   5 
   3   1  -7 22.7017 1.34061   2 
   3   1  -7 21.7067 1.21400   6 
   3   1  -7 21.3094 1.27987   3 
  -3  -1   7 21.9523 1.34656   5 
  -3  -1   7 23.5645 1.10662   4 
  -3  -1   7 21.9114 1.14794   1 
  -3  -1   7 23.7601 1.18918   6 
   2   1  -7 558.365 14.5155   6 
   2   1  -7 530.186 14.6496   2 
   2   1  -7 538.806 14.4343   3 
  -2  -1   7 556.298 14.4823   6 
  -2  -1   7 562.946 14.4853   1 
  -2  -1   7 545.306 14.6486   5 
  -2  -1   7 585.779 14.3979   4 
   1   1  -7 110.391 3.49960   2 
   1   1  -7 105.031 3.13405   3 
  -1  -1   7 106.528 3.46891   5 
  -1  -1   7 106.801 3.32233   1 
  -1  -1   7 110.364 3.28147   4 
  -1  -1   7 103.188 3.25020   6 
   0   1  -7 192.271 5.38659   3 
   0   1  -7 202.083 5.90188   2 
   0  -1   7 206.305 5.68569   6 
   0  -1   7 201.310 5.89215   5 
   0  -1   7 213.517 5.82146   4 
   0  -1   7 208.753 5.81508   1 
  -1   1  -7 2.52495 0.52086   2 
  -1   1  -7 2.69833 0.55720   1 
   1  -1   7 3.07982 0.55966   5 
   1  -1   7 1.37572 0.52099   4 
   1  -1   7 1.66659 0.36779   6 
   1  -1   7 1.84825 0.47564   1 
  -2   1  -7 657.235 16.9629   2 
  -2   1  -7 628.325 17.0189   1 
   2  -1   7 653.908 17.0407   5 
   2  -1   7 651.669 17.1653   4 
   2  -1   7 643.502 16.7441   6 
  -3   1  -7 36.6307 1.77580   1 
  -3   1  -7 37.6155 1.65355   2 
   3  -1   7 35.3979 1.49176   6 
   3  -1   7 38.7853 1.52635   6 
   3  -1   7 35.9838 1.94666   4 
   3  -1   7 35.8232 1.74416   5 
  -4   1  -7 29.7664 1.44950   2 
  -4   1  -7 28.0453 1.62527   1 
   4  -1   7 26.4614 1.79949   4 
   4  -1   7 29.6494 1.60481   5 
   4  -1   7 27.9588 1.31225   6 
  -5   1  -7 88.2964 3.24636   1 
  -5   1  -7 89.3794 2.93131   2 
   5  -1   7 87.0125 3.60721   4 
   5  -1   7 84.0842 2.86812   6 
   5  -1   7 83.1251 3.19115   5 
  -6   1  -7 150.126 4.82560   1 
   6  -1   7 139.743 5.25240   4 
   6  -1   7 138.527 4.38551   6 
   6  -1   7 143.627 4.80345   5 
  -7   1  -7 67.7817 2.93792   1 
   7  -1   7 71.6674 2.66135   6 
   7  -1   7 71.6254 3.01522   5 
   7  -1   7 68.9407 3.47711   4 
  -8   1  -7 74.5518 3.13122   1 
   8  -1   7 69.2005 2.76793   6 
   8  -1   7 72.5373 3.15960   5 
   8  -1   7 70.2607 3.69079   4 
  -9   1  -7 5.22888 0.99159   5 
  -9   1  -7 4.42596 0.96393   1 
   9  -1   7 4.23424 1.03872   5 
   9  -1   7 3.96432 0.81529   6 
   9  -1   7 3.85787 1.38106   4 
 -10   1  -7 103.108 4.09739   1 
 -10   1  -7 101.766 4.17857   5 
  10  -1   7 105.654 4.29091   5 
  10  -1   7 99.4629 4.94080   4 
  11   0  -7 27.2359 2.35915   3 
 -11   0   7 26.7607 2.03890   5 
  10   0  -7 3.65599 1.21975   3 
 -10   0   7 3.00440 0.95492   5 
   9   0  -7 131.905 4.97187   3 
  -9   0   7 128.244 4.66943   5 
   8   0  -7 0.52471 0.80289   3 
  -8   0   7 0.18822 0.63025   5 
   7   0  -7 51.9847 2.52026   3 
   7   0  -7 43.8322 2.17573   6 
   7   0  -7 47.5260 1.98667   2 
  -7   0   7 49.2512 2.23904   4 
  -7   0   7 48.0192 2.28133   5 
   6   0  -7 141.948 4.29942   2 
   6   0  -7 139.500 4.67568   3 
   6   0  -7 131.342 4.40871   6 
  -6   0   7 134.117 4.38732   4 
  -6   0   7 141.453 4.15421   1 
  -6   0   7 132.982 4.48729   5 
   5   0  -7 155.945 5.01445   3 
   5   0  -7 150.031 4.73061   2 
   5   0  -7 154.916 4.82229   6 
  -5   0   7 154.612 4.90779   5 
  -5   0   7 155.893 4.74006   6 
  -5   0   7 160.553 4.77183   4 
  -5   0   7 160.949 4.56066   1 
   4   0  -7 25.6576 1.41033   2 
   4   0  -7 22.9351 1.34611   6 
   4   0  -7 23.4322 1.52336   3 
  -4   0   7 26.7615 1.38496   4 
  -4   0   7 23.7323 1.29261   6 
  -4   0   7 23.8530 1.47110   5 
  -4   0   7 26.9480 1.22928   1 
   3   0  -7 616.905 16.2895   6 
   3   0  -7 599.763 16.2972   3 
   3   0  -7 587.371 16.3038   2 
  -3   0   7 667.675 16.2585   4 
  -3   0   7 627.328 16.2360   6 
  -3   0   7 625.126 16.0781   1 
  -3   0   7 632.536 16.4412   5 
   2   0  -7 28.5873 1.34091   3 
   2   0  -7 30.8620 1.48547   2 
   2   0  -7 30.2445 1.37136   6 
  -2   0   7 33.8671 1.43493   4 
  -2   0   7 28.4893 1.44626   5 
  -2   0   7 30.3628 1.28248   1 
  -2   0   7 29.3476 1.32378   6 
   1   0  -7 61.7821 2.29830   2 
   1   0  -7 58.8331 2.04177   3 
   1   0  -7 60.2487 2.16178   6 
  -1   0   7 65.7307 2.18546   6 
  -1   0   7 64.4117 2.14717   1 
  -1   0   7 68.1576 2.26430   4 
  -1   0   7 63.6775 2.31709   5 
   0   0  -7 132.673 4.05794   2 
   0   0  -7 126.938 3.64390   3 
   0   0  -7 129.688 3.89317   6 
   0   0   7 129.866 3.89622   1 
   0   0   7 129.551 4.03696   5 
   0   0   7 133.739 3.89346   6 
   0   0   7 141.980 4.08062   4 
  -1   0  -7 216.434 6.27973   2 
  -1   0  -7 214.848 6.22910   1 
   1   0   7 221.410 6.29611   5 
   1   0   7 230.202 6.40640   4 
   1   0   7 222.311 6.12616   6 
  -2   0  -7 19.1103 1.15814   2 
  -2   0  -7 20.9426 1.20834   1 
   2   0   7 19.0498 1.17199   5 
   2   0   7 20.3730 1.03322   6 
   2   0   7 20.0151 1.33098   4 
  -3   0  -7 310.686 8.24242   2 
  -3   0  -7 294.521 8.30309   1 
   3   0   7 299.924 8.57334   4 
   3   0   7 289.583 8.05551   6 
   3   0   7 295.987 8.07075   6 
   3   0   7 295.466 8.29187   5 
  -4   0  -7 2.46540 0.60539   1 
  -4   0  -7 2.01058 0.48960   2 
   4   0   7 3.15682 0.50605   6 
   4   0   7 2.28171 0.74528   4 
   4   0   7 2.16813 0.58766   5 
  -5   0  -7 31.9539 1.49037   2 
  -5   0  -7 31.0158 1.69888   1 
   5   0   7 31.0764 1.67667   5 
   5   0   7 31.0349 1.47265   6 
   5   0   7 33.3560 2.04746   4 
  -6   0  -7 68.5871 2.77096   1 
   6   0   7 68.6466 2.52049   6 
   6   0   7 71.0111 2.79438   5 
   6   0   7 67.0551 3.18824   4 
  -7   0  -7 209.385 6.44861   1 
   7   0   7 212.559 6.48830   5 
   7   0   7 212.644 6.17864   6 
   7   0   7 197.279 7.03031   4 
  -8   0  -7 44.5487 2.28989   1 
   8   0   7 45.5377 2.11470   6 
   8   0   7 44.0384 2.86123   4 
   8   0   7 44.7013 2.35347   5 
  -9   0  -7 55.6051 2.65628   1 
   9   0   7 54.5767 3.35741   4 
   9   0   7 53.3894 2.45438   6 
   9   0   7 56.2300 2.72715   5 
 -10   0  -7 8.64751 1.20863   1 
 -10   0  -7 9.64419 1.22614   5 
  10   0   7 10.0677 1.36484   5 
  10   0   7 8.06941 1.63482   4 
  10   0   7 9.35946 1.08694   6 
 -11   0  -7 44.9949 2.57886   5 
  11  -1  -7 13.6214 1.80195   3 
 -11   1   7 10.3451 1.43106   5 
  10  -1  -7 62.2824 3.35262   3 
 -10   1   7 54.2274 2.88203   5 
   9  -1  -7 -0.3219 0.83819   3 
   9  -1  -7 -0.9094 0.59077   6 
  -9   1   7 0.19553 0.72375   5 
   8  -1  -7 222.351 6.88365   6 
   8  -1  -7 220.510 7.18799   3 
  -8   1   7 229.559 7.16686   4 
  -8   1   7 219.204 6.95513   5 
   7  -1  -7 3.16554 0.90715   3 
   7  -1  -7 2.64364 0.83104   4 
   7  -1  -7 4.32043 0.81779   6 
  -7   1   7 3.18956 0.81866   5 
  -7   1   7 3.39671 0.83555   4 
   6  -1  -7 54.6956 2.56814   3 
   6  -1  -7 54.0768 2.12372   2 
   6  -1  -7 55.5687 2.35297   6 
  -6   1   7 56.0794 2.45362   5 
  -6   1   7 57.3065 2.46368   4 
   5  -1  -7 201.966 5.95226   6 
   5  -1  -7 198.554 5.78734   2 
   5  -1  -7 192.875 6.11168   3 
  -5   1   7 211.634 5.58558   1 
  -5   1   7 202.764 6.05228   4 
  -5   1   7 194.135 6.02919   5 
   4  -1  -7 139.880 4.47037   6 
   4  -1  -7 142.316 4.42756   2 
   4  -1  -7 147.585 4.65442   3 
  -4   1   7 151.616 4.16595   1 
  -4   1   7 143.148 4.58230   5 
  -4   1   7 147.683 4.40891   6 
  -4   1   7 152.222 4.57262   4 
   3  -1  -7 11.5773 1.08609   3 
   3  -1  -7 13.5571 1.01674   2 
   3  -1  -7 12.3304 0.94869   6 
  -3   1   7 15.0948 1.07281   4 
  -3   1   7 15.3336 0.96042   6 
  -3   1   7 13.4470 0.80922   1 
  -3   1   7 13.6787 1.08772   5 
   2  -1  -7 431.852 11.7936   2 
   2  -1  -7 431.126 11.7387   3 
   2  -1  -7 439.209 11.7406   6 
  -2   1   7 475.609 11.8905   4 
  -2   1   7 439.768 11.4891   1 
  -2   1   7 441.269 11.8635   5 
  -2   1   7 438.444 11.6826   6 
   1  -1  -7 12.6064 0.84822   6 
   1  -1  -7 12.3678 0.84808   3 
   1  -1  -7 11.5158 0.95297   2 
  -1   1   7 13.0236 0.95063   5 
  -1   1   7 13.4279 0.83427   6 
  -1   1   7 12.9206 0.76215   1 
  -1   1   7 13.1290 1.02274   4 
   0  -1  -7 234.142 6.61824   2 
   0  -1  -7 231.348 6.44368   1 
   0  -1  -7 228.838 6.50190   6 
   0  -1  -7 225.589 6.30474   3 
   0   1   7 250.875 6.73740   4 
   0   1   7 233.926 6.48242   6 
   0   1   7 238.555 6.40590   1 
   0   1   7 241.170 6.62116   5 
  -1  -1  -7 112.381 3.40989   6 
  -1  -1  -7 107.869 3.10886   3 
  -1  -1  -7 106.911 3.40958   1 
  -1  -1  -7 107.729 3.51398   2 
   1   1   7 118.526 3.71265   4 
   1   1   7 114.560 3.41426   6 
   1   1   7 118.952 3.55173   5 
  -2  -1  -7 445.801 11.9237   1 
  -2  -1  -7 456.687 11.9835   2 
  -2  -1  -7 437.091 11.8313   6 
   2   1   7 461.043 11.9783   5 
   2   1   7 442.179 12.2206   4 
   2   1   7 452.298 11.8396   6 
  -3  -1  -7 0.40490 0.38507   2 
  -3  -1  -7 0.78987 0.44139   1 
   3   1   7 0.49870 0.55703   4 
   3   1   7 0.21790 0.29853   6 
   3   1   7 0.49249 0.31624   6 
   3   1   7 0.27306 0.38685   5 
  -4  -1  -7 305.257 8.31301   2 
  -4  -1  -7 300.048 8.43966   1 
   4   1   7 298.161 8.84029   4 
   4   1   7 307.190 8.41878   5 
   4   1   7 302.007 8.25164   6 
  -5  -1  -7 16.5990 1.06124   2 
  -5  -1  -7 17.2555 1.20018   1 
   5   1   7 16.5322 1.55626   4 
   5   1   7 16.8694 1.06303   6 
   5   1   7 17.2426 1.20300   5 
  -6  -1  -7 156.699 4.47014   2 
  -6  -1  -7 142.374 4.71427   1 
   6   1   7 145.515 4.53028   6 
   6   1   7 145.461 5.25221   4 
   6   1   7 149.106 4.72456   5 
  -7  -1  -7 36.5044 1.94185   1 
   7   1   7 36.0096 2.44187   4 
   7   1   7 39.5938 1.81322   6 
   7   1   7 36.1098 1.91970   5 
  -8  -1  -7 198.783 6.25321   1 
   8   1   7 193.083 7.00479   4 
   8   1   7 201.050 6.09534   6 
   8   1   7 209.069 6.34771   5 
  -9  -1  -7 34.1101 2.00583   1 
   9   1   7 32.4147 2.59269   4 
   9   1   7 35.7854 2.10617   5 
   9   1   7 35.6858 1.91208   6 
 -10  -1  -7 98.3587 3.75873   5 
 -10  -1  -7 90.9273 3.64364   1 
  10   1   7 86.2267 3.50328   6 
  10   1   7 83.9259 4.40090   4 
  10   1   7 92.8317 3.77332   5 
 -11  -1  -7 5.10856 1.03095   5 
 -11  -1  -7 4.74509 1.03719   1 
  11   1   7 4.50038 1.42427   4 
  11   1   7 5.69776 1.05292   6 
  10  -2  -7 7.04880 1.22713   6 
  10  -2  -7 9.22443 1.55380   3 
 -10   2   7 6.99382 1.20812   5 
   9  -2  -7 91.2792 3.61200   6 
   9  -2  -7 90.4794 3.99957   3 
   9  -2  -7 92.2534 4.02442   4 
  -9   2   7 83.4236 3.65935   5 
   8  -2  -7 0.29438 0.79820   4 
   8  -2  -7 0.86568 0.71386   6 
   8  -2  -7 1.09382 0.87438   3 
  -8   2   7 0.23633 0.69922   5 
  -8   2   7 1.95816 0.85137   4 
   7  -2  -7 94.2197 3.76627   3 
   7  -2  -7 92.8333 3.45385   6 
   7  -2  -7 91.7754 3.75790   4 
  -7   2   7 91.1670 3.72363   4 
  -7   2   7 97.1156 3.63304   5 
   6  -2  -7 4.19028 0.89069   3 
   6  -2  -7 3.05029 0.69572   6 
   6  -2  -7 2.35757 0.78398   4 
   6  -2  -7 2.14044 0.51186   2 
  -6   2   7 2.74112 0.74047   5 
  -6   2   7 2.19352 0.71029   4 
   5  -2  -7 74.5514 2.60971   2 
   5  -2  -7 74.6831 3.01136   3 
   5  -2  -7 74.2167 2.75833   6 
  -5   2   7 80.6701 3.04432   4 
  -5   2   7 74.2219 2.92251   5 
   4  -2  -7 15.7330 1.09469   6 
   4  -2  -7 17.6354 1.12157   2 
   4  -2  -7 17.1122 1.39817   3 
  -4   2   7 18.4555 1.34338   4 
  -4   2   7 16.9464 1.23018   5 
   3  -2  -7 414.838 11.1535   2 
   3  -2  -7 403.761 11.1488   6 
   3  -2  -7 408.462 11.2858   3 
  -3   2   7 420.573 11.3090   5 
  -3   2   7 432.472 11.3885   4 
  -3   2   7 421.965 10.7479   1 
  -3   2   7 412.655 11.0853   6 
   2  -2  -7 77.6991 2.65953   6 
   2  -2  -7 73.9558 2.70272   3 
   2  -2  -7 82.3697 2.74152   2 
  -2   2   7 76.4066 2.73391   5 
  -2   2   7 87.6621 2.91845   4 
  -2   2   7 77.5262 2.59463   6 
  -2   2   7 79.9751 2.34409   1 
   1  -2  -7 267.288 7.06501   1 
   1  -2  -7 255.899 7.27977   3 
   1  -2  -7 258.035 7.37009   2 
   1  -2  -7 260.121 7.30607   6 
  -1   2   7 280.250 7.54077   4 
  -1   2   7 270.916 7.27991   6 
  -1   2   7 268.242 7.37905   5 
  -1   2   7 267.134 7.02897   1 
   0  -2  -7 2.01227 0.37760   3 
   0  -2  -7 1.09148 0.36221   6 
   0  -2  -7 1.90082 0.46839   2 
   0  -2  -7 1.56015 0.36022   1 
   0   2   7 1.12550 0.56366   4 
   0   2   7 0.68530 0.32013   6 
   0   2   7 0.82703 0.39803   5 
  -1  -2  -7 721.730 18.5783   1 
  -1  -2  -7 722.598 18.7830   2 
  -1  -2  -7 707.951 18.4748   3 
  -1  -2  -7 709.091 18.6760   6 
   1   2   7 739.527 18.7206   5 
   1   2   7 732.567 19.0106   4 
   1   2   7 725.493 18.6580   6 
  -2  -2  -7 1.69730 0.48024   2 
  -2  -2  -7 2.31652 0.41716   6 
  -2  -2  -7 0.83660 0.41966   1 
  -2  -2  -7 2.25748 0.29092   3 
   2   2   7 2.11871 0.41583   6 
   2   2   7 1.57515 0.61686   4 
   2   2   7 1.86197 0.47387   5 
  -3  -2  -7 726.635 18.7595   6 
  -3  -2  -7 714.587 18.7760   1 
  -3  -2  -7 722.884 18.8238   2 
   3   2   7 729.070 18.7303   6 
   3   2   7 717.214 19.2439   4 
   3   2   7 734.397 18.7838   5 
   3   2   7 714.565 18.7086   6 
   3   2   7 732.046 18.3901   3 
  -4  -2  -7 8.50332 0.79115   1 
  -4  -2  -7 8.82641 0.76811   2 
   4   2   7 7.70224 1.04387   4 
   4   2   7 9.64331 0.80799   5 
   4   2   7 9.28673 0.74127   6 
  -5  -2  -7 272.422 7.43288   2 
  -5  -2  -7 267.496 7.58050   1 
   5   2   7 267.208 7.50678   5 
   5   2   7 262.513 7.41574   6 
   5   2   7 264.739 8.11728   4 
  -6  -2  -7 50.1281 2.17028   1 
  -6  -2  -7 53.3532 1.99703   2 
   6   2   7 50.0915 2.03650   6 
   6   2   7 50.2115 2.13042   5 
   6   2   7 48.5583 2.62493   4 
  -7  -2  -7 175.926 5.51802   1 
   7   2   7 171.379 6.15353   4 
   7   2   7 183.020 5.42667   6 
   7   2   7 182.314 5.51493   5 
  -8  -2  -7 22.9394 1.59867   1 
   8   2   7 24.0299 1.61789   5 
   8   2   7 24.8115 1.51382   6 
   8   2   7 20.2972 2.02071   4 
  -9  -2  -7 83.7035 3.34692   1 
   9   2   7 85.7932 3.28990   6 
   9   2   7 87.5577 3.40496   5 
   9   2   7 86.7779 4.12150   4 
 -10  -2  -7 12.5179 1.23918   5 
 -10  -2  -7 12.3051 1.27473   1 
  10   2   7 8.93208 1.65820   4 
  10   2   7 10.2886 1.17045   6 
  10   2   7 9.98521 1.25164   5 
 -11  -2  -7 20.2825 1.67449   1 
 -11  -2  -7 21.1842 1.66005   5 
  11   2   7 16.2655 2.06890   4 
  11   2   7 17.6659 1.53074   6 
  12   2   7 2.03174 0.78065   6 
  11  -3  -7 3.71314 1.04877   6 
  10  -3  -7 62.0103 3.44950   3 
  10  -3  -7 58.1700 2.89600   6 
  10  -3  -7 56.4504 3.35660   4 
 -10   3   7 63.3753 3.47705   4 
   9  -3  -7 7.68099 1.40932   4 
   9  -3  -7 10.0035 1.25392   6 
   9  -3  -7 9.39622 1.52653   3 
  -9   3   7 11.1247 1.55931   4 
  -9   3   7 10.3852 1.35270   5 
   8  -3  -7 95.6277 3.74012   6 
   8  -3  -7 106.438 4.25514   3 
   8  -3  -7 104.143 4.32152   4 
  -8   3   7 94.5711 3.91925   5 
  -8   3   7 106.910 4.33721   4 
   7  -3  -7 3.01242 0.73737   6 
   7  -3  -7 2.22147 0.93041   4 
   7  -3  -7 5.17005 1.06305   3 
  -7   3   7 3.78346 0.88245   5 
  -7   3   7 4.19293 0.97160   4 
   6  -3  -7 77.8224 2.90567   6 
   6  -3  -7 74.4407 3.28313   4 
   6  -3  -7 74.3273 3.19718   3 
  -6   3   7 73.1939 3.23530   4 
  -6   3   7 76.9206 3.08141   5 
   5  -3  -7 108.730 3.56868   6 
   5  -3  -7 98.5707 3.31536   2 
   5  -3  -7 104.235 3.84904   3 
  -5   3   7 105.922 3.75205   5 
  -5   3   7 107.705 3.93597   4 
   4  -3  -7 9.92363 0.84555   6 
   4  -3  -7 9.31134 1.03665   3 
   4  -3  -7 9.92618 0.90436   2 
  -4   3   7 11.1322 1.01724   5 
  -4   3   7 12.4078 1.24098   4 
   3  -3  -7 -0.3359 0.31726   6 
   3  -3  -7 -0.4176 0.40936   2 
   3  -3  -7 -0.5489 0.46761   3 
  -3   3   7 0.46151 0.48110   5 
  -3   3   7 0.72696 0.55461   4 
   2  -3  -7 530.447 14.1252   2 
   2  -3  -7 521.918 14.2436   3 
   2  -3  -7 521.701 14.0979   6 
   2  -3  -7 544.249 13.6619   1 
  -2   3   7 557.143 14.4729   4 
  -2   3   7 542.187 14.0492   6 
  -2   3   7 536.105 14.2272   5 
   1  -3  -7 188.372 5.74965   6 
   1  -3  -7 200.217 5.84082   2 
   1  -3  -7 204.614 5.41920   1 
   1  -3  -7 201.293 5.85812   3 
  -1   3   7 212.326 5.76563   6 
  -1   3   7 217.107 6.13179   4 
  -1   3   7 209.021 5.86316   5 
   0  -3  -7 401.494 10.6331   6 
   0  -3  -7 387.141 10.6789   2 
   0  -3  -7 378.120 10.5781   3 
   0  -3  -7 405.055 10.3393   1 
   0   3   7 408.265 10.9570   4 
   0   3   7 405.762 10.6456   5 
   0   3   7 405.862 10.5935   6 
  -1  -3  -7 90.6489 2.66996   1 
  -1  -3  -7 85.2910 2.74119   3 
  -1  -3  -7 85.6667 2.89995   2 
  -1  -3  -7 84.2589 2.82376   6 
   1   3   7 88.4770 2.82910   5 
   1   3   7 88.8718 3.18205   4 
   1   3   7 90.6758 2.82759   6 
  -2  -3  -7 560.636 14.5389   1 
  -2  -3  -7 550.151 14.4600   3 
  -2  -3  -7 550.730 14.7388   2 
  -2  -3  -7 563.726 14.6768   6 
   2   3   7 561.151 15.0974   4 
   2   3   7 572.969 14.6401   5 
   2   3   7 564.757 14.6291   6 
  -3  -3  -7 234.871 6.59121   1 
  -3  -3  -7 239.210 6.66292   6 
  -3  -3  -7 246.800 6.74183   2 
   3   3   7 236.451 6.61666   6 
   3   3   7 238.948 6.62395   6 
   3   3   7 244.573 6.39709   3 
   3   3   7 236.657 7.14522   4 
   3   3   7 229.296 6.58312   5 
  -4  -3  -7 296.798 8.05935   2 
  -4  -3  -7 292.195 8.05307   6 
  -4  -3  -7 284.555 8.00780   1 
   4   3   7 285.714 8.57621   4 
   4   3   7 297.901 7.72424   3 
   4   3   7 286.786 7.96225   5 
   4   3   7 297.020 8.01625   6 
  -5  -3  -7 0.42342 0.40869   2 
  -5  -3  -7 -0.3015 0.42092   1 
   5   3   7 0.32043 0.68971   4 
   5   3   7 0.36868 0.43604   5 
   5   3   7 0.07043 0.36303   6 
  -6  -3  -7 44.6447 2.01717   1 
  -6  -3  -7 50.2347 1.95971   2 
   6   3   7 48.7760 1.99318   5 
   6   3   7 48.7875 1.99828   6 
   6   3   7 48.4677 2.57391   4 
  -7  -3  -7 40.0510 1.96671   1 
  -7  -3  -7 45.1015 1.81502   2 
   7   3   7 43.8508 1.96039   6 
   7   3   7 46.3232 2.00762   5 
   7   3   7 42.2044 2.53141   4 
  -8  -3  -7 158.224 5.00747   1 
   8   3   7 157.193 4.93828   5 
   8   3   7 156.810 4.92655   6 
   8   3   7 143.176 5.60807   4 
  -9  -3  -7 35.3101 2.03852   1 
   9   3   7 41.8948 2.11962   5 
   9   3   7 35.6589 2.61638   4 
   9   3   7 45.3414 2.14835   6 
 -10  -3  -7 32.5287 1.98351   1 
 -10  -3  -7 36.7584 2.03298   5 
  10   3   7 32.6284 2.59801   4 
  10   3   7 32.8280 1.97632   6 
  10   3   7 36.0780 2.08252   5 
 -11  -3  -7 19.7854 1.64148   1 
  11   3   7 17.8356 1.51824   6 
  11   3   7 17.1492 2.07240   4 
  12   3   7 10.1084 1.34890   6 
  10  -4  -7 5.35047 1.42092   3 
  10  -4  -7 4.20068 1.06729   6 
  10  -4  -7 3.76045 1.31941   4 
 -10   4   7 3.83708 1.30211   4 
 -10   4   7 4.30292 1.11239   5 
   9  -4  -7 35.0484 2.57549   3 
   9  -4  -7 34.3841 2.61840   4 
   9  -4  -7 34.9721 2.10724   6 
  -9   4   7 32.7463 2.29325   5 
  -9   4   7 38.4627 2.62964   4 
   8  -4  -7 25.9129 2.16386   3 
   8  -4  -7 28.4058 2.33344   4 
   8  -4  -7 30.4876 1.84786   6 
  -8   4   7 26.4364 2.00422   5 
  -8   4   7 34.0669 2.42704   4 
   7  -4  -7 94.1044 4.08760   4 
   7  -4  -7 91.2678 3.46953   6 
   7  -4  -7 95.8867 4.00841   3 
  -7   4   7 97.4979 4.12000   4 
   6  -4  -7 34.8091 2.19627   3 
   6  -4  -7 34.0942 1.78881   6 
   6  -4  -7 31.2175 2.16968   4 
  -6   4   7 34.1384 2.18278   4 
   5  -4  -7 110.315 4.02946   3 
   5  -4  -7 107.187 3.61910   6 
   5  -4  -7 105.931 3.41656   2 
  -5   4   7 106.583 3.86286   5 
  -5   4   7 107.423 4.12140   4 
   4  -4  -7 20.7404 1.21792   2 
   4  -4  -7 18.4448 1.51891   3 
   4  -4  -7 19.3418 1.21644   6 
  -4   4   7 18.7289 1.43620   5 
  -4   4   7 21.6303 1.58859   4 
   3  -4  -7 448.419 12.1510   2 
   3  -4  -7 459.158 12.5231   3 
   3  -4  -7 451.845 12.2025   6 
  -3   4   7 468.746 12.7223   4 
   2  -4  -7 13.7754 1.04091   2 
   2  -4  -7 15.6356 1.26481   3 
   2  -4  -7 15.1438 1.00645   6 
  -2   4   7 14.0390 1.12999   5 
  -2   4   7 14.7334 1.33112   4 
   1  -4  -7 348.097 9.25865   2 
   1  -4  -7 329.570 9.18110   6 
   1  -4  -7 323.085 9.33328   3 
  -1   4   7 338.067 9.24389   5 
  -1   4   7 356.014 9.64661   4 
  -1   4   7 344.840 9.15335   6 
   0  -4  -7 0.16457 0.34878   6 
   0  -4  -7 -0.1840 0.21912   1 
   0  -4  -7 0.88186 0.42735   2 
   0  -4  -7 0.42155 0.43628   3 
   0   4   7 0.75414 0.41511   5 
   0   4   7 1.27051 0.63595   4 
   0   4   7 0.39972 0.31720   6 
  -1  -4  -7 475.256 12.3247   1 
  -1  -4  -7 455.367 12.6205   6 
  -1  -4  -7 462.354 12.6350   3 
  -1  -4  -7 491.372 12.7456   2 
   1   4   7 478.803 12.5659   5 
   1   4   7 497.424 12.6190   6 
   1   4   7 493.051 13.1017   4 
  -2  -4  -7 174.646 5.06787   6 
  -2  -4  -7 180.616 5.16686   2 
  -2  -4  -7 170.943 4.83430   1 
  -2  -4  -7 171.753 4.97888   3 
   2   4   7 168.850 4.93635   5 
   2   4   7 177.613 5.52712   4 
   2   4   7 181.977 5.05006   6 
  -3  -4  -7 255.082 7.07067   3 
  -3  -4  -7 257.928 7.07967   1 
  -3  -4  -7 265.875 7.26181   6 
  -3  -4  -7 261.325 7.29517   2 
   3   4   7 263.329 7.21164   6 
   3   4   7 252.521 7.09528   5 
   3   4   7 267.213 7.21385   6 
   3   4   7 261.764 7.09545   3 
   3   4   7 263.726 7.74522   4 
  -4  -4  -7 282.300 7.90751   2 
  -4  -4  -7 282.191 7.90052   6 
  -4  -4  -7 276.110 7.77203   1 
   4   4   7 294.437 7.71890   3 
   4   4   7 296.157 7.88067   6 
   4   4   7 281.455 7.73315   5 
   4   4   7 284.049 8.45815   4 
  -5  -4  -7 222.740 6.44942   6 
  -5  -4  -7 230.237 6.42053   1 
  -5  -4  -7 222.746 6.41135   2 
   5   4   7 228.592 6.42075   6 
   5   4   7 232.910 6.24875   3 
   5   4   7 225.371 6.28826   5 
   5   4   7 212.518 6.99916   4 
  -6  -4  -7 3.26519 0.65069   1 
  -6  -4  -7 3.94180 0.61932   2 
   6   4   7 4.02124 0.97975   4 
   6   4   7 3.69441 0.59307   5 
   6   4   7 4.62735 0.64323   6 
  -7  -4  -7 41.8664 1.80799   2 
  -7  -4  -7 39.4018 1.88827   1 
   7   4   7 43.6531 1.94292   6 
   7   4   7 40.8524 1.80574   5 
   7   4   7 39.8118 2.46407   4 
  -8  -4  -7 4.16053 0.81999   1 
   8   4   7 4.83878 0.80710   5 
   8   4   7 4.92222 1.18930   4 
   8   4   7 3.91618 0.77178   6 
  -9  -4  -7 83.1220 3.27748   1 
   9   4   7 80.4262 3.94021   4 
   9   4   7 84.1699 3.27950   6 
   9   4   7 90.0983 3.22990   5 
 -10  -4  -7 2.46157 0.85449   1 
  10   4   7 2.24442 1.21982   4 
  10   4   7 2.80042 0.88468   6 
 -11  -4  -7 96.4003 3.86520   1 
  11   4   7 99.7100 4.73533   4 
 -12  -4  -7 -0.0395 0.75821   1 
  12   4   7 -0.5110 1.18105   4 
   9  -5  -7 0.09502 1.08275   4 
   9  -5  -7 0.29258 1.03938   3 
   9  -5  -7 -0.1361 0.71105   6 
  -9   5   7 0.36141 0.84877   5 
  -9   5   7 0.52441 1.09421   4 
   8  -5  -7 115.073 4.73623   3 
   8  -5  -7 115.997 4.15551   6 
   8  -5  -7 110.816 4.90450   4 
  -8   5   7 118.853 5.00768   4 
  -8   5   7 112.017 4.52654   5 
   7  -5  -7 40.8370 2.54131   3 
   7  -5  -7 38.9324 2.04407   6 
   7  -5  -7 40.1127 2.70433   4 
  -7   5   7 40.9900 2.39363   5 
  -7   5   7 42.9865 2.73983   4 
   6  -5  -7 90.3137 3.78013   3 
   6  -5  -7 89.2697 3.97300   4 
   6  -5  -7 93.1565 3.32000   6 
  -6   5   7 90.4744 3.63894   5 
  -6   5   7 91.4549 4.00769   4 
   5  -5  -7 49.3620 2.16023   6 
   5  -5  -7 55.1712 2.69194   3 
  -5   5   7 52.0285 2.55078   5 
  -5   5   7 53.9100 2.79352   4 
   4  -5  -7 105.245 3.87317   3 
   4  -5  -7 96.9534 3.33386   6 
   4  -5  -7 97.8802 3.26523   2 
  -4   5   7 101.059 3.97438   4 
  -4   5   7 102.361 3.66320   5 
   3  -5  -7 37.3825 2.06357   3 
   3  -5  -7 38.2820 1.72449   2 
   3  -5  -7 40.5693 1.75353   6 
  -3   5   7 39.7596 2.17922   4 
  -3   5   7 39.1043 1.94497   5 
   2  -5  -7 1083.48 28.4825   6 
   2  -5  -7 1110.47 28.8702   3 
   2  -5  -7 1115.58 28.5342   2 
  -2   5   7 1121.19 29.0960   4 
  -2   5   7 1129.36 28.6855   5 
   1  -5  -7 1.94798 0.45424   6 
   1  -5  -7 1.46406 0.52383   2 
   1  -5  -7 2.08700 0.61180   3 
  -1   5   7 2.95113 0.58098   5 
  -1   5   7 1.97943 0.71318   4 
   0  -5  -7 444.124 12.1776   3 
   0  -5  -7 441.011 11.9848   6 
   0  -5  -7 459.189 12.0869   2 
   0   5   7 457.199 11.9657   5 
   0   5   7 456.491 12.4889   4 
  -1  -5  -7 7.35349 0.51064   1 
  -1  -5  -7 9.00880 0.79945   3 
  -1  -5  -7 8.84389 0.72960   6 
  -1  -5  -7 7.37727 0.78030   2 
   1   5   7 6.83198 0.96512   4 
   1   5   7 9.37896 0.74222   6 
   1   5   7 7.71213 0.64870   5 
  -2  -5  -7 327.770 9.05516   3 
  -2  -5  -7 326.611 8.69161   1 
  -2  -5  -7 333.854 9.03301   6 
  -2  -5  -7 322.356 9.09604   2 
   2   5   7 327.361 8.84947   5 
   2   5   7 343.024 8.97887   6 
   2   5   7 341.542 8.98998   6 
   2   5   7 337.704 9.55286   4 
  -3  -5  -7 180.590 4.97339   1 
  -3  -5  -7 175.723 5.19349   6 
  -3  -5  -7 175.707 5.26123   2 
  -3  -5  -7 175.566 5.14617   3 
   3   5   7 180.325 5.73852   4 
   3   5   7 181.735 5.16551   6 
   3   5   7 181.590 5.16946   6 
   3   5   7 176.360 4.99312   5 
  -4  -5  -7 100.997 3.35397   6 
  -4  -5  -7 104.329 3.41902   2 
  -4  -5  -7 104.480 3.21916   1 
   4   5   7 106.086 3.30753   3 
   4   5   7 97.5315 3.83237   4 
   4   5   7 107.783 3.34589   6 
   4   5   7 104.470 3.15163   5 
  -5  -5  -7 1.14684 0.44638   6 
  -5  -5  -7 0.85317 0.46968   2 
  -5  -5  -7 0.07938 0.42032   1 
   5   5   7 0.24839 0.38464   6 
   5   5   7 0.20351 0.36170   5 
   5   5   7 0.56399 0.72471   4 
  -6  -5  -7 189.678 5.52010   2 
  -6  -5  -7 177.787 5.43748   1 
   6   5   7 191.658 5.53229   6 
   6   5   7 189.129 5.43670   3 
   6   5   7 175.338 6.12799   4 
   6   5   7 187.745 5.28557   5 
  -7  -5  -7 9.35945 0.91777   1 
  -7  -5  -7 8.46951 0.85159   2 
   7   5   7 8.47443 1.29423   4 
   7   5   7 10.3829 0.91982   6 
   7   5   7 10.0906 0.86094   5 
  -8  -5  -7 70.6116 2.74081   1 
  -8  -5  -7 65.8685 2.57084   2 
   8   5   7 68.8666 2.70906   6 
   8   5   7 67.5013 3.37899   4 
  -9  -5  -7 11.6556 1.16195   1 
   9   5   7 12.4437 1.67418   4 
 -10  -5  -7 66.3914 2.83685   1 
  10   5   7 58.2855 3.47207   4 
 -11  -5  -7 0.95484 0.77127   1 
  11   5   7 0.18990 1.23204   4 
 -12  -5  -7 95.7799 3.91106   1 
  12   5   7 88.8596 4.65467   4 
   9  -6  -7 33.3419 2.73845   4 
  -9   6   7 38.3928 2.86889   4 
   8  -6  -7 22.6709 2.15141   3 
   8  -6  -7 22.6817 2.29484   4 
   8  -6  -7 25.5499 1.69297   6 
  -8   6   7 24.1735 2.05027   5 
  -8   6   7 23.0790 2.32333   4 
   7  -6  -7 99.2999 4.54104   4 
   7  -6  -7 98.0792 4.30169   3 
   7  -6  -7 99.5425 3.64734   6 
  -7   6   7 101.665 4.13705   5 
  -7   6   7 104.070 4.60199   4 
   6  -6  -7 55.1854 2.38810   6 
   6  -6  -7 57.9908 2.96978   3 
  -6   6   7 53.3322 2.76035   5 
  -6   6   7 57.4617 3.17108   4 
   5  -6  -7 120.470 4.01620   6 
   5  -6  -7 124.274 4.60832   3 
  -5   6   7 121.199 4.82557   4 
  -5   6   7 125.637 4.47305   5 
   4  -6  -7 26.5145 1.45143   2 
   4  -6  -7 27.0524 1.91827   3 
   4  -6  -7 26.2884 1.43226   6 
  -4   6   7 27.8399 2.02919   4 
  -4   6   7 24.3059 1.72022   5 
   3  -6  -7 202.317 6.33966   3 
   3  -6  -7 198.057 5.84896   2 
   3  -6  -7 204.406 5.83963   6 
  -3   6   7 198.794 6.11066   5 
  -3   6   7 196.602 6.53127   4 
   2  -6  -7 14.3570 0.98374   6 
   2  -6  -7 11.6765 1.17351   3 
   2  -6  -7 11.7715 1.03017   2 
  -2   6   7 11.2781 1.00951   5 
  -2   6   7 12.1144 1.24289   4 
   1  -6  -7 62.3449 2.36591   2 
   1  -6  -7 61.4560 2.27459   6 
   1  -6  -7 61.0307 2.60804   3 
  -1   6   7 61.4869 2.76937   4 
  -1   6   7 64.3985 2.37415   5 
   0  -6  -7 20.9755 1.35490   2 
   0  -6  -7 20.0441 1.15377   6 
   0  -6  -7 20.6551 1.40469   3 
   0   6   7 19.9174 1.57303   4 
   0   6   7 22.3786 1.22676   5 
  -1  -6  -7 232.025 6.84971   3 
  -1  -6  -7 240.986 6.78096   2 
  -1  -6  -7 233.391 6.62973   6 
   1   6   7 242.814 6.54594   5 
   1   6   7 231.745 7.15879   4 
  -2  -6  -7 1.93927 0.52473   3 
  -2  -6  -7 1.58127 0.54657   2 
  -2  -6  -7 1.83113 0.36140   1 
  -2  -6  -7 1.45890 0.43054   6 
   2   6   7 1.39531 0.71981   4 
   2   6   7 1.54498 0.37738   5 
  -3  -6  -7 412.883 11.0745   2 
  -3  -6  -7 404.098 10.6443   1 
  -3  -6  -7 404.598 11.0108   3 
  -3  -6  -7 397.455 10.9265   6 
   3   6   7 415.919 10.6739   5 
   3   6   7 406.848 11.5143   4 
  -4  -6  -7 101.488 3.31910   6 
  -4  -6  -7 100.913 3.41615   2 
  -4  -6  -7 100.542 3.11040   1 
   4   6   7 98.2155 3.82900   4 
   4   6   7 101.992 3.02174   5 
   4   6   7 100.952 3.34587   3 
  -5  -6  -7 158.594 4.88632   2 
  -5  -6  -7 164.127 4.70129   1 
  -5  -6  -7 158.082 4.82753   6 
   5   6   7 162.382 4.85238   3 
   5   6   7 149.924 5.37041   4 
  -6  -6  -7 98.5802 3.31026   1 
  -6  -6  -7 101.510 3.42989   2 
  -6  -6  -7 100.239 3.40269   6 
   6   6   7 102.513 3.40763   3 
   6   6   7 95.5384 3.97256   4 
  -7  -6  -7 42.0139 1.95972   2 
  -7  -6  -7 39.6520 1.88387   1 
   7   6   7 41.0191 2.49708   4 
   7   6   7 45.5910 2.00477   3 
  -8  -6  -7 4.00763 0.73953   2 
  -8  -6  -7 3.13734 0.73507   1 
   8   6   7 2.52608 1.07773   4 
  -9  -6  -7 102.824 3.74587   1 
   9   6   7 103.876 4.51110   4 
 -10  -6  -7 32.4297 1.94498   1 
  10   6   7 30.4681 2.52121   4 
 -11  -6  -7 86.1717 3.57479   1 
  11   6   7 82.0246 4.23446   4 
 -12  -6  -7 31.6092 2.14050   1 
  12   6   7 20.6689 2.32677   4 
   8  -7  -7 66.9501 3.56532   3 
   8  -7  -7 63.2028 2.77322   6 
  -8   7   7 65.4132 3.75716   4 
  -8   7   7 61.3875 3.28603   5 
   7  -7  -7 14.7257 1.24911   6 
   7  -7  -7 18.9949 1.87596   3 
  -7   7   7 12.9508 1.53364   5 
  -7   7   7 16.9104 1.92079   4 
   6  -7  -7 128.343 4.96747   3 
   6  -7  -7 122.935 4.14447   6 
  -6   7   7 127.000 5.21169   4 
  -6   7   7 118.577 4.65518   5 
   5  -7  -7 6.55115 0.83084   6 
   5  -7  -7 5.98917 1.18325   3 
  -5   7   7 6.31943 1.27889   4 
  -5   7   7 7.05540 1.11098   5 
   4  -7  -7 112.460 4.35079   3 
   4  -7  -7 112.586 3.71670   6 
  -4   7   7 113.569 4.59979   4 
  -4   7   7 115.778 4.17467   5 
   3  -7  -7 19.9705 1.32263   2 
   3  -7  -7 19.8144 1.68469   3 
   3  -7  -7 19.1624 1.19186   6 
  -3   7   7 18.4299 1.48706   5 
  -3   7   7 19.4049 1.76108   4 
   2  -7  -7 55.4312 2.67543   3 
   2  -7  -7 57.9331 2.22678   6 
   2  -7  -7 60.6508 2.40165   2 
  -2   7   7 62.8686 2.56300   5 
  -2   7   7 58.7041 2.86021   4 
   1  -7  -7 58.6897 2.60156   3 
   1  -7  -7 56.5952 2.16629   6 
   1  -7  -7 57.9577 2.33977   2 
  -1   7   7 59.7340 2.81032   4 
  -1   7   7 59.1146 2.33092   5 
   0  -7  -7 24.8571 1.43376   2 
   0  -7  -7 23.3355 1.53910   3 
   0  -7  -7 24.5949 1.27125   6 
   0   7   7 24.6506 1.31439   5 
   0   7   7 22.7770 1.72368   4 
  -1  -7  -7 0.18291 0.37626   6 
  -1  -7  -7 1.06249 0.56383   3 
  -1  -7  -7 0.17677 0.47048   2 
   1   7   7 1.62933 0.72663   4 
   1   7   7 0.21572 0.34965   5 
  -2  -7  -7 117.374 3.98437   3 
  -2  -7  -7 119.472 3.92797   2 
  -2  -7  -7 116.606 3.73028   6 
   2   7   7 118.542 4.30457   4 
   2   7   7 125.816 3.55359   5 
  -3  -7  -7 15.9452 1.18070   3 
  -3  -7  -7 13.2151 1.15576   2 
  -3  -7  -7 16.2927 1.06013   6 
  -3  -7  -7 15.9939 0.91858   1 
   3   7   7 14.0124 1.38091   4 
  -4  -7  -7 193.548 5.79481   3 
  -4  -7  -7 193.977 5.79678   2 
  -4  -7  -7 196.279 5.43807   1 
  -4  -7  -7 195.272 5.67815   6 
   4   7   7 185.502 6.21803   4 
   4   7   7 190.545 5.79744   3 
  -5  -7  -7 63.5930 2.43034   6 
  -5  -7  -7 62.3164 2.54666   2 
  -5  -7  -7 65.8329 2.33090   1 
   5   7   7 61.3704 2.97787   4 
   5   7   7 64.9665 2.55796   3 
  -6  -7  -7 263.613 7.60367   2 
  -6  -7  -7 267.743 7.54336   6 
  -6  -7  -7 261.541 7.39368   1 
   6   7   7 264.052 7.60149   3 
   6   7   7 251.625 8.17122   4 
  -7  -7  -7 1.50730 0.55092   6 
  -7  -7  -7 1.12903 0.64408   2 
  -7  -7  -7 0.78300 0.60473   1 
   7   7   7 2.17792 1.02041   4 
   7   7   7 1.12319 0.66696   3 
  -8  -7  -7 140.047 4.55340   2 
  -8  -7  -7 138.059 4.54346   1 
   8   7   7 137.051 5.28800   4 
   8   7   7 138.320 4.63222   3 
  -9  -7  -7 0.18202 0.67768   1 
  -9  -7  -7 -0.2668 0.56152   2 
   9   7   7 -1.2970 1.01826   4 
 -10  -7  -7 57.0668 2.66045   1 
  10   7   7 54.3495 3.26386   4 
 -11  -7  -7 15.3710 1.47035   1 
  11   7   7 10.2371 1.83247   4 
 -12  -7  -7 22.0854 1.86099   1 
  12   7   7 23.8770 2.45059   4 
   7  -8  -7 111.521 4.80077   3 
   7  -8  -7 109.526 3.91117   6 
  -7   8   7 110.867 5.12652   4 
  -7   8   7 112.035 4.60204   5 
   6  -8  -7 1.07823 0.98599   3 
   6  -8  -7 0.79571 0.61418   6 
  -6   8   7 0.29859 1.08705   4 
  -6   8   7 1.51326 0.89473   5 
   5  -8  -7 109.712 3.75154   6 
   5  -8  -7 108.701 4.57446   3 
  -5   8   7 114.530 4.88341   4 
  -5   8   7 114.457 4.36189   5 
   4  -8  -7 8.10586 1.27902   3 
   4  -8  -7 7.38221 0.83530   6 
  -4   8   7 6.22266 1.06104   5 
  -4   8   7 7.51142 1.32389   4 
   3  -8  -7 145.196 5.24755   3 
   3  -8  -7 148.778 4.55522   6 
   3  -8  -7 152.578 4.77681   2 
  -3   8   7 140.302 5.43896   4 
  -3   8   7 152.480 5.00568   5 
   2  -8  -7 0.13869 0.40568   6 
   2  -8  -7 -0.4544 0.58209   3 
   2  -8  -7 -0.5353 0.50005   2 
  -2   8   7 0.42298 0.73474   4 
  -2   8   7 0.04902 0.57666   5 
   1  -8  -7 279.216 7.75609   6 
   1  -8  -7 287.233 8.41537   3 
   1  -8  -7 277.452 8.00438   2 
  -1   8   7 270.857 8.58136   4 
  -1   8   7 275.790 7.91491   5 
   0  -8  -7 0.28028 0.58536   3 
   0  -8  -7 -0.5048 0.32523   6 
   0  -8  -7 0.20807 0.51946   2 
   0   8   7 0.00152 0.70112   4 
   0   8   7 0.35651 0.44846   5 
  -1  -8  -7 138.798 4.21821   6 
  -1  -8  -7 132.360 4.60955   3 
  -1  -8  -7 142.354 4.50828   2 
   1   8   7 142.434 4.12707   5 
   1   8   7 133.494 4.88811   4 
  -2  -8  -7 18.5582 1.11545   6 
  -2  -8  -7 18.5205 1.36380   3 
  -2  -8  -7 16.0693 1.26227   2 
   2   8   7 14.8325 1.47435   4 
  -3  -8  -7 150.587 4.65386   6 
  -3  -8  -7 155.203 4.92456   2 
  -3  -8  -7 159.429 5.00779   3 
   3   8   7 151.834 5.32807   4 
  -4  -8  -7 43.7393 1.90491   6 
  -4  -8  -7 44.2611 2.12270   3 
  -4  -8  -7 43.4290 2.12936   2 
  -4  -8  -7 44.4651 1.76153   1 
   4   8   7 42.8840 2.46388   4 
   4   8   7 45.6356 2.17428   3 
  -5  -8  -7 357.781 10.0532   2 
  -5  -8  -7 353.357 9.84212   6 
  -5  -8  -7 353.894 9.66715   1 
   5   8   7 354.344 10.5606   4 
   5   8   7 363.364 10.0964   3 
  -6  -8  -7 69.5040 2.59982   1 
  -6  -8  -7 66.6616 2.81486   2 
  -6  -8  -7 70.5628 2.69157   6 
   6   8   7 67.2721 3.28765   4 
   6   8   7 73.0369 2.91788   3 
  -7  -8  -7 311.818 8.78844   6 
  -7  -8  -7 307.795 8.67515   1 
  -7  -8  -7 305.071 8.85826   2 
   7   8   7 309.555 8.93105   3 
   7   8   7 300.656 9.48160   4 
  -8  -8  -7 0.01166 0.63764   2 
  -8  -8  -7 0.36817 0.62698   1 
   8   8   7 -0.0138 0.94092   4 
   8   8   7 0.63535 0.73952   3 
  -9  -8  -7 126.593 4.30162   2 
  -9  -8  -7 120.486 4.27784   1 
   9   8   7 120.355 5.01086   4 
 -10  -8  -7 10.6849 1.21706   1 
  10   8   7 9.67084 1.67378   4 
 -11  -8  -7 77.7898 3.34703   1 
  11   8   7 73.6297 3.93027   4 
 -12  -8  -7 1.97091 0.96080   1 
  12   8   7 -0.7522 1.22900   4 
   6  -9  -7 52.9031 3.17067   3 
   6  -9  -7 55.4525 2.33550   6 
  -6   9   7 50.5051 3.35061   4 
  -6   9   7 52.6189 2.93596   5 
   5  -9  -7 2.30046 1.05161   3 
   5  -9  -7 2.41556 0.64184   6 
  -5   9   7 1.39319 0.91765   5 
  -5   9   7 3.02107 1.24143   4 
   4  -9  -7 81.6372 3.74205   3 
   4  -9  -7 75.6201 2.80178   6 
  -4   9   7 78.0814 3.39620   5 
  -4   9   7 74.3217 3.81740   4 
   3  -9  -7 3.16574 1.03051   3 
   3  -9  -7 2.83056 0.61781   6 
  -3   9   7 3.72692 1.08315   4 
  -3   9   7 1.85089 0.80079   5 
   2  -9  -7 81.7693 3.54889   3 
   2  -9  -7 83.6705 3.16532   2 
   2  -9  -7 83.4335 2.88407   6 
  -2   9   7 78.3498 3.71195   4 
  -2   9   7 84.9583 3.26048   5 
   1  -9  -7 3.06067 0.56072   6 
   1  -9  -7 2.92932 0.84405   3 
   1  -9  -7 1.64445 0.70317   2 
  -1   9   7 2.03695 0.92042   4 
  -1   9   7 3.24507 0.72687   5 
   0  -9  -7 320.343 8.91443   6 
   0  -9  -7 334.059 9.65224   3 
   0  -9  -7 325.214 9.28983   2 
   0   9   7 319.537 9.85206   4 
  -1  -9  -7 0.52379 0.62780   3 
  -1  -9  -7 -1.2603 0.52927   2 
  -1  -9  -7 0.19714 0.41251   6 
   1   9   7 0.04860 0.76786   4 
  -2  -9  -7 104.660 3.41948   6 
  -2  -9  -7 103.698 3.85440   3 
  -2  -9  -7 108.775 3.80106   2 
   2   9   7 103.005 4.14386   4 
  -3  -9  -7 88.1629 3.41541   2 
  -3  -9  -7 97.1708 3.57308   3 
  -3  -9  -7 94.4093 3.14994   6 
   3   9   7 89.9609 3.79689   4 
  -4  -9  -7 76.6831 2.78135   6 
  -4  -9  -7 75.0348 3.02647   2 
  -4  -9  -7 78.7793 3.11573   3 
   4   9   7 74.2388 3.42830   4 
   4   9   7 77.3686 3.16426   3 
  -5  -9  -7 34.2453 1.62728   1 
  -5  -9  -7 33.2170 1.68393   6 
  -5  -9  -7 31.7664 1.93469   2 
   5   9   7 34.4653 2.00344   3 
   5   9   7 33.7205 2.31061   4 
  -6  -9  -7 160.452 5.17754   2 
  -6  -9  -7 154.123 4.90321   6 
  -6  -9  -7 153.086 4.79206   1 
   6   9   7 161.267 5.24961   3 
   6   9   7 148.821 5.55076   4 
  -7  -9  -7 13.4825 1.25869   2 
  -7  -9  -7 15.1020 1.24118   6 
  -7  -9  -7 12.3375 1.12494   1 
   7   9   7 11.2305 1.57383   4 
   7   9   7 15.8976 1.50279   3 
  -8  -9  -7 65.8034 2.76660   1 
  -8  -9  -7 69.0788 2.87363   6 
  -8  -9  -7 73.8166 2.99663   2 
   8   9   7 68.1251 3.04553   3 
   8   9   7 63.0321 3.36627   4 
  -9  -9  -7 12.5728 1.23407   1 
  -9  -9  -7 12.6969 1.26699   2 
   9   9   7 9.76595 1.27548   3 
   9   9   7 12.4569 1.68330   4 
 -10  -9  -7 12.4013 1.32844   1 
  10   9   7 15.0023 1.80538   4 
 -11  -9  -7 0.91905 0.89082   1 
  11   9   7 0.32244 1.20200   4 
 -12  -9  -7 38.4168 2.37034   1 
  12   9   7 37.4794 2.95880   4 
  -6  10   7 17.4891 1.75381   5 
   5 -10  -7 31.9530 1.68007   6 
   5 -10  -7 32.6557 2.51630   3 
  -5  10   7 33.9975 2.36246   5 
  -5  10   7 32.1109 2.64916   4 
   4 -10  -7 8.05404 0.87242   6 
   4 -10  -7 8.59152 1.36051   3 
  -4  10   7 9.23628 1.31417   5 
  -4  10   7 7.24284 1.46768   4 
   3 -10  -7 110.694 4.53237   3 
   3 -10  -7 107.380 3.58432   6 
  -3  10   7 105.278 4.71431   4 
   2 -10  -7 36.3918 1.71867   6 
   2 -10  -7 40.7188 2.43707   3 
   2 -10  -7 37.2822 2.09032   2 
  -2  10   7 38.8257 2.60663   4 
   1 -10  -7 138.871 5.08224   3 
   1 -10  -7 135.662 4.23623   6 
   1 -10  -7 137.743 4.67509   2 
  -1  10   7 130.660 5.22783   4 
   0 -10  -7 11.1696 0.90753   6 
   0 -10  -7 10.4700 1.18862   2 
   0 -10  -7 10.9164 1.27028   3 
   0  10   7 10.8732 1.45280   4 
  -1 -10  -7 165.669 5.71003   3 
  -1 -10  -7 170.978 5.05247   6 
  -1 -10  -7 173.896 5.49520   2 
   1  10   7 162.207 5.93627   4 
  -2 -10  -7 16.8553 1.52137   3 
  -2 -10  -7 15.7587 1.10356   6 
  -2 -10  -7 17.1338 1.44244   2 
   2  10   7 14.6776 1.58687   4 
  -3 -10  -7 83.8477 2.95501   6 
  -3 -10  -7 88.0401 3.55292   3 
  -3 -10  -7 82.4000 3.28222   2 
   3  10   7 79.3209 3.63411   4 
  -4 -10  -7 91.5186 3.24039   6 
  -4 -10  -7 94.7707 3.60137   2 
  -4 -10  -7 96.9981 3.71251   3 
   4  10   7 91.5238 4.01147   4 
   4  10   7 97.0957 3.76394   3 
  -5 -10  -7 75.5929 2.86116   6 
  -5 -10  -7 80.1336 3.20292   2 
   5  10   7 76.8887 3.30172   3 
   5  10   7 79.1814 3.63064   4 
  -6 -10  -7 59.1021 2.73215   2 
  -6 -10  -7 58.4820 2.37050   1 
  -6 -10  -7 55.8202 2.41526   6 
   6  10   7 59.4779 2.83534   3 
   6  10   7 58.5796 3.09741   4 
  -7 -10  -7 185.315 5.90245   6 
  -7 -10  -7 189.584 5.87056   1 
  -7 -10  -7 201.582 6.26476   2 
   7  10   7 188.544 6.67844   4 
   7  10   7 195.340 6.33753   3 
  -8 -10  -7 -1.1824 0.72101   2 
  -8 -10  -7 -0.7998 0.56458   6 
  -8 -10  -7 -0.6104 0.59954   1 
   8  10   7 0.41389 0.79367   3 
   8  10   7 1.02659 1.10822   4 
  -9 -10  -7 32.3538 1.96847   1 
  -9 -10  -7 33.0047 2.05290   2 
   9  10   7 31.0479 2.45525   4 
 -10 -10  -7 11.1721 1.29118   2 
 -10 -10  -7 10.5286 1.25473   1 
  10  10   7 10.4662 1.71481   4 
  10  10   7 10.2801 1.33253   3 
 -11 -10  -7 22.4693 1.78618   1 
  11  10   7 20.2154 2.16636   4 
 -12 -10  -7 1.88976 0.93069   1 
  12  10   7 2.21684 1.34816   4 
   4 -11  -7 75.5679 3.81164   3 
   4 -11  -7 78.3068 2.82747   6 
  -4  11   7 75.1732 4.07109   4 
   3 -11  -7 0.46111 0.45384   6 
   3 -11  -7 -0.2019 0.83008   3 
  -3  11   7 0.54355 0.95156   4 
   2 -11  -7 159.988 5.84854   3 
   2 -11  -7 159.040 4.78777   6 
  -2  11   7 147.454 5.97231   4 
   1 -11  -7 45.1633 2.58956   3 
   1 -11  -7 41.6088 1.84311   6 
  -1  11   7 41.1108 2.72584   4 
   0 -11  -7 109.032 4.39596   3 
   0 -11  -7 114.748 4.12070   2 
   0 -11  -7 111.417 3.58445   6 
   0  11   7 100.287 4.49475   4 
  -1 -11  -7 26.6461 1.42353   6 
  -1 -11  -7 27.2331 1.87234   2 
  -1 -11  -7 28.0582 1.98316   3 
   1  11   7 23.7794 2.14533   4 
  -2 -11  -7 202.551 5.99778   6 
  -2 -11  -7 210.335 6.80770   3 
  -2 -11  -7 208.556 6.56820   2 
   2  11   7 198.995 6.98921   4 
  -3 -11  -7 -0.0129 0.66029   3 
  -3 -11  -7 -0.5633 0.64298   2 
  -3 -11  -7 1.13895 0.48900   6 
   3  11   7 -0.4233 0.89512   4 
  -4 -11  -7 24.6168 1.84277   3 
  -4 -11  -7 25.8031 1.44777   6 
  -4 -11  -7 27.4667 1.83861   2 
   4  11   7 27.6512 1.98096   3 
   4  11   7 24.4371 2.11428   4 
  -5 -11  -7 0.75732 0.48529   6 
  -5 -11  -7 -0.1939 0.75056   2 
   5  11   7 2.54770 1.05172   4 
   5  11   7 0.32893 0.77274   3 
  -6 -11  -7 34.4298 2.11032   2 
  -6 -11  -7 32.4766 1.75692   6 
   6  11   7 37.0208 2.26579   3 
   6  11   7 34.1556 2.45523   4 
  -7 -11  -7 10.6351 1.27505   2 
  -7 -11  -7 8.78662 1.01461   6 
   7  11   7 8.13986 1.28525   3 
   7  11   7 8.32162 1.51962   4 
  -8 -11  -7 115.594 4.07598   1 
  -8 -11  -7 111.436 4.08371   6 
  -8 -11  -7 119.087 4.39681   2 
   8  11   7 115.892 4.53307   3 
   8  11   7 114.689 4.85377   4 
  -9 -11  -7 0.99931 0.75195   1 
  -9 -11  -7 0.98375 0.91836   2 
  -9 -11  -7 1.48755 0.75033   6 
   9  11   7 1.85219 0.96240   3 
   9  11   7 0.89837 1.16176   4 
 -10 -11  -7 70.4026 3.11457   1 
 -10 -11  -7 69.2100 3.24936   2 
  10  11   7 67.6048 3.70361   4 
  10  11   7 70.1332 3.37544   3 
 -11 -11  -7 -0.3418 0.76054   1 
  11  11   7 -1.2150 1.11735   4 
 -12 -11  -7 26.8594 2.04160   1 
  12  11   7 26.0773 2.54919   4 
   2 -12  -7 3.97985 1.08600   3 
   2 -12  -7 3.49143 0.61827   6 
  -2  12   7 2.96156 1.18902   4 
   1 -12  -7 129.319 4.07127   6 
   1 -12  -7 131.099 5.17684   3 
   1 -12  -7 127.587 4.69739   2 
  -1  12   7 122.417 5.27672   4 
   0 -12  -7 7.11176 1.21650   3 
   0 -12  -7 4.56484 0.71204   6 
   0 -12  -7 7.69201 1.17804   2 
   0  12   7 5.78475 1.34282   4 
  -1 -12  -7 43.2158 2.52493   3 
  -1 -12  -7 34.7667 2.22418   2 
  -1 -12  -7 39.2539 1.77728   6 
   1  12   7 38.6074 2.68501   4 
  -2 -12  -7 62.2420 2.89359   2 
  -2 -12  -7 60.1572 2.35178   6 
  -2 -12  -7 56.1738 2.98006   3 
   2  12   7 58.4458 3.25352   4 
  -3 -12  -7 102.132 3.99412   2 
  -3 -12  -7 96.5803 4.10332   3 
  -3 -12  -7 98.9748 3.42837   6 
   3  12   7 98.7123 4.37683   4 
   3  12   7 108.629 4.31530   3 
  -4 -12  -7 1.41766 0.82664   3 
  -4 -12  -7 2.70542 0.62941   6 
  -4 -12  -7 2.80732 0.96347   2 
   4  12   7 2.71596 1.03021   3 
   4  12   7 0.57229 1.07933   4 
  -5 -12  -7 93.4428 3.72906   2 
  -5 -12  -7 86.0375 3.19050   6 
   5  12   7 86.9652 4.04979   4 
   5  12   7 86.3638 3.81470   3 
  -6 -12  -7 3.15092 0.96332   2 
  -6 -12  -7 2.60427 0.69172   6 
   6  12   7 2.81271 0.99283   3 
   6  12   7 0.28024 1.10026   4 
  -7 -12  -7 93.5296 3.48775   6 
  -7 -12  -7 97.1076 3.90633   2 
   7  12   7 85.3307 4.15907   4 
   7  12   7 97.0242 4.07314   3 
  -8 -12  -7 1.07767 0.93006   2 
  -8 -12  -7 0.26863 0.62747   6 
   8  12   7 2.11467 1.31333   4 
   8  12   7 1.87399 1.05103   3 
  -9 -12  -7 20.5547 1.60998   6 
  -9 -12  -7 21.2701 1.67127   1 
  -9 -12  -7 19.2291 1.76145   2 
   9  12   7 23.7287 2.26558   4 
   9  12   7 18.1481 1.81273   3 
 -10 -12  -7 4.95290 1.16053   2 
 -10 -12  -7 6.04564 1.11478   1 
  10  12   7 5.50995 1.29830   3 
  10  12   7 4.04353 1.44887   4 
 -11 -12  -7 45.8901 2.54408   1 
  12  12   7 7.49634 1.65411   4 
   1 -13  -7 26.8290 1.41913   6 
   1 -13  -7 25.1889 2.20275   3 
  -1  13   7 27.0986 2.50404   4 
   0 -13  -7 12.8688 1.44110   2 
   0 -13  -7 12.7220 1.02638   6 
   0 -13  -7 13.4670 1.58462   3 
   0  13   7 11.6666 1.70110   4 
  -1 -13  -7 68.3188 3.49725   3 
  -1 -13  -7 73.2169 3.33966   2 
  -1 -13  -7 70.5892 2.64416   6 
   1  13   7 72.6346 3.78820   4 
  -2 -13  -7 59.1767 2.35320   6 
  -2 -13  -7 59.8218 3.16777   3 
  -2 -13  -7 63.2461 3.03629   2 
   2  13   7 56.4570 3.34832   4 
  -3 -13  -7 0.35005 0.76058   3 
  -3 -13  -7 0.29470 0.81834   2 
  -3 -13  -7 1.09954 0.53623   6 
   3  13   7 0.93631 0.94701   3 
   3  13   7 -0.5963 0.98510   4 
  -4 -13  -7 37.2686 2.43812   3 
  -4 -13  -7 37.4445 1.82827   6 
  -4 -13  -7 39.6317 2.40067   2 
   4  13   7 37.6629 2.71117   4 
   4  13   7 38.1006 2.54183   3 
  -5 -13  -7 -0.9684 0.75246   2 
  -5 -13  -7 0.22728 0.53377   6 
   5  13   7 0.72082 0.90869   3 
   5  13   7 1.19870 1.13792   4 
  -6 -13  -7 60.7607 2.59557   6 
  -6 -13  -7 63.1921 3.11411   2 
   6  13   7 61.3216 3.45242   4 
   6  13   7 64.8861 3.30640   3 
  -7 -13  -7 4.51245 1.14393   2 
  -7 -13  -7 5.48658 0.91878   6 
   7  13   7 4.98383 1.22982   3 
   7  13   7 3.27454 1.35986   4 
  -8 -13  -7 63.4620 3.22223   2 
  -8 -13  -7 65.3409 2.82601   6 
   8  13   7 60.2047 3.52056   4 
   8  13   7 63.4445 3.36804   3 
  -9 -13  -7 0.65508 0.70621   6 
  -9 -13  -7 -1.3270 0.79099   2 
   9  13   7 -0.8232 0.96220   3 
   9  13   7 -0.9170 1.20223   4 
 -10 -13  -7 100.028 4.18954   2 
 -10 -13  -7 91.7696 3.80655   6 
  10  13   7 89.2279 4.50616   4 
  10  13   7 89.8819 4.21132   3 
 -11 -13  -7 3.17576 0.95075   1 
 -11 -13  -7 0.60114 0.96649   2 
  11  13   7 1.86039 1.07508   3 
  -1 -14  -7 55.2112 2.95321   2 
   1  14   7 53.6198 3.38867   4 
  -2 -14  -7 24.8420 2.02797   2 
  -2 -14  -7 26.5700 2.20970   3 
  -2 -14  -7 27.8451 1.48014   6 
   2  14   7 23.3520 2.35556   4 
   2  14   7 30.7387 2.47145   3 
  -3 -14  -7 63.3269 2.46131   6 
  -3 -14  -7 58.2923 3.09862   2 
  -3 -14  -7 62.2937 3.30664   3 
   3  14   7 57.6394 3.49456   4 
   3  14   7 60.0821 3.35813   3 
  -4 -14  -7 16.2286 1.19928   6 
  -4 -14  -7 16.1870 1.64981   2 
   4  14   7 15.6997 1.80149   3 
   4  14   7 13.6285 1.88870   4 
  -5 -14  -7 22.5866 1.95312   2 
  -5 -14  -7 23.9932 1.49719   6 
   5  14   7 23.4070 2.15283   3 
   5  14   7 20.6277 2.18972   4 
  -6 -14  -7 0.20182 0.86347   2 
  -6 -14  -7 -0.8838 0.48987   6 
   6  14   7 -0.7734 1.21535   4 
   6  14   7 -0.2146 0.89935   3 
  -7 -14  -7 75.9063 3.61380   2 
  -7 -14  -7 73.5634 3.02622   6 
   7  14   7 72.7971 3.71582   3 
   7  14   7 72.3005 3.92120   4 
  -8 -14  -7 1.13180 1.00346   2 
  -8 -14  -7 1.06440 0.69984   6 
   8  14   7 -1.0006 0.94734   3 
   8  14   7 -0.9564 1.23891   4 
  -9 -14  -7 55.1069 3.06203   2 
   9  14   7 49.9672 3.16980   3 
   9  14   7 49.9053 3.30728   4 
 -10 -14  -7 1.80576 0.84752   6 
   4  15   7 31.5786 2.76767   4 
   5  15   7 23.0007 2.36205   4 
   6  15   7 39.1552 2.98956   4 
   7  15   7 2.25694 1.36560   4 
   8  10  -8 11.0220 1.52454   2 
  -8 -10   8 11.7447 1.19024   6 
   7  10  -8 -0.9056 0.78532   2 
  -7 -10   8 -0.3637 0.70806   1 
  -7 -10   8 -0.3257 0.50229   6 
   6  10  -8 62.8499 3.25894   2 
  -6 -10   8 58.7381 2.99556   1 
  -6 -10   8 56.6900 2.44490   6 
   5  10  -8 -1.3071 0.71259   2 
  -5 -10   8 0.04004 0.76453   1 
  -5 -10   8 -0.3978 0.42946   6 
   4  10  -8 102.312 4.34185   2 
  -4 -10   8 94.0901 3.24426   6 
  -4 -10   8 98.5011 4.06939   1 
   3  10  -8 39.6346 2.56955   2 
  -3 -10   8 38.9939 1.66657   6 
  -3 -10   8 44.0387 2.55279   1 
   2  10  -8 6.78524 1.23945   2 
  -2 -10   8 6.14415 0.58220   6 
  -2 -10   8 6.29826 1.13693   1 
   1  10  -8 24.1807 2.00926   2 
   1  10  -8 22.0048 1.95836   1 
  -1 -10   8 22.1001 1.76936   5 
  -1 -10   8 26.5084 2.00543   1 
  -1 -10   8 22.2553 0.99144   6 
   0 -10   8 153.244 5.54694   5 
  10   9  -8 0.19213 1.07947   3 
  10   9  -8 0.17397 0.82757   2 
 -10  -9   8 -1.6800 0.61321   6 
   9   9  -8 13.0460 1.73750   3 
   9   9  -8 11.7076 1.49665   2 
  -9  -9   8 12.2422 1.24821   6 
  -9  -9   8 12.0374 1.46177   1 
   8   9  -8 7.45612 1.27593   2 
   8   9  -8 7.86350 1.39471   3 
  -8  -9   8 6.68915 0.98350   6 
  -8  -9   8 5.19681 1.13655   1 
   7   9  -8 60.8812 3.13249   2 
  -7  -9   8 58.4234 2.98824   1 
  -7  -9   8 58.8348 2.57546   6 
   6   9  -8 2.63681 1.00411   2 
  -6  -9   8 3.76793 0.76766   6 
  -6  -9   8 2.88842 0.94629   1 
   5   9  -8 80.0221 3.65199   2 
  -5  -9   8 74.6993 3.37957   1 
  -5  -9   8 78.4861 2.89109   6 
   4   9  -8 55.6814 2.98027   2 
  -4  -9   8 56.7505 2.81105   1 
  -4  -9   8 54.8537 2.19857   6 
  -4  -9   8 53.7052 2.60794   5 
   3   9  -8 90.1317 3.93100   2 
  -3  -9   8 90.1353 3.01429   6 
  -3  -9   8 91.9387 3.76510   1 
  -3  -9   8 87.2548 3.53825   5 
   2   9  -8 41.8373 2.51756   2 
  -2  -9   8 35.2530 1.53072   6 
  -2  -9   8 37.2844 2.12436   5 
  -2  -9   8 35.5366 2.26212   1 
   1   9  -8 41.8779 2.53801   2 
  -1  -9   8 45.1307 2.45738   1 
  -1  -9   8 38.1075 2.23933   5 
  -1  -9   8 36.9786 1.50840   6 
   0   9  -8 14.9500 1.61079   1 
   0   9  -8 13.3259 1.50963   2 
   0  -9   8 14.1251 1.44384   1 
   0  -9   8 13.1159 0.76234   6 
   0  -9   8 12.9386 1.35079   5 
  -1   9  -8 76.5247 3.56113   1 
   1  -9   8 69.7285 3.32423   5 
   2  -9   8 14.4550 1.49917   5 
  10   8  -8 72.1175 3.48544   2 
  10   8  -8 79.6325 3.92461   3 
 -10  -8   8 79.7555 3.55695   1 
 -10  -8   8 80.9461 3.44868   6 
   9   8  -8 5.09361 1.13314   2 
   9   8  -8 6.50460 1.39658   3 
  -9  -8   8 4.12485 1.08189   1 
  -9  -8   8 4.30093 0.96309   6 
   8   8  -8 85.5201 3.82976   3 
   8   8  -8 78.2679 3.63867   2 
  -8  -8   8 85.1024 3.63425   1 
  -8  -8   8 85.9414 3.35557   6 
   7   8  -8 0.14995 0.88889   3 
   7   8  -8 -1.2031 0.72010   2 
  -7  -8   8 -0.0623 0.77512   1 
  -7  -8   8 -1.1350 0.53469   6 
   6   8  -8 113.934 4.48575   2 
  -6  -8   8 111.162 4.26946   1 
  -6  -8   8 111.802 4.05350   5 
  -6  -8   8 113.179 3.88998   6 
   5   8  -8 -0.8569 0.68728   2 
  -5  -8   8 -1.9756 0.54354   5 
  -5  -8   8 0.18111 0.71346   1 
  -5  -8   8 -0.0340 0.48064   6 
   4   8  -8 220.897 7.28896   2 
  -4  -8   8 224.147 7.09787   1 
  -4  -8   8 221.534 6.45702   6 
   3   8  -8 40.4598 2.40302   2 
  -3  -8   8 37.1349 2.10872   5 
  -3  -8   8 37.4895 1.68006   6 
  -3  -8   8 36.2611 2.13656   1 
   2   8  -8 101.143 4.09302   2 
  -2  -8   8 97.0908 3.88582   1 
  -2  -8   8 102.789 3.83722   5 
  -2  -8   8 98.8545 3.19351   6 
   1   8  -8 2.55491 0.91046   2 
  -1  -8   8 3.47529 0.93174   1 
  -1  -8   8 3.27220 0.49450   6 
  -1  -8   8 2.36981 0.83760   5 
   0   8  -8 224.833 7.05733   2 
   0   8  -8 217.434 7.07329   1 
   0  -8   8 207.489 6.83903   5 
   0  -8   8 204.585 5.89103   6 
   0  -8   8 217.715 6.95435   1 
  -1   8  -8 3.47545 1.05434   1 
  -1   8  -8 5.80524 1.07503   2 
   1  -8   8 4.40736 0.92902   5 
   1  -8   8 4.20642 0.49204   6 
   1  -8   8 4.60121 0.97856   1 
  -2   8  -8 80.9659 3.65040   1 
   2  -8   8 79.9531 3.57697   5 
  -3   8  -8 5.94913 1.23333   1 
   3  -8   8 6.52858 1.14521   5 
   3  -8   8 7.23299 0.59069   6 
  11   7  -8 17.2085 1.95849   3 
  10   7  -8 1.56996 1.19671   3 
  10   7  -8 2.47084 0.95086   2 
 -10  -7   8 1.89214 0.98901   1 
   9   7  -8 79.5093 3.81273   3 
   9   7  -8 76.7875 3.48092   2 
  -9  -7   8 83.0937 3.39580   6 
  -9  -7   8 81.4312 3.50518   1 
   8   7  -8 38.1532 2.31797   2 
   8   7  -8 39.7666 2.56561   3 
  -8  -7   8 38.9758 2.08531   5 
  -8  -7   8 36.9632 2.07911   6 
  -8  -7   8 35.8539 2.20153   1 
   7   7  -8 53.2316 2.75171   3 
   7   7  -8 48.3236 2.62355   2 
  -7  -7   8 50.4977 2.33556   6 
  -7  -7   8 47.4250 2.32428   5 
  -7  -7   8 44.7983 2.48240   1 
   6   7  -8 18.1648 1.74666   3 
   6   7  -8 17.5344 1.57686   2 
  -6  -7   8 18.8309 1.56329   1 
  -6  -7   8 19.6937 1.37853   6 
  -6  -7   8 18.2551 1.47413   5 
   5   7  -8 108.611 4.24851   2 
  -5  -7   8 110.283 3.69100   6 
  -5  -7   8 107.067 3.90608   5 
  -5  -7   8 110.446 4.10285   1 
   4   7  -8 14.5044 1.43938   2 
  -4  -7   8 15.9085 1.38106   1 
  -4  -7   8 15.8413 1.12853   6 
  -4  -7   8 14.7613 1.29784   5 
   3   7  -8 121.882 4.56683   2 
  -3  -7   8 121.377 3.85287   6 
  -3  -7   8 125.274 4.41338   1 
  -3  -7   8 123.943 4.30896   5 
   2   7  -8 5.15164 1.03939   2 
  -2  -7   8 4.48458 0.90279   1 
  -2  -7   8 6.22451 0.66851   6 
  -2  -7   8 6.55785 0.97328   5 
  -1  -7   8 107.390 3.95049   5 
  -1  -7   8 107.447 3.32280   6 
  -1  -7   8 103.664 3.96661   1 
   0   7  -8 29.2515 1.93686   2 
   0   7  -8 25.7666 1.89555   1 
   0  -7   8 27.2180 1.81214   1 
   0  -7   8 27.1958 1.82899   5 
   0  -7   8 26.1681 1.21974   6 
  -1   7  -8 20.9184 1.77673   1 
  -1   7  -8 26.5091 1.84266   2 
   1  -7   8 26.8174 1.83228   1 
   1  -7   8 25.2582 1.14637   6 
   1  -7   8 24.7831 1.76779   5 
  -2   7  -8 11.6991 1.38356   1 
   2  -7   8 11.1736 0.76340   6 
   2  -7   8 8.12284 1.16724   5 
  -3   7  -8 80.5520 3.53621   1 
   3  -7   8 73.4544 3.41933   5 
   3  -7   8 74.7805 2.45440   6 
  -4   7  -8 13.0894 1.52496   1 
   4  -7   8 11.2386 0.80711   6 
   4  -7   8 13.1423 1.45148   5 
 -12  -6   8 8.44656 1.28691   1 
  11   6  -8 3.63700 1.31392   3 
 -11  -6   8 3.45376 1.03968   1 
  10   6  -8 37.1599 2.62089   3 
 -10  -6   8 35.5543 2.23532   1 
   9   6  -8 28.9942 2.00808   2 
   9   6  -8 31.7170 2.35894   3 
  -9  -6   8 30.5287 2.05096   1 
  -9  -6   8 31.4775 1.91045   5 
  -9  -6   8 27.7310 1.91262   6 
   8   6  -8 56.4394 2.98194   3 
   8   6  -8 51.8584 2.66444   2 
  -8  -6   8 51.6049 2.50225   6 
  -8  -6   8 53.5937 2.63937   1 
   7   6  -8 51.6666 2.69070   3 
   7   6  -8 50.8770 2.61888   2 
  -7  -6   8 47.0212 2.31361   5 
  -7  -6   8 50.0740 2.48718   1 
  -7  -6   8 47.3527 2.31557   6 
   6   6  -8 125.169 4.65166   2 
   6   6  -8 135.973 4.68523   3 
  -6  -6   8 131.000 4.32863   6 
  -6  -6   8 126.299 4.37142   5 
  -6  -6   8 127.973 4.52293   1 
   5   6  -8 5.30920 0.97437   3 
   5   6  -8 3.89165 0.92591   2 
  -5  -6   8 4.03870 0.87488   1 
  -5  -6   8 4.55159 0.86373   5 
  -5  -6   8 3.34089 0.68882   6 
   4   6  -8 178.204 5.89314   2 
  -4  -6   8 179.101 5.31877   6 
  -4  -6   8 179.089 5.69398   1 
  -4  -6   8 171.715 5.58400   5 
   3   6  -8 18.0852 1.57839   2 
  -3  -6   8 19.1242 1.47114   1 
  -3  -6   8 18.7458 1.14435   6 
  -3  -6   8 17.5923 1.41379   5 
   2   6  -8 69.3751 3.03731   2 
  -2  -6   8 72.2153 2.93481   1 
  -2  -6   8 68.5295 2.45190   6 
  -2  -6   8 72.9596 2.91747   5 
   1   6  -8 6.34776 0.98977   2 
  -1  -6   8 6.97616 0.65836   6 
  -1  -6   8 6.49639 0.92340   5 
  -1  -6   8 6.28420 0.94561   1 
   0   6  -8 74.0640 3.05631   2 
   0  -6   8 65.7198 2.89571   5 
   0  -6   8 70.7020 2.38708   6 
   0  -6   8 69.6489 2.95377   1 
  -1   6  -8 22.0562 1.64681   2 
  -1   6  -8 20.9029 1.65584   1 
   1  -6   8 19.5804 1.53514   1 
   1  -6   8 20.8235 1.56441   5 
   1  -6   8 20.1597 1.06827   6 
  -2   6  -8 54.2138 2.52726   2 
  -2   6  -8 51.0274 2.63041   1 
   2  -6   8 49.6016 2.52141   5 
   2  -6   8 51.8431 1.88474   6 
  -3   6  -8 57.3541 2.81126   1 
   3  -6   8 55.0633 2.73721   5 
   3  -6   8 54.3952 1.98261   6 
  -4   6  -8 123.041 4.68760   1 
   4  -6   8 122.508 4.70143   5 
   4  -6   8 120.823 3.71581   6 
  -5   6  -8 35.3061 2.26658   1 
   5  -6   8 31.5071 1.47302   6 
   5  -6   8 32.2603 2.22228   5 
  11   5  -8 36.9747 2.64002   3 
 -11  -5   8 33.4063 2.18369   1 
 -11  -5   8 35.9603 2.15985   5 
  10   5  -8 7.68841 1.45815   3 
 -10  -5   8 5.24738 1.06360   1 
 -10  -5   8 6.11972 0.99122   5 
   9   5  -8 76.5598 3.58390   3 
  -9  -5   8 76.1330 3.21623   1 
  -9  -5   8 73.3064 3.10745   5 
   8   5  -8 14.1081 1.39977   2 
   8   5  -8 16.4928 1.67456   3 
  -8  -5   8 15.0093 1.34336   5 
  -8  -5   8 16.0370 1.36793   6 
  -8  -5   8 18.0552 1.56007   1 
   7   5  -8 160.098 5.43111   3 
   7   5  -8 150.787 5.23929   2 
  -7  -5   8 149.855 5.03781   5 
  -7  -5   8 161.158 5.09743   6 
  -7  -5   8 154.075 5.14119   1 
   6   5  -8 -0.1848 0.71645   3 
   6   5  -8 0.31138 0.67800   2 
  -6  -5   8 0.23639 0.53838   6 
  -6  -5   8 -1.7869 0.48064   5 
  -6  -5   8 -0.3501 0.65377   1 
   5   5  -8 223.004 6.55247   3 
   5   5  -8 204.698 6.58535   2 
  -5  -5   8 209.518 6.42940   1 
  -5  -5   8 209.217 6.21723   6 
  -5  -5   8 201.774 6.35056   5 
   4   5  -8 24.0033 1.57871   3 
   4   5  -8 24.9734 1.72045   2 
  -4  -5   8 25.6174 1.61182   1 
  -4  -5   8 24.0450 1.38152   6 
  -4  -5   8 22.5650 1.57290   5 
   3   5  -8 223.069 7.06909   2 
  -3  -5   8 233.429 6.93177   1 
  -3  -5   8 239.365 6.61314   6 
  -3  -5   8 226.219 6.90161   5 
   2   5  -8 1.23408 0.69101   2 
  -2  -5   8 1.70878 0.45651   6 
  -2  -5   8 1.45734 0.63167   5 
  -2  -5   8 2.16831 0.68759   1 
   1   5  -8 235.158 7.15780   2 
  -1  -5   8 232.367 6.53362   6 
  -1  -5   8 231.829 7.02376   5 
  -1  -5   8 235.832 7.03479   1 
   0   5  -8 2.45814 0.73472   2 
   0  -5   8 2.42773 0.47535   6 
   0  -5   8 2.27645 0.72854   5 
   0  -5   8 1.93659 0.68846   1 
  -1   5  -8 67.0138 2.75609   2 
  -1   5  -8 60.5386 2.74069   1 
   1  -5   8 63.3211 2.68216   1 
   1  -5   8 57.7355 2.12698   6 
   1  -5   8 60.6147 2.67880   5 
  -2   5  -8 0.68561 0.74509   1 
  -2   5  -8 1.20418 0.65960   2 
   2  -5   8 1.22920 0.40003   6 
   2  -5   8 0.89952 0.41456   6 
   2  -5   8 0.66506 0.65220   5 
  -3   5  -8 203.267 6.56058   1 
   3  -5   8 203.479 6.51587   5 
   3  -5   8 199.204 5.70772   6 
  -4   5  -8 26.5572 1.87949   1 
   4  -5   8 24.9508 1.27297   6 
   4  -5   8 24.1129 1.83133   5 
  -5   5  -8 94.2307 3.87734   1 
   5  -5   8 90.2029 4.12326   4 
   5  -5   8 90.4760 3.04400   6 
   5  -5   8 92.8990 3.86713   5 
  -6   5  -8 17.0203 1.61237   1 
   6  -5   8 16.4041 1.15185   6 
   6  -5   8 14.5716 1.76874   4 
   6  -5   8 16.4223 1.60126   5 
   7  -5   8 113.242 5.12449   4 
 -12  -4   8 23.1070 1.84855   5 
  11   4  -8 -1.8784 0.96066   3 
 -11  -4   8 0.60553 0.71027   5 
  10   4  -8 67.4027 3.46252   3 
 -10  -4   8 64.0831 2.92347   1 
 -10  -4   8 65.0533 2.95691   5 
   9   4  -8 0.12235 0.93193   3 
   9   4  -8 -0.8119 0.62173   2 
  -9  -4   8 0.04351 0.64133   5 
  -9  -4   8 -1.2613 0.60745   1 
   8   4  -8 98.2103 3.78667   2 
   8   4  -8 102.805 4.14153   3 
  -8  -4   8 103.015 3.76938   1 
  -8  -4   8 106.473 3.81853   6 
  -8  -4   8 98.6089 3.73526   5 
   7   4  -8 27.8328 1.85320   2 
   7   4  -8 33.2411 2.12724   3 
  -7  -4   8 28.4167 1.79487   5 
  -7  -4   8 29.0009 1.75556   6 
  -7  -4   8 32.0022 1.83502   1 
   6   4  -8 126.214 4.40967   3 
   6   4  -8 120.453 4.31540   2 
  -6  -4   8 126.883 4.24257   1 
  -6  -4   8 115.533 4.13572   5 
  -6  -4   8 127.189 4.16927   6 
   5   4  -8 41.0900 2.10500   3 
   5   4  -8 37.3942 2.05873   2 
  -5  -4   8 38.0373 1.96838   5 
  -5  -4   8 39.9244 1.97616   1 
  -5  -4   8 39.1846 1.84645   6 
   4   4  -8 81.8186 3.23194   2 
   4   4  -8 85.5269 3.10614   3 
  -4  -4   8 83.5121 2.91899   6 
  -4  -4   8 76.9926 3.05694   5 
  -4  -4   8 84.7614 3.08669   1 
   3   4  -8 0.62658 0.48407   3 
   3   4  -8 1.30102 0.62514   2 
  -3  -4   8 0.59030 0.52915   1 
  -3  -4   8 0.64399 0.43976   6 
  -3  -4   8 -0.6814 0.50585   5 
   2   4  -8 183.344 5.77801   2 
  -2  -4   8 180.122 5.65405   5 
  -2  -4   8 188.066 5.33144   6 
  -2  -4   8 180.523 5.58713   1 
   1   4  -8 17.1378 1.38130   2 
  -1  -4   8 15.5073 0.99910   6 
  -1  -4   8 14.1394 1.20780   1 
  -1  -4   8 14.5381 1.27772   5 
   0   4  -8 93.9634 3.45960   2 
   0  -4   8 94.1831 3.39836   1 
   0  -4   8 93.2199 2.99125   6 
   0  -4   8 92.4157 3.41487   5 
  -1   4  -8 154.280 4.97607   2 
  -1   4  -8 154.136 5.08184   1 
   1  -4   8 154.009 4.50065   6 
   1  -4   8 152.717 4.96842   1 
   1  -4   8 153.925 5.02900   5 
  -2   4  -8 145.171 4.94155   1 
  -2   4  -8 153.476 4.83210   2 
   2  -4   8 160.051 4.99945   4 
   2  -4   8 139.389 4.29485   6 
   2  -4   8 141.582 4.29483   6 
   2  -4   8 143.092 4.88487   5 
  -3   4  -8 18.0152 1.55102   1 
  -3   4  -8 19.8606 1.45966   2 
   3  -4   8 22.9779 1.78994   4 
   3  -4   8 18.0093 1.04811   6 
   3  -4   8 16.3265 1.46774   5 
  -4   4  -8 438.102 12.3303   1 
   4  -4   8 427.402 11.5272   6 
   4  -4   8 446.909 12.5928   4 
   4  -4   8 415.294 12.2432   5 
  -5   4  -8 7.48979 1.12595   1 
   5  -4   8 8.56294 1.19756   5 
   5  -4   8 7.10527 0.74793   6 
  -6   4  -8 68.1935 3.17065   1 
   6  -4   8 66.0880 3.15619   5 
   6  -4   8 66.7244 3.53766   4 
   6  -4   8 62.7890 2.47912   6 
  -7   4  -8 21.6527 1.77936   1 
   7  -4   8 20.6460 1.82910   5 
   7  -4   8 17.3375 1.99974   4 
   7  -4   8 19.4760 1.31095   6 
 -12  -3   8 10.8239 1.35135   5 
  11   3  -8 49.8753 3.07625   3 
 -11  -3   8 47.3589 2.58730   5 
  10   3  -8 -0.0824 1.00252   3 
 -10  -3   8 0.05260 0.67014   5 
   9   3  -8 34.7956 2.40144   3 
  -9  -3   8 38.6525 2.05314   1 
  -9  -3   8 32.0328 2.03125   5 
   8   3  -8 16.2302 1.61091   3 
   8   3  -8 15.3238 1.39628   2 
  -8  -3   8 16.3098 1.44238   5 
  -8  -3   8 15.1700 1.26892   1 
   7   3  -8 110.683 4.04248   2 
   7   3  -8 119.864 4.37866   3 
  -7  -3   8 120.804 4.02642   1 
  -7  -3   8 112.815 4.06210   5 
  -7  -3   8 115.654 4.04162   6 
   6   3  -8 3.84294 0.83010   2 
   6   3  -8 5.06521 0.98771   3 
  -6  -3   8 5.83686 0.83956   1 
  -6  -3   8 5.36063 0.85462   5 
  -6  -3   8 7.17154 0.86923   6 
   5   3  -8 189.226 5.86060   3 
   5   3  -8 183.072 5.82235   2 
  -5  -3   8 187.659 5.62206   6 
  -5  -3   8 180.692 5.73365   5 
  -5  -3   8 190.941 5.66258   1 
   4   3  -8 115.166 4.07831   2 
   4   3  -8 119.968 3.96763   3 
  -4  -3   8 113.061 3.98241   5 
  -4  -3   8 122.673 3.84528   6 
  -4  -3   8 124.228 3.93343   1 
   3   3  -8 46.4246 2.18392   2 
   3   3  -8 46.4774 1.95871   3 
  -3  -3   8 46.4097 2.00554   1 
  -3  -3   8 42.5463 2.07994   5 
  -3  -3   8 46.9629 1.89813   6 
   2   3  -8 309.894 8.91300   2 
  -2  -3   8 307.653 8.83212   5 
  -2  -3   8 312.592 8.72571   1 
  -2  -3   8 315.712 8.53043   6 
   1   3  -8 67.1406 2.68265   2 
  -1  -3   8 63.8658 2.61810   5 
  -1  -3   8 66.1340 2.56072   1 
  -1  -3   8 64.5928 2.30898   6 
   0   3  -8 59.6884 2.51134   2 
   0  -3   8 59.7967 2.17282   6 
   0  -3   8 62.6178 2.48735   1 
   0  -3   8 60.8351 2.53464   5 
  -1   3  -8 259.428 7.75304   1 
  -1   3  -8 260.126 7.68122   2 
   1  -3   8 288.873 7.69811   4 
   1  -3   8 264.749 7.76163   5 
   1  -3   8 257.753 7.65876   1 
   1  -3   8 260.502 7.30349   6 
  -2   3  -8 3.33494 0.77134   1 
  -2   3  -8 5.10628 0.77739   2 
   2  -3   8 5.01818 0.81891   5 
   2  -3   8 5.79618 0.86592   4 
   2  -3   8 4.33586 0.56157   6 
  -3   3  -8 151.333 4.72056   2 
  -3   3  -8 143.685 4.87261   1 
   3  -3   8 151.293 5.03245   4 
   3  -3   8 142.758 4.82650   5 
   3  -3   8 140.033 4.30730   6 
  -4   3  -8 33.8584 1.77972   2 
  -4   3  -8 28.9449 1.85518   1 
   4  -3   8 31.2169 1.85003   5 
   4  -3   8 29.0545 2.08893   4 
   4  -3   8 30.1122 1.42139   6 
  -5   3  -8 340.186 9.67644   1 
   5  -3   8 324.120 9.59372   5 
   5  -3   8 317.298 8.92212   6 
   5  -3   8 318.357 9.95294   4 
  -6   3  -8 12.3639 1.34248   1 
   6  -3   8 14.0412 1.07903   6 
   6  -3   8 15.3514 1.44059   5 
   6  -3   8 11.3474 1.57441   4 
  -7   3  -8 119.135 4.45848   1 
   7  -3   8 119.173 4.55849   5 
   7  -3   8 110.960 3.83926   6 
   7  -3   8 109.952 4.91405   4 
  -8   3  -8 -0.3040 0.71746   1 
   8  -3   8 0.33741 0.99337   4 
   8  -3   8 0.76829 0.53772   6 
   8  -3   8 1.23205 0.90452   5 
 -12  -2   8 14.5409 1.53909   5 
  11   2  -8 3.27849 1.25685   3 
  10   2  -8 47.3815 2.86939   3 
 -10  -2   8 44.6757 2.42786   5 
   9   2  -8 -0.6180 0.85525   3 
  -9  -2   8 -1.2536 0.60366   5 
   8   2  -8 110.498 3.95410   2 
   8   2  -8 116.461 4.47005   3 
  -8  -2   8 111.097 4.11349   5 
  -8  -2   8 119.272 3.95524   1 
   7   2  -8 0.48673 0.61512   2 
   7   2  -8 -0.0623 0.75566   3 
  -7  -2   8 1.27594 0.65600   1 
  -7  -2   8 0.74189 0.63150   5 
   6   2  -8 326.602 9.49283   3 
   6   2  -8 319.628 9.29141   2 
  -6  -2   8 333.703 9.13777   1 
  -6  -2   8 314.194 9.33622   5 
  -6  -2   8 341.569 9.27660   6 
   5   2  -8 12.9113 1.16962   3 
   5   2  -8 10.3420 1.02479   2 
  -5  -2   8 11.2238 0.96150   6 
  -5  -2   8 9.90613 0.93988   1 
  -5  -2   8 9.47375 1.02794   5 
   4   2  -8 188.031 5.55651   3 
   4   2  -8 177.224 5.58825   2 
  -4  -2   8 184.998 5.39898   1 
  -4  -2   8 172.998 5.54498   5 
  -4  -2   8 183.422 5.39559   6 
   3   2  -8 30.3431 1.50499   3 
   3   2  -8 28.3756 1.62070   2 
  -3  -2   8 29.5911 1.48476   1 
  -3  -2   8 28.9686 1.61993   5 
  -3  -2   8 29.1758 1.43758   6 
   2   2  -8 293.460 7.93293   3 
   2   2  -8 292.991 8.31803   2 
  -2  -2   8 286.036 8.23472   5 
  -2  -2   8 288.605 8.08400   1 
  -2  -2   8 290.442 7.98856   6 
   1   2  -8 103.214 3.50072   2 
  -1  -2   8 98.9135 3.34300   1 
  -1  -2   8 100.318 3.19157   6 
  -1  -2   8 98.0951 3.46858   5 
   0   2  -8 417.650 11.5379   2 
   0  -2   8 423.876 11.5698   5 
   0  -2   8 406.083 11.1995   6 
   0  -2   8 447.782 11.3540   4 
   0  -2   8 411.161 11.4198   1 
  -1   2  -8 49.9879 2.20252   2 
  -1   2  -8 52.1175 2.26607   1 
   1  -2   8 54.6002 2.21456   4 
   1  -2   8 54.0121 2.26825   5 
   1  -2   8 50.0985 2.16873   1 
   1  -2   8 52.1011 1.95998   6 
  -2   2  -8 223.029 6.84919   1 
  -2   2  -8 228.999 6.76357   2 
   2  -2   8 248.075 6.97748   4 
   2  -2   8 232.157 6.87775   5 
   2  -2   8 225.658 6.44590   6 
  -3   2  -8 9.76242 0.94457   2 
  -3   2  -8 7.20864 0.96150   1 
   3  -2   8 10.2314 0.80448   6 
   3  -2   8 8.29058 0.73483   6 
   3  -2   8 8.03206 1.03382   4 
   3  -2   8 9.31496 0.97057   5 
  -4   2  -8 134.578 4.27642   2 
  -4   2  -8 128.356 4.46466   1 
   4  -2   8 127.668 3.99860   6 
   4  -2   8 129.206 4.71050   4 
   4  -2   8 136.918 4.51686   5 
  -5   2  -8 0.19891 0.64251   1 
   5  -2   8 0.41484 0.80866   4 
   5  -2   8 0.63209 0.43407   6 
   5  -2   8 -0.5939 0.55081   5 
  -6   2  -8 257.784 7.72040   1 
   6  -2   8 251.249 7.70931   5 
   6  -2   8 242.056 7.11744   6 
   6  -2   8 244.453 8.14152   4 
  -7   2  -8 0.14552 0.64506   1 
   7  -2   8 0.37106 0.72281   5 
   7  -2   8 -0.0489 0.48687   6 
   7  -2   8 1.72605 1.04066   4 
  -8   2  -8 73.7911 3.29393   1 
   8  -2   8 72.8143 2.87569   6 
   8  -2   8 71.2410 3.32500   5 
   8  -2   8 69.1813 3.82599   4 
  -9   2  -8 3.65045 0.98425   5 
   9  -2   8 2.68745 1.28942   4 
   9  -2   8 5.47981 1.16782   5 
  11   1  -8 20.4238 2.03404   3 
 -11  -1   8 20.2158 1.77953   5 
  10   1  -8 1.82369 1.10815   3 
 -10  -1   8 0.74519 0.79145   5 
   9   1  -8 98.6676 4.08248   3 
  -9  -1   8 88.4806 3.66880   5 
   8   1  -8 10.6910 1.40621   3 
  -8  -1   8 11.5010 1.21970   5 
   7   1  -8 47.8911 2.53302   3 
   7   1  -8 49.0754 2.22425   2 
  -7  -1   8 51.9008 2.15567   1 
  -7  -1   8 46.9163 2.33877   5 
   6   1  -8 4.15570 0.92595   3 
   6   1  -8 4.14405 0.77047   2 
  -6  -1   8 3.38953 0.68619   1 
  -6  -1   8 3.11401 0.78737   5 
   5   1  -8 297.429 8.49728   3 
   5   1  -8 290.819 8.37497   2 
  -5  -1   8 299.476 8.14075   1 
  -5  -1   8 297.277 8.27797   6 
  -5  -1   8 281.164 8.42766   5 
   4   1  -8 142.411 4.71484   2 
   4   1  -8 157.528 4.78198   3 
  -4  -1   8 152.451 4.50624   1 
  -4  -1   8 146.154 4.75484   5 
  -4  -1   8 151.840 4.59862   6 
   3   1  -8 344.725 9.27378   3 
   3   1  -8 331.924 9.42590   2 
  -3  -1   8 323.880 9.39570   5 
  -3  -1   8 341.120 9.16297   1 
  -3  -1   8 345.636 9.24512   6 
   2   1  -8 0.74623 0.49899   2 
   2   1  -8 0.41676 0.38930   3 
  -2  -1   8 0.29755 0.35129   6 
  -2  -1   8 0.38749 0.50761   5 
  -2  -1   8 -0.1138 0.39020   1 
  -2  -1   8 -0.1272 0.35942   4 
   1   1  -8 441.609 11.8003   2 
   1   1  -8 419.651 11.2983   3 
  -1  -1   8 415.381 11.7171   5 
  -1  -1   8 433.020 11.5094   6 
  -1  -1   8 430.440 11.5645   1 
  -1  -1   8 455.899 11.5377   4 
   0   1  -8 67.2825 2.62439   2 
   0  -1   8 70.1743 2.65759   5 
   0  -1   8 72.5463 2.56334   1 
   0  -1   8 67.5896 2.41414   6 
   0  -1   8 74.6729 2.58302   4 
  -1   1  -8 525.529 13.8107   2 
  -1   1  -8 500.003 13.7644   1 
   1  -1   8 502.384 13.5350   6 
   1  -1   8 510.900 13.8286   5 
   1  -1   8 516.041 13.7511   1 
   1  -1   8 533.712 13.8275   4 
  -2   1  -8 -0.0695 0.52032   1 
  -2   1  -8 1.28643 0.53275   2 
   2  -1   8 1.67069 0.45936   6 
   2  -1   8 0.81179 0.51287   5 
   2  -1   8 1.32278 0.61003   4 
  -3   1  -8 48.9511 2.17645   1 
  -3   1  -8 46.9377 2.03722   2 
   3  -1   8 44.7875 2.08673   5 
   3  -1   8 47.2554 1.83144   6 
   3  -1   8 45.4982 2.27851   4 
   3  -1   8 46.0755 1.81854   6 
  -4   1  -8 71.6162 2.62549   2 
  -4   1  -8 69.0279 2.78789   1 
   4  -1   8 66.6189 2.42184   6 
   4  -1   8 69.8365 2.77205   5 
   4  -1   8 66.3010 2.98936   4 
  -5   1  -8 168.950 5.58053   1 
  -5   1  -8 188.773 5.34394   2 
   5  -1   8 172.826 5.97047   4 
   5  -1   8 170.624 5.54208   5 
   5  -1   8 171.609 5.17725   6 
  -6   1  -8 9.56746 1.12661   1 
   6  -1   8 10.8959 1.46557   4 
   6  -1   8 9.13019 0.88828   6 
   6  -1   8 9.81280 1.12772   5 
  -7   1  -8 75.6569 3.15792   1 
   7  -1   8 71.5948 3.14059   5 
   7  -1   8 72.7895 2.78161   6 
   7  -1   8 70.2918 3.59979   4 
  -8   1  -8 16.2902 1.49473   1 
   8  -1   8 21.0649 1.41388   6 
   8  -1   8 18.9481 1.67320   5 
   8  -1   8 16.1675 1.88263   4 
  -9   1  -8 37.8915 2.24185   1 
   9  -1   8 34.3722 2.29662   5 
   9  -1   8 36.1927 2.80491   4 
   9  -1   8 34.0982 1.93300   6 
  11   0  -8 19.8431 2.06826   3 
 -11   0   8 16.5083 1.62929   5 
  10   0  -8 80.8348 3.84246   3 
 -10   0   8 73.3443 3.38216   5 
   9   0  -8 -0.0886 0.93388   3 
  -9   0   8 0.66550 0.74825   5 
   8   0  -8 94.1194 3.84444   3 
  -8   0   8 84.5294 3.50150   5 
   7   0  -8 28.0978 1.58976   2 
   7   0  -8 32.7228 2.15834   3 
  -7   0   8 29.8033 1.84224   5 
   6   0  -8 30.3521 1.89000   3 
   6   0  -8 26.5800 1.54338   2 
  -6   0   8 26.2839 1.69952   5 
   5   0  -8 145.490 4.72869   2 
   5   0  -8 156.642 4.99840   3 
  -5   0   8 156.261 4.50517   1 
  -5   0   8 141.577 4.84213   5 
  -5   0   8 158.930 4.74310   6 
   4   0  -8 125.777 4.25260   3 
   4   0  -8 129.093 4.23167   2 
  -4   0   8 136.714 4.15764   6 
  -4   0   8 138.211 4.10836   4 
  -4   0   8 137.701 3.96741   1 
  -4   0   8 123.709 4.28845   5 
   3   0  -8 2.93677 0.62245   3 
   3   0  -8 3.55672 0.73055   2 
  -3   0   8 4.29328 0.65516   4 
  -3   0   8 3.50318 0.57643   6 
  -3   0   8 3.05023 0.65673   5 
  -3   0   8 3.44647 0.52817   1 
   2   0  -8 490.347 13.3879   2 
   2   0  -8 482.389 13.1444   3 
  -2   0   8 499.229 13.0985   1 
  -2   0   8 482.593 13.3620   5 
  -2   0   8 498.933 13.2038   6 
  -2   0   8 542.202 13.2673   4 
   1   0  -8 32.5667 1.62596   2 
   1   0  -8 32.6151 1.38283   3 
  -1   0   8 35.4322 1.62219   4 
  -1   0   8 33.2947 1.47445   6 
  -1   0   8 31.1338 1.60934   5 
  -1   0   8 34.2521 1.47501   1 
   0   0  -8 169.383 4.71092   3 
   0   0  -8 169.146 5.05822   1 
   0   0  -8 174.483 5.21204   2 
   0   0   8 172.583 5.19561   5 
   0   0   8 166.151 4.98988   1 
   0   0   8 180.945 5.19525   4 
   0   0   8 174.346 5.01192   6 
  -1   0  -8 103.768 3.49776   2 
  -1   0  -8 101.887 3.43227   1 
   1   0   8 112.260 3.63835   4 
   1   0   8 102.145 3.30386   6 
   1   0   8 108.858 3.54229   5 
  -2   0  -8 251.755 7.19548   2 
  -2   0  -8 245.781 7.18937   1 
   2   0   8 251.188 7.01988   6 
   2   0   8 257.119 7.25632   5 
   2   0   8 257.201 7.41826   4 
  -3   0  -8 5.25194 0.76577   1 
  -3   0  -8 5.37414 0.73118   2 
   3   0   8 5.73420 0.63060   6 
   3   0   8 5.02525 0.60598   6 
   3   0   8 4.77445 0.72904   5 
   3   0   8 6.67866 0.92172   4 
  -4   0  -8 112.667 3.65907   2 
  -4   0  -8 108.104 3.77958   1 
   4   0   8 112.798 3.54565   6 
   4   0   8 108.304 4.08941   4 
   4   0   8 115.951 3.80444   5 
  -5   0  -8 5.17359 0.82091   1 
  -5   0  -8 5.48105 0.71347   2 
   5   0   8 4.75508 1.02072   4 
   5   0   8 5.58393 0.67503   6 
   5   0   8 3.31332 0.75306   5 
  -6   0  -8 154.083 5.10676   1 
   6   0   8 151.003 5.58419   4 
   6   0   8 158.117 5.11214   5 
   6   0   8 158.217 4.80169   6 
  -7   0  -8 63.5345 2.74055   1 
   7   0   8 60.3630 2.72800   5 
   7   0   8 55.5120 3.18998   4 
   7   0   8 58.5947 2.43024   6 
  -8   0  -8 34.7846 2.06367   1 
   8   0   8 32.8376 2.54230   4 
   8   0   8 34.8237 2.10850   5 
   8   0   8 35.4562 1.84505   6 
  -9   0  -8 29.2601 1.94501   1 
   9   0   8 29.7403 2.03358   5 
   9   0   8 29.4284 1.78104   6 
   9   0   8 30.7447 2.62189   4 
 -10   0  -8 24.5515 1.86457   1 
 -10   0  -8 25.5961 1.90809   5 
  10   0   8 24.7786 1.95859   5 
  10   0   8 21.0792 1.61017   6 
  10   0   8 20.6710 2.27632   4 
 -11   1   8 34.7184 2.39973   5 
  10  -1  -8 16.1036 1.88551   3 
 -10   1   8 19.2504 1.69212   5 
   9  -1  -8 141.587 5.44072   3 
   8  -1  -8 1.44693 0.96103   3 
  -8   1   8 1.13735 0.78931   5 
   7  -1  -8 105.991 4.02993   3 
   7  -1  -8 100.574 3.72307   6 
  -7   1   8 96.3213 3.75580   5 
   6  -1  -8 -0.6829 0.65583   3 
   6  -1  -8 -0.6217 0.47885   2 
   6  -1  -8 0.13765 0.50533   6 
  -6   1   8 0.55226 0.60787   4 
  -6   1   8 -0.4278 0.55294   5 
   5  -1  -8 143.276 4.76599   3 
   5  -1  -8 140.308 4.47751   2 
   5  -1  -8 145.597 4.61101   6 
  -5   1   8 135.234 4.65217   5 
  -5   1   8 151.626 4.66168   4 
   4  -1  -8 83.8449 2.99975   6 
   4  -1  -8 82.5083 2.99018   2 
   4  -1  -8 80.1711 3.11862   3 
  -4   1   8 91.4871 2.71540   1 
  -4   1   8 85.1655 2.93193   6 
  -4   1   8 89.2038 3.08233   4 
  -4   1   8 81.6283 3.11024   5 
   3  -1  -8 78.1274 2.88544   2 
   3  -1  -8 82.8041 2.87389   6 
   3  -1  -8 78.6806 2.92878   3 
  -3   1   8 86.9860 2.95669   4 
  -3   1   8 81.2707 2.98737   5 
  -3   1   8 83.3434 2.59253   1 
  -3   1   8 83.0799 2.79668   6 
   2  -1  -8 0.26866 0.45264   2 
   2  -1  -8 1.13235 0.41394   6 
   2  -1  -8 0.69175 0.43675   3 
  -2   1   8 0.92900 0.50795   4 
  -2   1   8 0.93150 0.48042   5 
  -2   1   8 0.84906 0.36202   1 
  -2   1   8 0.92496 0.38072   6 
   1  -1  -8 421.951 11.5282   3 
   1  -1  -8 427.687 11.6743   6 
   1  -1  -8 440.633 11.8113   2 
  -1   1   8 462.523 11.8580   4 
  -1   1   8 438.065 11.4972   1 
  -1   1   8 433.317 11.7888   5 
  -1   1   8 440.229 11.6499   6 
   0  -1  -8 177.486 5.27809   2 
   0  -1  -8 171.444 4.89814   3 
   0  -1  -8 173.653 5.12503   6 
   0  -1  -8 176.204 5.07378   1 
   0   1   8 176.817 5.11966   6 
   0   1   8 184.494 5.37220   4 
   0   1   8 176.939 5.04506   1 
   0   1   8 175.795 5.24812   5 
  -1  -1  -8 305.340 8.34561   1 
  -1  -1  -8 296.131 8.46529   2 
   1   1   8 305.169 8.32687   6 
   1   1   8 314.954 8.65974   4 
   1   1   8 302.263 8.46232   5 
  -2  -1  -8 14.0028 1.11350   2 
  -2  -1  -8 14.2107 1.08407   1 
   2   1   8 15.3265 0.98702   6 
   2   1   8 14.6914 1.10118   5 
   2   1   8 14.3959 1.29859   4 
  -3  -1  -8 260.529 7.29844   2 
  -3  -1  -8 251.802 7.29233   1 
   3   1   8 255.576 7.14794   6 
   3   1   8 249.999 7.63714   4 
   3   1   8 256.241 7.13743   6 
   3   1   8 266.458 7.33207   5 
  -4  -1  -8 4.39587 0.67161   2 
  -4  -1  -8 4.80159 0.72894   1 
   4   1   8 4.45246 0.61476   6 
   4   1   8 4.68896 0.92980   4 
   4   1   8 5.00135 0.73863   5 
  -5  -1  -8 187.934 5.34202   2 
  -5  -1  -8 170.532 5.44968   1 
   5   1   8 177.038 5.26652   6 
   5   1   8 174.777 5.43678   5 
   5   1   8 176.236 5.96713   4 
  -6  -1  -8 6.60470 0.78737   2 
  -6  -1  -8 6.76895 0.90251   1 
   6   1   8 6.47647 0.76789   6 
   6   1   8 7.12991 0.91658   5 
   6   1   8 6.50352 1.18181   4 
  -7  -1  -8 203.933 6.42109   1 
   7   1   8 209.330 6.22402   6 
   7   1   8 196.783 7.03361   4 
   7   1   8 219.671 6.50401   5 
  -8  -1  -8 59.5902 2.72478   1 
   8   1   8 59.4061 2.53420   6 
   8   1   8 58.4632 3.35026   4 
   8   1   8 65.5123 2.83837   5 
  -9  -1  -8 95.0735 3.80004   1 
   9   1   8 89.8213 4.50022   4 
   9   1   8 104.886 3.90998   5 
   9   1   8 99.1673 3.65597   6 
 -10  -1  -8 5.83405 1.07484   5 
 -10  -1  -8 5.09396 1.04101   1 
  10   1   8 4.66900 1.07360   5 
  10   1   8 5.63105 0.97505   6 
  10   1   8 6.83393 1.52898   4 
 -11  -1  -8 28.4438 2.05967   5 
  10  -2  -8 54.2210 3.16551   3 
 -10   2   8 46.6527 2.76003   5 
   9  -2  -8 7.19644 1.16372   6 
   9  -2  -8 11.5261 1.57475   3 
  -9   2   8 7.07760 1.21999   5 
   8  -2  -8 94.3454 4.02729   3 
   8  -2  -8 96.5712 3.73025   6 
  -8   2   8 91.5054 3.78876   5 
  -8   2   8 97.7360 4.00258   4 
   7  -2  -8 -1.1867 0.63991   3 
   7  -2  -8 -0.3803 0.58781   6 
  -7   2   8 -0.2869 0.60494   5 
  -7   2   8 -1.2204 0.69269   4 
   6  -2  -8 184.221 5.57505   2 
   6  -2  -8 184.659 5.82891   6 
   6  -2  -8 198.685 6.19027   3 
  -6   2   8 185.944 5.96002   5 
  -6   2   8 188.858 6.08356   4 
   5  -2  -8 1.66026 0.54942   2 
   5  -2  -8 1.01990 0.69686   3 
   5  -2  -8 1.77552 0.59573   6 
  -5   2   8 0.52878 0.58934   5 
  -5   2   8 2.02355 0.71596   4 
   4  -2  -8 123.499 4.25362   3 
   4  -2  -8 128.074 4.11042   6 
   4  -2  -8 127.785 4.06695   2 
  -4   2   8 132.248 4.31223   4 
  -4   2   8 127.148 4.23982   5 
   3  -2  -8 26.8801 1.43683   2 
   3  -2  -8 26.7900 1.41268   6 
   3  -2  -8 23.3831 1.44492   3 
  -3   2   8 25.4815 1.32301   6 
  -3   2   8 25.3995 1.50097   5 
  -3   2   8 26.0459 1.07189   1 
  -3   2   8 27.4634 1.60341   4 
   2  -2  -8 35.6163 1.67901   2 
   2  -2  -8 35.6271 1.61161   6 
   2  -2  -8 33.7001 1.64510   3 
  -2   2   8 37.1115 1.34445   1 
  -2   2   8 36.6212 1.80272   4 
  -2   2   8 36.2445 1.74168   5 
  -2   2   8 36.2459 1.57857   6 
   1  -2  -8 20.4330 1.01632   1 
   1  -2  -8 19.3510 1.14163   6 
   1  -2  -8 19.6243 1.25531   2 
   1  -2  -8 18.6254 1.11769   3 
  -1   2   8 20.0428 1.11326   6 
  -1   2   8 19.8384 1.24550   5 
  -1   2   8 20.1435 0.95697   1 
  -1   2   8 21.2709 1.38657   4 
   0  -2  -8 298.044 8.31361   2 
   0  -2  -8 291.881 8.04192   3 
   0  -2  -8 294.112 8.01137   1 
   0  -2  -8 287.651 8.18688   6 
   0   2   8 303.019 8.28365   5 
   0   2   8 309.751 8.49825   4 
   0   2   8 304.938 8.18794   6 
  -1  -2  -8 37.3482 1.69741   2 
  -1  -2  -8 38.1579 1.58714   6 
  -1  -2  -8 35.1129 1.37390   3 
  -1  -2  -8 36.7864 1.53395   1 
   1   2   8 36.6275 1.55673   6 
   1   2   8 35.0931 1.64364   5 
   1   2   8 36.1851 1.90364   4 
  -2  -2  -8 787.641 20.1334   2 
  -2  -2  -8 747.062 19.9483   1 
   2   2   8 778.373 20.0725   5 
   2   2   8 784.806 19.9994   6 
   2   2   8 760.055 20.4318   4 
  -3  -2  -8 66.8784 2.53066   2 
  -3  -2  -8 67.7135 2.49044   1 
   3   2   8 68.2818 2.51400   5 
   3   2   8 70.8160 2.44241   6 
   3   2   8 64.7326 2.85643   4 
   3   2   8 70.6491 2.42696   6 
  -4  -2  -8 201.198 6.01376   1 
  -4  -2  -8 218.091 6.04922   2 
   4   2   8 205.310 5.92243   6 
   4   2   8 196.050 6.47353   4 
   4   2   8 207.137 6.01657   5 
  -5  -2  -8 5.13491 0.71431   2 
  -5  -2  -8 4.86118 0.74826   1 
   5   2   8 5.42576 0.76018   5 
   5   2   8 5.05524 0.66631   6 
   5   2   8 5.34889 1.07033   4 
  -6  -2  -8 123.183 4.20850   1 
  -6  -2  -8 131.409 4.04968   2 
   6   2   8 130.849 4.20046   5 
   6   2   8 121.346 4.74815   4 
   6   2   8 125.776 4.06531   6 
  -7  -2  -8 1.85614 0.70472   1 
   7   2   8 0.51913 0.96707   4 
   7   2   8 2.97636 0.68803   6 
   7   2   8 1.60390 0.74206   5 
  -8  -2  -8 135.193 4.57037   1 
   8   2   8 121.544 5.17276   4 
   8   2   8 137.969 4.58164   5 
   8   2   8 132.817 4.42366   6 
  -9  -2  -8 14.1221 1.33398   1 
   9   2   8 14.7160 1.28498   6 
   9   2   8 12.7793 1.78951   4 
   9   2   8 13.1709 1.32027   5 
 -10  -2  -8 18.7664 1.60680   1 
 -10  -2  -8 21.9694 1.62950   5 
  10   2   8 21.3032 1.74283   5 
  10   2   8 15.5325 2.02845   4 
  10   2   8 18.6223 1.54918   6 
 -11  -2  -8 8.66345 1.24117   1 
 -11  -2  -8 8.46323 1.17645   5 
  11   2   8 7.61330 1.13442   6 
  10  -3  -8 3.54195 1.08773   6 
  10  -3  -8 6.02915 1.41415   3 
 -10   3   8 1.74656 0.94617   5 
   9  -3  -8 92.5048 3.77261   6 
   9  -3  -8 100.302 4.31579   3 
  -9   3   8 87.7235 3.89540   5 
  -9   3   8 93.8929 4.22084   4 
   8  -3  -8 -0.7885 0.62476   6 
   8  -3  -8 -0.1861 0.88441   3 
  -8   3   8 -1.1805 0.64184   5 
  -8   3   8 -0.2574 0.79521   4 
   7  -3  -8 67.3212 3.22304   3 
   7  -3  -8 67.1938 2.86062   6 
  -7   3   8 71.3294 3.27803   4 
  -7   3   8 66.0209 3.00559   5 
   6  -3  -8 15.4715 1.26433   6 
   6  -3  -8 15.9370 1.47817   3 
  -6   3   8 14.6307 1.50687   4 
  -6   3   8 14.0313 1.28564   5 
   5  -3  -8 28.8823 1.57764   6 
   5  -3  -8 26.6465 1.84649   3 
  -5   3   8 25.9067 1.68279   5 
  -5   3   8 26.0609 1.76431   4 
   4  -3  -8 19.8740 1.29228   2 
   4  -3  -8 21.8894 1.32950   6 
   4  -3  -8 21.5472 1.58180   3 
  -4   3   8 23.4057 1.52469   5 
  -4   3   8 22.8295 1.56845   4 
   3  -3  -8 229.936 7.00270   3 
   3  -3  -8 235.383 6.81601   2 
   3  -3  -8 245.061 6.86409   6 
  -3   3   8 235.483 6.97883   5 
  -3   3   8 247.889 7.16666   4 
   2  -3  -8 44.9091 1.95942   2 
   2  -3  -8 44.3543 1.89198   6 
   2  -3  -8 44.9388 2.02131   3 
  -2   3   8 46.8004 2.02215   5 
  -2   3   8 48.0715 1.88742   6 
  -2   3   8 51.3513 2.24992   4 
   1  -3  -8 207.585 5.58269   1 
   1  -3  -8 206.477 6.04182   2 
   1  -3  -8 202.684 5.97622   3 
   1  -3  -8 204.374 5.95731   6 
  -1   3   8 214.812 6.29932   4 
  -1   3   8 210.138 6.03173   5 
  -1   3   8 206.665 5.90525   6 
   0  -3  -8 165.956 5.03200   2 
   0  -3  -8 164.267 4.93809   6 
   0  -3  -8 166.292 4.87810   3 
   0  -3  -8 166.814 4.64795   1 
   0   3   8 170.476 5.30320   4 
   0   3   8 167.927 4.96679   5 
   0   3   8 169.216 4.90292   6 
  -1  -3  -8 404.190 10.6300   1 
  -1  -3  -8 395.636 10.6895   3 
  -1  -3  -8 409.336 10.9554   2 
  -1  -3  -8 395.601 10.8470   6 
   1   3   8 407.482 10.8299   6 
   1   3   8 411.806 10.8610   5 
   1   3   8 402.627 11.2273   4 
  -2  -3  -8 52.7215 2.13025   2 
  -2  -3  -8 52.7103 1.92808   1 
  -2  -3  -8 50.9567 1.78905   3 
  -2  -3  -8 52.2317 2.01991   6 
   2   3   8 52.5376 1.98947   6 
   2   3   8 52.3655 2.04932   5 
   2   3   8 49.2117 2.41394   4 
  -3  -3  -8 703.973 18.4326   2 
  -3  -3  -8 693.822 18.2703   1 
  -3  -3  -8 703.062 18.3599   6 
   3   3   8 710.642 18.3170   6 
   3   3   8 692.295 18.8850   4 
   3   3   8 701.385 18.3165   6 
   3   3   8 717.595 18.3428   5 
  -4  -3  -8 5.93239 0.75122   2 
  -4  -3  -8 7.13722 0.76961   1 
   4   3   8 6.54457 0.74121   5 
   4   3   8 6.41798 0.70023   6 
   4   3   8 5.85286 1.00719   4 
  -5  -3  -8 273.925 7.80903   2 
  -5  -3  -8 272.273 7.84931   1 
   5   3   8 288.812 7.84366   6 
   5   3   8 281.999 7.80496   5 
   5   3   8 273.360 8.49557   4 
  -6  -3  -8 32.0790 1.62135   2 
  -6  -3  -8 32.0999 1.68856   1 
   6   3   8 33.8712 1.66614   6 
   6   3   8 30.7873 2.17745   4 
   6   3   8 33.7569 1.70783   5 
  -7  -3  -8 199.292 5.74294   2 
  -7  -3  -8 188.596 5.92748   1 
   7   3   8 199.095 5.90392   6 
   7   3   8 200.353 5.92101   5 
   7   3   8 182.564 6.59759   4 
  -8  -3  -8 21.7825 1.60870   1 
   8   3   8 24.4702 2.19308   4 
   8   3   8 23.1416 1.57956   5 
   8   3   8 24.3839 1.56339   6 
  -9  -3  -8 70.7449 2.98200   1 
   9   3   8 71.4001 2.95614   6 
   9   3   8 73.8273 2.99184   5 
   9   3   8 63.9943 3.58820   4 
 -10  -3  -8 13.1076 1.24935   5 
 -10  -3  -8 9.23286 1.19487   1 
  10   3   8 13.3763 1.30102   5 
  10   3   8 12.1625 1.26368   6 
  10   3   8 10.2304 1.71911   4 
 -11  -3  -8 4.51015 0.98753   1 
  11   3   8 5.27681 1.55747   4 
  11   3   8 6.81296 1.09391   6 
  12   3   8 0.98081 0.76761   6 
  10  -4  -8 16.5722 1.56466   6 
   9  -4  -8 8.44433 1.55702   3 
   9  -4  -8 8.07563 1.21640   6 
  -9   4   8 6.41010 1.42306   4 
  -9   4   8 7.19393 1.25104   5 
   8  -4  -8 89.4764 4.02089   3 
   8  -4  -8 85.2665 3.45524   6 
  -8   4   8 80.8247 3.64253   5 
  -8   4   8 88.6912 4.04883   4 
   7  -4  -8 7.83980 1.03987   6 
   7  -4  -8 10.1834 1.42114   3 
  -7   4   8 10.2087 1.26610   5 
  -7   4   8 8.01770 1.34886   4 
   6  -4  -8 74.9701 3.02308   6 
   6  -4  -8 84.4511 3.53915   3 
  -6   4   8 80.5730 3.31063   5 
  -6   4   8 77.7646 3.52961   4 
   5  -4  -8 9.84512 0.90659   2 
   5  -4  -8 11.1754 1.02452   6 
   5  -4  -8 10.9650 1.28132   3 
  -5   4   8 9.07192 1.07871   5 
  -5   4   8 10.4083 1.27524   4 
   4  -4  -8 134.226 4.62902   3 
   4  -4  -8 131.741 4.29406   6 
   4  -4  -8 132.170 4.20133   2 
  -4   4   8 135.962 4.51684   5 
  -4   4   8 137.816 4.79153   4 
   3  -4  -8 9.17395 0.86694   2 
   3  -4  -8 9.23293 0.85643   6 
   3  -4  -8 10.4400 1.06407   3 
  -3   4   8 8.76333 0.94627   5 
  -3   4   8 11.2294 1.14708   4 
   2  -4  -8 59.6214 2.33362   2 
   2  -4  -8 57.0163 2.46411   3 
   2  -4  -8 62.2855 2.31472   6 
  -2   4   8 64.5443 2.68449   4 
  -2   4   8 64.6441 2.46761   5 
   1  -4  -8 47.8078 1.94564   6 
   1  -4  -8 47.4659 2.08974   3 
   1  -4  -8 47.8495 2.05493   2 
  -1   4   8 50.4302 2.30876   4 
  -1   4   8 49.7465 2.02887   5 
   0  -4  -8 351.481 8.99460   1 
   0  -4  -8 345.798 9.43287   6 
   0  -4  -8 335.682 9.44092   3 
   0  -4  -8 337.630 9.48009   2 
   0   4   8 349.973 9.84002   4 
   0   4   8 351.812 9.38715   6 
   0   4   8 346.743 9.41222   5 
  -1  -4  -8 47.6507 1.94783   6 
  -1  -4  -8 47.9772 1.91419   3 
  -1  -4  -8 50.4064 2.05982   2 
  -1  -4  -8 48.2969 1.68131   1 
   1   4   8 51.5216 1.92858   6 
   1   4   8 47.9429 2.34659   4 
   1   4   8 48.4605 1.92021   5 
  -2  -4  -8 858.782 21.7537   1 
  -2  -4  -8 831.427 21.8386   3 
  -2  -4  -8 861.597 22.0818   2 
  -2  -4  -8 821.923 21.9791   6 
   2   4   8 858.372 21.9212   5 
   2   4   8 876.481 21.9781   6 
   2   4   8 837.509 22.4927   4 
  -3  -4  -8 112.295 3.65837   6 
  -3  -4  -8 119.548 3.76419   2 
  -3  -4  -8 110.386 3.42747   3 
  -3  -4  -8 110.368 3.50011   1 
   3   4   8 115.321 3.46195   3 
   3   4   8 110.121 4.13965   4 
   3   4   8 118.796 3.65017   6 
   3   4   8 122.918 3.68040   6 
   3   4   8 112.908 3.58135   5 
  -4  -4  -8 160.523 4.74810   1 
  -4  -4  -8 161.699 4.84878   6 
  -4  -4  -8 155.507 4.84882   2 
   4   4   8 162.066 4.79179   6 
   4   4   8 157.480 4.69525   5 
   4   4   8 158.260 5.40159   4 
  -5  -4  -8 11.1149 0.91386   1 
  -5  -4  -8 9.91844 0.89661   2 
   5   4   8 9.91639 0.83990   5 
   5   4   8 10.8125 1.31429   4 
   5   4   8 10.9434 0.91647   6 
  -6  -4  -8 8.32395 0.87617   1 
  -6  -4  -8 7.09252 0.86380   2 
   6   4   8 8.41487 0.84783   5 
   6   4   8 6.08797 0.80901   6 
   6   4   8 13.1451 1.42649   4 
  -7  -4  -8 0.67886 0.57688   1 
  -7  -4  -8 -0.2038 0.44932   2 
   7   4   8 -1.0963 0.79655   4 
   7   4   8 -0.4200 0.52108   5 
   7   4   8 0.12147 0.49314   6 
  -8  -4  -8 137.991 4.60113   1 
   8   4   8 140.377 4.60107   6 
   8   4   8 143.128 4.53190   5 
   8   4   8 130.779 5.31664   4 
  -9  -4  -8 5.54834 0.94373   1 
   9   4   8 3.70844 0.87016   6 
   9   4   8 3.83369 1.30908   4 
 -10  -4  -8 28.1633 1.86568   1 
  10   4   8 29.7369 1.83112   6 
  10   4   8 23.8452 2.33597   4 
 -11  -4  -8 17.1523 1.51525   1 
  11   4   8 16.8265 2.06512   4 
   9  -5  -8 21.2636 1.69500   6 
   9  -5  -8 25.0450 2.32021   3 
  -9   5   8 19.0911 1.80381   5 
  -9   5   8 22.3534 2.15381   4 
   8  -5  -8 -0.5254 0.59115   6 
   8  -5  -8 -0.9405 0.95536   3 
  -8   5   8 -1.8979 0.77579   4 
  -8   5   8 -0.6376 0.73748   5 
   7  -5  -8 88.7546 3.95022   3 
   7  -5  -8 87.4111 3.42421   6 
  -7   5   8 91.3493 4.16940   4 
  -7   5   8 90.6373 3.76781   5 
   6  -5  -8 35.8541 2.36493   3 
   6  -5  -8 38.9712 1.96413   6 
  -6   5   8 35.2853 2.19109   5 
  -6   5   8 35.9328 2.43305   4 
   5  -5  -8 41.2540 2.40869   3 
   5  -5  -8 44.0151 2.03503   6 
  -5   5   8 46.1629 2.60518   4 
  -5   5   8 42.2033 2.27761   5 
   4  -5  -8 126.388 4.56493   3 
   4  -5  -8 128.139 4.17354   6 
   4  -5  -8 126.698 4.08587   2 
  -4   5   8 133.629 4.80297   4 
  -4   5   8 132.093 4.46094   5 
   3  -5  -8 470.479 13.1533   3 
   3  -5  -8 479.832 12.7706   2 
   3  -5  -8 468.497 12.7850   6 
  -3   5   8 472.519 12.9880   5 
  -3   5   8 486.811 13.4160   4 
   2  -5  -8 -0.0197 0.48197   2 
   2  -5  -8 -0.1562 0.37576   6 
   2  -5  -8 0.94417 0.58703   3 
  -2   5   8 0.63989 0.54464   5 
  -2   5   8 0.00916 0.63190   4 
   1  -5  -8 324.616 9.08654   2 
   1  -5  -8 321.681 9.24962   3 
   1  -5  -8 331.428 9.05830   6 
  -1   5   8 334.761 9.11072   5 
  -1   5   8 331.665 9.57049   4 
   0  -5  -8 1.52083 0.55407   2 
   0  -5  -8 2.30527 0.49414   6 
   0  -5  -8 2.13104 0.56039   3 
   0   5   8 1.92342 0.53091   5 
   0   5   8 1.09228 0.72074   4 
  -1  -5  -8 355.361 9.47393   1 
  -1  -5  -8 368.432 10.0420   2 
  -1  -5  -8 373.158 9.97888   6 
  -1  -5  -8 365.625 10.0150   3 
   1   5   8 363.415 10.4563   4 
   1   5   8 369.646 9.86596   5 
  -2  -5  -8 0.44201 0.34839   1 
  -2  -5  -8 1.00661 0.42651   6 
  -2  -5  -8 1.11151 0.45107   3 
  -2  -5  -8 0.89850 0.52761   2 
   2   5   8 0.77638 0.45234   5 
   2   5   8 -0.0475 0.70653   4 
   2   5   8 1.03565 0.39306   6 
  -3  -5  -8 355.568 9.68153   2 
  -3  -5  -8 346.434 9.30124   1 
  -3  -5  -8 349.166 9.46989   3 
  -3  -5  -8 346.577 9.57986   6 
   3   5   8 372.889 9.58327   6 
   3   5   8 332.726 10.1046   4 
   3   5   8 334.882 9.37109   5 
   3   5   8 362.765 9.57348   6 
  -4  -5  -8 194.726 5.81563   6 
  -4  -5  -8 193.475 5.85963   2 
  -4  -5  -8 203.015 5.65097   1 
   4   5   8 188.642 6.39338   4 
   4   5   8 204.911 5.80755   6 
   4   5   8 194.828 5.59657   5 
   4   5   8 205.743 5.68403   3 
  -5  -5  -8 119.074 3.96799   2 
  -5  -5  -8 121.344 3.83840   1 
   5   5   8 125.931 3.77567   5 
   5   5   8 125.751 3.95199   6 
   5   5   8 121.874 4.61643   4 
  -6  -5  -8 72.5189 2.73841   1 
  -6  -5  -8 79.9255 2.86793   2 
   6   5   8 72.6905 3.41894   4 
   6   5   8 79.8368 2.66589   5 
   6   5   8 76.7506 2.81158   6 
  -7  -5  -8 55.2830 2.36004   1 
  -7  -5  -8 61.8746 2.41814   2 
   7   5   8 60.7681 2.27588   5 
   7   5   8 50.5093 2.92026   4 
   7   5   8 60.9658 2.44481   6 
  -8  -5  -8 -0.3734 0.51146   1 
   8   5   8 -0.7610 0.86873   4 
  -9  -5  -8 75.5267 3.06785   1 
   9   5   8 74.9737 3.79677   4 
 -10  -5  -8 31.5604 1.93998   1 
  10   5   8 32.2752 2.62007   4 
 -11  -5  -8 6.67805 1.12464   1 
  11   5   8 11.8374 1.85257   4 
   8  -6  -8 57.1784 2.69865   6 
   8  -6  -8 60.5824 3.33272   3 
  -8   6   8 59.5069 3.50428   4 
   7  -6  -8 1.92222 1.07836   3 
   7  -6  -8 1.77773 0.68173   6 
  -7   6   8 0.68259 1.07340   4 
  -7   6   8 1.94081 0.96024   5 
   6  -6  -8 91.8433 3.90403   3 
   6  -6  -8 82.9271 3.24325   6 
  -6   6   8 86.0797 3.65139   5 
  -6   6   8 87.3111 4.09628   4 
   5  -6  -8 64.3568 3.09460   3 
   5  -6  -8 65.3254 2.61897   6 
  -5   6   8 64.3847 3.28670   4 
  -5   6   8 66.3672 2.97544   5 
   4  -6  -8 78.1641 2.94302   2 
   4  -6  -8 84.0976 3.00499   6 
   4  -6  -8 84.0391 3.52906   3 
  -4   6   8 82.1241 3.64364   4 
  -4   6   8 81.9020 3.29656   5 
   3  -6  -8 35.6458 2.12312   3 
   3  -6  -8 35.0175 1.71340   6 
   3  -6  -8 36.6466 1.77456   2 
  -3   6   8 36.8388 2.26683   4 
  -3   6   8 39.1832 2.02164   5 
   2  -6  -8 271.083 7.91859   3 
   2  -6  -8 257.846 7.48302   2 
   2  -6  -8 253.786 7.42734   6 
  -2   6   8 268.356 8.12535   4 
  -2   6   8 264.868 7.61484   5 
   1  -6  -8 0.16667 0.42258   6 
   1  -6  -8 0.28735 0.50096   2 
   1  -6  -8 -0.3928 0.50284   3 
  -1   6   8 0.38933 0.65604   4 
  -1   6   8 0.49851 0.49558   5 
   0  -6  -8 432.642 11.8693   3 
   0  -6  -8 421.398 11.6660   2 
   0  -6  -8 426.719 11.5853   6 
   0   6   8 442.383 11.5720   5 
   0   6   8 429.168 12.1691   4 
  -1  -6  -8 4.72217 0.71761   2 
  -1  -6  -8 4.84884 0.65169   6 
  -1  -6  -8 5.13606 0.73257   3 
   1   6   8 4.82860 0.60396   5 
   1   6   8 5.28001 1.00132   4 
  -2  -6  -8 310.057 8.73757   6 
  -2  -6  -8 314.011 8.83893   3 
  -2  -6  -8 324.762 8.88200   2 
   2   6   8 322.026 8.56802   5 
   2   6   8 310.672 9.34162   4 
  -3  -6  -8 12.0693 0.95269   6 
  -3  -6  -8 10.6463 0.98219   2 
  -3  -6  -8 12.8918 1.02180   3 
   3   6   8 12.1747 0.91116   5 
   3   6   8 10.6815 1.27312   4 
  -4  -6  -8 166.979 5.21584   2 
  -4  -6  -8 165.615 5.13126   6 
  -4  -6  -8 169.383 4.88524   1 
   4   6   8 174.062 5.13103   3 
   4   6   8 166.121 5.74166   4 
   4   6   8 177.619 4.88844   5 
  -5  -6  -8 30.0457 1.60082   6 
  -5  -6  -8 30.8334 1.49897   1 
  -5  -6  -8 31.9571 1.70629   2 
   5   6   8 33.4016 1.63009   3 
   5   6   8 30.8690 2.16685   4 
  -6  -6  -8 14.8113 1.12332   1 
  -6  -6  -8 15.8252 1.25907   2 
   6   6   8 11.7987 1.45860   4 
  -7  -6  -8 5.56551 0.80847   2 
  -7  -6  -8 5.93482 0.80216   1 
   7   6   8 4.20150 1.12944   4 
  -8  -6  -8 142.201 4.64895   1 
  -8  -6  -8 146.714 4.64167   2 
   8   6   8 135.733 5.40680   4 
  -9  -6  -8 8.43981 1.04574   1 
   9   6   8 7.26533 1.46180   4 
 -10  -6  -8 61.2204 2.71508   1 
  10   6   8 49.9242 3.26915   4 
  11   6   8 16.6267 2.07944   4 
 -12  -6  -8 27.9478 2.05232   1 
  -8   7   8 0.56207 1.15702   4 
   7  -7  -8 60.6811 3.27531   3 
   7  -7  -8 55.9197 2.54354   6 
  -7   7   8 53.7235 3.38864   4 
  -7   7   8 51.4376 2.92865   5 
   6  -7  -8 39.9621 2.04244   6 
   6  -7  -8 39.7611 2.62105   3 
  -6   7   8 46.2916 2.56063   5 
  -6   7   8 42.5951 2.83300   4 
   5  -7  -8 116.638 4.00015   6 
   5  -7  -8 121.338 4.72313   3 
  -5   7   8 118.963 4.94472   4 
   4  -7  -8 49.4798 2.18037   6 
   4  -7  -8 57.7039 2.82940   3 
  -4   7   8 51.5026 2.55622   5 
  -4   7   8 51.5942 2.90453   4 
   3  -7  -8 204.512 6.02756   6 
   3  -7  -8 205.973 6.62151   3 
   3  -7  -8 200.311 6.08651   2 
  -3   7   8 203.456 6.33381   5 
  -3   7   8 202.571 6.83868   4 
   2  -7  -8 3.01236 0.86719   3 
   2  -7  -8 3.83420 0.75624   2 
   2  -7  -8 3.24584 0.63607   6 
  -2   7   8 3.88894 0.77539   5 
  -2   7   8 3.05043 0.94860   4 
   1  -7  -8 155.928 4.96067   2 
   1  -7  -8 161.764 5.30897   3 
   1  -7  -8 163.845 4.87051   6 
  -1   7   8 153.658 5.46149   4 
  -1   7   8 161.741 4.94548   5 
   0  -7  -8 52.3622 2.39641   3 
   0  -7  -8 51.6537 2.22971   2 
   0  -7  -8 52.0833 2.08642   6 
   0   7   8 50.4972 2.60118   4 
   0   7   8 50.7372 2.06205   5 
  -1  -7  -8 1.98086 0.62863   2 
  -1  -7  -8 2.06476 0.65320   3 
  -1  -7  -8 1.82068 0.51240   6 
   1   7   8 2.60778 0.87457   4 
   1   7   8 2.00962 0.51171   5 
  -2  -7  -8 4.33449 0.74040   3 
  -2  -7  -8 3.92323 0.73885   2 
  -2  -7  -8 4.22008 0.64402   6 
   2   7   8 4.82278 0.99443   4 
   2   7   8 4.65806 0.55765   5 
  -3  -7  -8 293.720 8.23513   3 
  -3  -7  -8 286.636 8.22910   2 
  -3  -7  -8 292.293 8.09470   6 
   3   7   8 276.667 8.69934   4 
  -4  -7  -8 19.2094 1.32680   3 
  -4  -7  -8 17.0849 1.19691   6 
  -4  -7  -8 19.6443 1.10968   1 
  -4  -7  -8 19.1862 1.39897   2 
   4   7   8 19.1440 1.34442   3 
   4   7   8 17.7183 1.77184   4 
  -5  -7  -8 290.760 7.99110   1 
  -5  -7  -8 289.731 8.33142   2 
  -5  -7  -8 298.376 8.28094   6 
   5   7   8 296.619 8.29802   3 
   5   7   8 274.003 8.87718   4 
  -6  -7  -8 30.2576 1.75910   2 
  -6  -7  -8 32.0416 1.58525   1 
  -6  -7  -8 32.4643 1.67131   6 
   6   7   8 30.7112 1.68885   3 
   6   7   8 28.0495 2.19821   4 
  -7  -7  -8 73.7960 2.90596   2 
  -7  -7  -8 72.1237 2.75085   1 
   7   7   8 71.1941 3.47751   4 
  -8  -7  -8 18.9921 1.48746   2 
  -8  -7  -8 20.9666 1.44806   1 
   8   7   8 15.8345 1.82965   4 
  -9  -7  -8 98.0940 3.64327   1 
   9   7   8 93.8068 4.34915   4 
 -10  -7  -8 18.2287 1.57021   1 
  10   7   8 19.1828 2.09351   4 
 -11  -7  -8 55.1947 2.78322   1 
  11   7   8 55.1511 3.51766   4 
 -12  -7  -8 12.7912 1.46271   1 
  12   7   8 11.0852 1.85855   4 
   7  -8  -8 -0.3810 0.56004   6 
  -7   8   8 0.97961 1.15665   4 
  -7   8   8 -0.8133 0.79797   5 
   6  -8  -8 62.6015 2.63012   6 
   6  -8  -8 59.0342 3.29573   3 
  -6   8   8 62.2341 3.57810   4 
  -6   8   8 61.5704 3.14087   5 
   5  -8  -8 15.3955 1.23573   6 
   5  -8  -8 12.7571 1.59422   3 
  -5   8   8 15.4503 1.77474   4 
  -5   8   8 14.7007 1.48012   5 
   4  -8  -8 183.839 6.29164   3 
   4  -8  -8 173.760 5.42981   6 
  -4   8   8 185.278 5.96771   5 
  -4   8   8 168.445 6.40376   4 
   3  -8  -8 3.27039 0.97924   3 
   3  -8  -8 3.11393 0.78382   2 
   3  -8  -8 2.66106 0.66070   6 
  -3   8   8 3.11076 1.07056   4 
  -3   8   8 2.82759 0.84984   5 
   2  -8  -8 150.928 4.85668   2 
   2  -8  -8 151.296 5.31221   3 
   2  -8  -8 152.443 4.69241   6 
  -2   8   8 146.510 5.47504   4 
  -2   8   8 151.299 4.93278   5 
   1  -8  -8 26.6369 1.83185   3 
   1  -8  -8 24.7709 1.59376   2 
   1  -8  -8 25.2400 1.40508   6 
  -1   8   8 28.4786 1.62321   5 
  -1   8   8 26.7540 2.02799   4 
   0  -8  -8 68.1389 2.77046   2 
   0  -8  -8 75.5485 3.06777   3 
   0  -8  -8 68.4104 2.58542   6 
   0   8   8 72.6552 2.64245   5 
   0   8   8 69.1090 3.24318   4 
  -1  -8  -8 42.2811 1.84036   6 
  -1  -8  -8 43.7039 2.05430   2 
  -1  -8  -8 42.4520 2.14089   3 
   1   8   8 39.0631 2.37545   4 
  -2  -8  -8 5.63180 0.88107   3 
  -2  -8  -8 5.94004 0.71802   6 
  -2  -8  -8 4.32455 0.80485   2 
   2   8   8 4.66950 1.06131   4 
  -3  -8  -8 5.87385 0.73000   6 
  -3  -8  -8 4.73864 0.83596   2 
  -3  -8  -8 4.95485 0.82192   3 
   3   8   8 4.26698 1.04775   4 
  -4  -8  -8 194.295 6.02009   6 
  -4  -8  -8 204.827 6.25216   3 
  -4  -8  -8 207.377 6.25691   2 
   4   8   8 210.128 6.29065   3 
   4   8   8 201.239 6.75575   4 
  -5  -8  -8 97.2965 3.52747   2 
  -5  -8  -8 90.8028 3.29926   6 
  -5  -8  -8 93.3408 3.12534   1 
   5   8   8 97.1278 3.49629   3 
   5   8   8 93.3079 4.00321   4 
  -6  -8  -8 53.8300 2.32649   6 
  -6  -8  -8 54.7050 2.46789   2 
  -6  -8  -8 52.7217 2.17708   1 
   6   8   8 55.3874 2.47003   3 
   6   8   8 49.9141 2.90119   4 
  -7  -8  -8 21.0664 1.44155   1 
  -7  -8  -8 20.4470 1.56664   2 
   7   8   8 20.5163 2.00449   4 
   7   8   8 21.9429 1.60745   3 
  -8  -8  -8 193.096 6.01513   1 
  -8  -8  -8 196.996 6.14464   2 
   8   8   8 194.703 6.91420   4 
  -9  -8  -8 1.08906 0.74479   1 
  -9  -8  -8 0.25684 0.69118   2 
   9   8   8 -1.1951 1.02118   4 
 -10  -8  -8 94.9333 3.72216   1 
  10   8   8 92.6999 4.45205   4 
 -11  -8  -8 2.38414 0.94296   1 
  11   8   8 3.46177 1.47433   4 
 -12  -8  -8 23.6594 1.91118   1 
  12   8   8 19.6826 2.28318   4 
   6  -9  -8 3.45950 1.27115   3 
   6  -9  -8 4.31519 0.78202   6 
  -6   9   8 3.63065 1.05646   5 
  -6   9   8 3.39397 1.30983   4 
   5  -9  -8 120.468 4.91503   3 
   5  -9  -8 114.436 3.94851   6 
  -5   9   8 112.854 5.08838   4 
  -5   9   8 114.585 4.56132   5 
   4  -9  -8 -0.1011 0.83838   3 
   4  -9  -8 0.29858 0.48567   6 
  -4   9   8 0.16847 0.93197   4 
  -4   9   8 -0.4831 0.72871   5 
   3  -9  -8 88.5788 3.08568   6 
   3  -9  -8 87.3792 3.85841   3 
  -3   9   8 87.9593 3.51035   5 
  -3   9   8 76.7519 3.88103   4 
   2  -9  -8 26.6549 1.98721   3 
   2  -9  -8 26.0488 1.48268   6 
   2  -9  -8 28.4055 1.78150   2 
  -2   9   8 30.1904 1.86176   5 
  -2   9   8 30.1474 2.30170   4 
   1  -9  -8 215.775 6.39933   6 
   1  -9  -8 222.474 6.73791   2 
   1  -9  -8 228.344 7.14887   3 
  -1   9   8 213.448 7.34833   4 
   0  -9  -8 0.53511 0.47977   6 
   0  -9  -8 0.36865 0.66118   2 
   0  -9  -8 -0.3941 0.62227   3 
   0   9   8 0.28230 0.84483   4 
  -1  -9  -8 184.789 6.09627   3 
  -1  -9  -8 196.890 5.64393   6 
  -1  -9  -8 190.486 5.91258   2 
   1   9   8 177.889 6.32935   4 
  -2  -9  -8 2.80834 0.59570   6 
  -2  -9  -8 2.35127 0.78238   2 
  -2  -9  -8 2.41753 0.76624   3 
   2   9   8 2.08862 0.97205   4 
  -3  -9  -8 200.807 5.88873   6 
  -3  -9  -8 200.672 6.18770   2 
  -3  -9  -8 202.611 6.27034   3 
   3   9   8 183.918 6.56361   4 
  -4  -9  -8 20.7685 1.54821   3 
  -4  -9  -8 20.7139 1.32813   6 
  -4  -9  -8 19.9372 1.53311   2 
   4   9   8 18.0631 1.50071   3 
   4   9   8 18.2877 1.88112   4 
  -5  -9  -8 67.6064 2.63768   6 
  -5  -9  -8 64.3937 2.83211   2 
   5   9   8 65.4152 3.30384   4 
   5   9   8 69.4297 2.93819   3 
  -6  -9  -8 67.0200 2.88224   2 
  -6  -9  -8 63.6502 2.62685   6 
  -6  -9  -8 66.0327 2.53195   1 
   6   9   8 61.4360 3.27866   4 
   6   9   8 66.7129 2.89565   3 
  -7  -9  -8 229.768 6.75146   1 
  -7  -9  -8 224.894 6.85206   6 
  -7  -9  -8 226.582 7.03247   2 
   7   9   8 226.148 7.68287   4 
   7   9   8 229.336 7.07457   3 
  -8  -9  -8 1.67347 0.75767   1 
  -8  -9  -8 0.95308 0.75631   2 
   8   9   8 -0.2653 1.06587   4 
   8   9   8 0.05560 0.76722   3 
  -9  -9  -8 93.9507 3.61455   1 
  -9  -9  -8 95.5808 3.68175   2 
   9   9   8 90.8353 4.33457   4 
 -10  -9  -8 2.74904 0.91223   1 
  10   9   8 2.71510 1.39936   4 
 -11  -9  -8 56.6510 2.89948   1 
  11   9   8 59.3353 3.60188   4 
 -12  -9  -8 3.43228 1.06728   1 
  12   9   8 3.03681 1.51481   4 
  -5  10   8 45.8005 2.74831   5 
   4 -10  -8 59.8171 2.46429   6 
   4 -10  -8 62.5122 3.35351   3 
  -4  10   8 56.2892 3.41319   4 
   3 -10  -8 0.16991 0.48758   6 
   3 -10  -8 -0.2198 0.73046   3 
  -3  10   8 -0.0123 0.84002   4 
   2 -10  -8 89.0975 3.20848   6 
   2 -10  -8 94.0041 4.02654   3 
   2 -10  -8 95.7614 3.60219   2 
  -2  10   8 89.5497 4.20010   4 
   1 -10  -8 11.0229 0.97994   6 
   1 -10  -8 11.2577 1.21827   2 
   1 -10  -8 12.5518 1.42784   3 
  -1  10   8 12.4373 1.63365   4 
   0 -10  -8 156.214 5.56555   3 
   0 -10  -8 165.433 4.93566   6 
   0 -10  -8 160.271 5.30401   2 
   0  10   8 153.259 5.82965   4 
  -1 -10  -8 12.0410 1.24522   2 
  -1 -10  -8 14.5102 1.11058   6 
  -1 -10  -8 13.6219 1.40295   3 
   1  10   8 10.4026 1.43727   4 
  -2 -10  -8 141.665 4.85258   2 
  -2 -10  -8 145.430 4.49822   6 
  -2 -10  -8 143.640 5.02728   3 
   2  10   8 135.016 5.30145   4 
  -3 -10  -8 1.39087 0.75267   2 
  -3 -10  -8 3.33162 0.65295   6 
  -3 -10  -8 2.53139 0.80978   3 
   3  10   8 1.90530 1.10599   4 
  -4 -10  -8 181.756 5.80179   2 
  -4 -10  -8 170.541 5.41208   6 
  -4 -10  -8 181.863 5.88551   3 
   4  10   8 165.039 6.18522   4 
   4  10   8 183.406 5.91659   3 
  -5 -10  -8 76.8979 3.19944   2 
  -5 -10  -8 73.1918 2.85063   6 
   5  10   8 75.2175 3.25798   3 
   5  10   8 75.8241 3.62665   4 
  -6 -10  -8 11.3493 1.26186   2 
  -6 -10  -8 12.4817 1.12878   6 
   6  10   8 13.0048 1.37922   3 
   6  10   8 12.0095 1.62905   4 
  -7 -10  -8 12.9669 1.17084   6 
  -7 -10  -8 9.72280 1.26220   2 
  -7 -10  -8 11.1797 1.10501   1 
   7  10   8 10.4975 1.30943   3 
   7  10   8 9.40375 1.59706   4 
  -8 -10  -8 135.284 4.67936   6 
  -8 -10  -8 135.817 4.58513   1 
  -8 -10  -8 140.323 4.87591   2 
   8  10   8 134.532 5.43944   4 
   8  10   8 136.030 4.92927   3 
  -9 -10  -8 1.63484 0.86920   2 
  -9 -10  -8 2.44445 0.91695   1 
   9  10   8 2.30780 1.21988   4 
 -10 -10  -8 17.6547 1.56337   1 
 -10 -10  -8 23.0384 1.82125   2 
  10  10   8 18.4186 2.11074   4 
 -11 -10  -8 14.1554 1.48121   1 
  11  10   8 11.3270 1.86659   4 
   3 -11  -8 69.7499 3.58925   3 
   3 -11  -8 68.7094 2.67596   6 
  -3  11   8 70.5891 3.81835   4 
   2 -11  -8 8.50185 1.40151   3 
   2 -11  -8 10.4838 0.95709   6 
  -2  11   8 9.09906 1.55905   4 
   1 -11  -8 110.279 3.59931   6 
   1 -11  -8 104.673 4.02759   2 
   1 -11  -8 103.017 4.36884   3 
  -1  11   8 100.302 4.60360   4 
   0 -11  -8 36.3090 2.14890   2 
   0 -11  -8 35.0488 2.31405   3 
   0 -11  -8 34.8905 1.74103   6 
   0  11   8 34.3113 2.55414   4 
  -1 -11  -8 66.1096 3.18659   3 
  -1 -11  -8 65.5643 2.54012   6 
  -1 -11  -8 65.9557 2.97726   2 
   1  11   8 62.8498 3.38997   4 
  -2 -11  -8 11.7141 1.02144   6 
  -2 -11  -8 10.9232 1.28850   2 
  -2 -11  -8 10.8028 1.32912   3 
   2  11   8 10.3267 1.56359   4 
  -3 -11  -8 129.918 4.65539   2 
  -3 -11  -8 127.227 4.21897   6 
  -3 -11  -8 138.998 4.91201   3 
   3  11   8 122.487 5.06410   4 
  -4 -11  -8 -1.0205 0.68413   2 
  -4 -11  -8 0.22351 0.64495   3 
  -4 -11  -8 -0.1796 0.49284   6 
   4  11   8 -1.1068 0.92074   4 
   4  11   8 0.15603 0.77394   3 
  -5 -11  -8 22.2707 1.45391   6 
  -5 -11  -8 24.5953 1.80881   2 
   5  11   8 22.2858 2.18851   4 
   5  11   8 21.9084 1.84964   3 
  -6 -11  -8 120.910 4.24946   6 
  -6 -11  -8 131.984 4.69330   2 
   6  11   8 129.493 4.78191   3 
   6  11   8 121.388 5.09218   4 
  -7 -11  -8 34.2415 1.91008   6 
  -7 -11  -8 39.5615 2.30013   2 
   7  11   8 33.8353 2.26866   3 
   7  11   8 33.7565 2.57634   4 
  -8 -11  -8 1.24630 0.92968   2 
  -8 -11  -8 1.80767 0.77763   6 
   8  11   8 1.87246 0.98246   3 
   8  11   8 2.51885 1.21785   4 
  -9 -11  -8 50.6782 2.64583   2 
  -9 -11  -8 45.8620 2.37416   1 
   9  11   8 42.4540 2.99720   4 
   9  11   8 50.4149 2.72492   3 
 -10 -11  -8 -0.6729 0.71807   1 
 -10 -11  -8 -1.5261 0.86781   2 
  10  11   8 2.14272 1.26928   4 
 -11 -11  -8 28.9556 2.06896   1 
  11  11   8 28.7708 2.64685   4 
   2 -12  -8 109.164 3.60076   6 
   2 -12  -8 108.588 4.63315   3 
  -2  12   8 92.6528 4.67508   4 
   1 -12  -8 -1.0510 0.66722   2 
   1 -12  -8 0.33979 0.76270   3 
   1 -12  -8 -0.6744 0.41217   6 
  -1  12   8 1.55816 1.11245   4 
   0 -12  -8 164.596 5.07509   6 
   0 -12  -8 172.490 6.12211   3 
   0 -12  -8 157.727 5.57765   2 
   0  12   8 158.544 6.26356   4 
  -1 -12  -8 39.0635 2.48559   3 
  -1 -12  -8 41.4539 1.89688   6 
  -1 -12  -8 40.0222 2.33328   2 
   1  12   8 35.8564 2.69639   4 
  -2 -12  -8 63.1715 2.53703   6 
  -2 -12  -8 71.2876 3.32448   3 
  -2 -12  -8 64.7322 3.05796   2 
   2  12   8 60.5315 3.43288   4 
  -3 -12  -8 12.7773 1.46664   3 
  -3 -12  -8 10.4068 1.31389   2 
  -3 -12  -8 11.4692 1.03482   6 
   3  12   8 11.0956 1.67137   4 
  -4 -12  -8 104.961 4.13440   2 
  -4 -12  -8 97.9100 3.57271   6 
  -4 -12  -8 110.710 4.32904   3 
   4  12   8 105.523 4.29720   3 
   4  12   8 96.7373 4.51133   4 
  -5 -12  -8 0.02628 0.46995   6 
  -5 -12  -8 -0.5057 0.75936   2 
   5  12   8 -0.9886 0.75593   3 
   5  12   8 -1.1840 0.97228   4 
  -6 -12  -8 31.5679 1.82585   6 
  -6 -12  -8 35.6490 2.25183   2 
   6  12   8 34.9796 2.61375   4 
   6  12   8 38.3327 2.42265   3 
  -7 -12  -8 0.08039 0.85648   2 
  -7 -12  -8 0.68199 0.56057   6 
   7  12   8 2.07554 1.19846   4 
   7  12   8 1.64209 0.92490   3 
  -8 -12  -8 72.4953 3.10658   6 
  -8 -12  -8 81.6020 3.53887   2 
   8  12   8 74.1493 3.90695   4 
   8  12   8 73.9092 3.54923   3 
  -9 -12  -8 1.46811 0.97916   2 
  -9 -12  -8 1.56239 0.75818   6 
   9  12   8 1.94361 1.28917   4 
   9  12   8 -0.3438 0.94640   3 
 -10 -12  -8 49.2896 2.78868   2 
  10  12   8 45.9392 3.16111   4 
 -11 -12  -8 3.14041 0.99644   1 
  11  12   8 0.37446 1.29884   4 
   0 -13  -8 8.21059 1.24143   2 
   0 -13  -8 7.24330 0.84394   6 
   0 -13  -8 7.17808 1.32795   3 
   0  13   8 6.66840 1.49122   4 
  -1 -13  -8 40.1715 2.47352   2 
  -1 -13  -8 42.7096 1.93456   6 
  -1 -13  -8 42.2199 2.70261   3 
   1  13   8 37.9894 2.87047   4 
  -2 -13  -8 5.92499 0.80267   6 
  -2 -13  -8 8.64881 1.33252   3 
  -2 -13  -8 5.77714 1.18147   2 
   2  13   8 6.55805 1.53185   4 
  -3 -13  -8 52.9494 2.33610   6 
  -3 -13  -8 57.6144 3.08323   3 
  -3 -13  -8 55.9574 2.88341   2 
   3  13   8 51.7012 3.25876   4 
   3  13   8 61.3931 3.27476   3 
  -4 -13  -8 9.51438 1.33279   2 
  -4 -13  -8 11.0161 1.03611   6 
  -4 -13  -8 9.02869 1.36485   3 
   4  13   8 11.3744 1.50314   3 
   4  13   8 9.74262 1.70156   4 
  -5 -13  -8 57.3644 2.89335   2 
  -5 -13  -8 51.7179 2.34489   6 
   5  13   8 48.6441 3.16877   4 
   5  13   8 52.2128 2.98177   3 
  -6 -13  -8 1.54997 0.64875   6 
  -6 -13  -8 1.46835 0.95098   2 
   6  13   8 0.83018 1.21658   4 
   6  13   8 1.19316 0.96577   3 
  -7 -13  -8 66.9492 2.87396   6 
  -7 -13  -8 66.0395 3.28807   2 
   7  13   8 68.9475 3.74449   4 
   7  13   8 68.9411 3.44860   3 
  -8 -13  -8 0.66222 0.94476   2 
  -8 -13  -8 0.09088 0.69104   6 
   8  13   8 -1.2682 1.16548   4 
   8  13   8 1.30727 1.01956   3 
  -9 -13  -8 58.0503 3.02350   2 
  -9 -13  -8 49.5157 2.59847   6 
   9  13   8 48.6177 3.26501   4 
   9  13   8 48.4841 2.98058   3 
 -10 -13  -8 1.17105 1.02672   2 
  10  13   8 0.83217 1.06937   3 
  10  13   8 -0.9700 1.20110   4 
  -1 -14  -8 43.5124 2.60497   2 
  -2 -14  -8 15.7292 1.66265   2 
  -2 -14  -8 13.5403 1.65078   3 
   2  14   8 12.6779 1.91373   4 
  -3 -14  -8 29.7643 2.23008   2 
  -3 -14  -8 31.6659 1.70455   6 
  -3 -14  -8 32.1954 2.39081   3 
   3  14   8 33.8881 2.57713   3 
   3  14   8 27.4200 2.54895   4 
  -4 -14  -8 34.4448 1.82197   6 
  -4 -14  -8 33.0287 2.33221   2 
   4  14   8 32.8988 2.76540   4 
   4  14   8 34.8170 2.57238   3 
  -5 -14  -8 1.48319 0.64815   6 
  -5 -14  -8 1.56715 0.98561   2 
   5  14   8 2.32595 1.13310   3 
   5  14   8 2.63979 1.40591   4 
  -6 -14  -8 51.1395 2.85800   2 
  -6 -14  -8 45.4957 2.25861   6 
   6  14   8 49.1169 2.99465   3 
   6  14   8 46.4850 3.18579   4 
  -7 -14  -8 3.41071 1.19564   2 
  -7 -14  -8 2.96307 0.82308   6 
   7  14   8 2.81891 1.35735   4 
   7  14   8 2.72986 1.18477   3 
  -8 -14  -8 51.8536 2.49898   6 
   8  14   8 49.0615 3.29374   4 
   8  14   8 48.5416 2.99139   3 
  -9 -14  -8 7.80993 1.13258   6 
   9  14   8 5.52748 1.54176   4 
   9  14   8 7.20366 1.46303   3 
   8   9  -9 5.17157 1.21294   2 
  -8  -9   9 3.65171 1.04879   1 
  -8  -9   9 1.87614 0.81788   6 
   7   9  -9 28.2163 2.19728   2 
  -7  -9   9 24.0417 1.63743   6 
  -7  -9   9 23.0174 1.93892   1 
   6   9  -9 39.5709 2.59154   2 
  -6  -9   9 41.4629 2.06046   6 
  -6  -9   9 43.6584 2.52036   1 
   5   9  -9 0.24662 0.86756   2 
  -5  -9   9 -0.0048 0.50095   6 
  -5  -9   9 0.62915 0.78223   1 
   4   9  -9 135.593 5.30460   2 
  -4  -9   9 133.761 4.83405   5 
  -4  -9   9 137.135 4.35277   6 
  -4  -9   9 137.940 5.09716   1 
   3   9  -9 0.24641 0.83925   2 
  -3  -9   9 -0.0100 0.71609   1 
  -3  -9   9 0.07599 0.67325   5 
  -3  -9   9 0.19502 0.41930   6 
   2   9  -9 41.8250 2.63062   2 
  -2  -9   9 42.6694 2.38591   5 
  -2  -9   9 42.7156 2.50613   1 
  -2  -9   9 42.3148 1.75880   6 
   1   9  -9 31.8742 2.28309   2 
   1   9  -9 32.4356 2.34544   1 
  -1  -9   9 34.9954 2.14956   5 
  -1  -9   9 29.2257 1.34965   6 
  -1  -9   9 34.9788 2.28030   1 
   0   9  -9 64.1185 3.26208   2 
   0  -9   9 60.4654 3.04234   5 
  10   8  -9 -0.2958 0.95645   3 
  10   8  -9 1.34956 0.95385   2 
 -10  -8   9 1.61867 0.82478   6 
   9   8  -9 56.8420 2.98624   2 
   9   8  -9 60.3088 3.28224   3 
  -9  -8   9 52.5525 2.69644   6 
  -9  -8   9 52.5320 2.88430   1 
   8   8  -9 3.30318 1.03791   2 
  -8  -8   9 1.67837 0.77497   6 
  -8  -8   9 2.70477 0.96984   1 
   7   8  -9 36.6347 2.40984   2 
  -7  -8   9 37.9109 2.03117   6 
  -7  -8   9 35.1155 2.27341   1 
   6   8  -9 -0.5379 0.79259   2 
  -6  -8   9 0.89941 0.62506   6 
  -6  -8   9 -0.0856 0.72762   1 
  -6  -8   9 -0.0801 0.65926   5 
   5   8  -9 172.585 6.11667   2 
  -5  -8   9 164.891 5.31693   6 
  -5  -8   9 169.586 5.67532   5 
  -5  -8   9 176.418 5.94708   1 
   4   8  -9 2.19171 0.95396   2 
  -4  -8   9 2.30209 0.90621   1 
  -4  -8   9 1.56455 0.59144   6 
  -4  -8   9 1.11795 0.72429   5 
   3   8  -9 76.0391 3.54971   2 
  -3  -8   9 77.8072 3.38878   1 
  -3  -8   9 76.2831 3.25415   5 
  -3  -8   9 72.3194 2.70814   6 
   2   8  -9 61.4306 3.06169   2 
  -2  -8   9 57.9641 2.77810   5 
  -2  -8   9 59.7514 2.91521   1 
  -2  -8   9 56.5444 2.21786   6 
   1   8  -9 61.3876 3.08043   2 
  -1  -8   9 60.0553 2.19233   6 
  -1  -8   9 60.3199 2.95346   1 
  -1  -8   9 57.7490 2.84991   5 
   0   8  -9 6.86129 1.20291   2 
   0   8  -9 5.36683 1.19016   1 
   0  -8   9 5.08990 0.58496   6 
   0  -8   9 3.56638 0.99990   1 
   0  -8   9 5.99170 1.05886   5 
  -1   8  -9 106.765 4.33431   1 
  -1   8  -9 107.982 4.22503   2 
   1  -8   9 94.2097 3.06975   6 
   1  -8   9 95.8598 4.06273   5 
   2  -8   9 27.7318 1.23792   6 
   2  -8   9 30.2915 2.16429   5 
  10   7  -9 28.8884 2.42834   3 
  10   7  -9 27.6284 2.08411   2 
 -10  -7   9 27.0971 2.05829   1 
   9   7  -9 0.38659 1.06908   3 
   9   7  -9 -0.2696 0.80816   2 
  -9  -7   9 -0.3161 0.79712   1 
  -9  -7   9 -1.1133 0.58134   6 
   8   7  -9 62.4352 3.12594   2 
   8   7  -9 67.6653 3.30546   3 
  -8  -7   9 59.9410 2.78849   5 
  -8  -7   9 66.2130 3.10210   1 
  -8  -7   9 60.9081 2.82535   6 
   7   7  -9 13.9632 1.51662   2 
  -7  -7   9 13.3550 1.34626   5 
  -7  -7   9 14.2582 1.30331   6 
  -7  -7   9 17.4215 1.57746   1 
   6   7  -9 120.510 4.59554   2 
  -6  -7   9 114.609 4.35684   1 
  -6  -7   9 114.237 4.00877   6 
  -6  -7   9 109.426 4.14134   5 
   5   7  -9 2.87341 0.96843   2 
  -5  -7   9 3.66835 0.91401   1 
  -5  -7   9 2.25511 0.85170   5 
  -5  -7   9 3.73205 0.73074   6 
   4   7  -9 91.3785 3.91692   2 
  -4  -7   9 97.3821 3.79398   1 
  -4  -7   9 96.3429 3.31204   6 
  -4  -7   9 90.4113 3.63166   5 
   3   7  -9 21.1790 1.83025   2 
  -3  -7   9 20.8391 1.65229   1 
  -3  -7   9 18.5215 1.59681   5 
  -3  -7   9 22.3910 1.32580   6 
   2   7  -9 204.022 6.80215   2 
  -2  -7   9 198.172 5.92255   6 
  -2  -7   9 208.300 6.59049   5 
  -2  -7   9 209.676 6.66917   1 
   1   7  -9 2.88631 0.90999   2 
  -1  -7   9 1.60064 0.47099   6 
  -1  -7   9 -0.1827 0.63831   1 
  -1  -7   9 0.81327 0.68553   5 
   0   7  -9 73.2947 3.30385   1 
   0   7  -9 69.7579 3.20708   2 
   0  -7   9 72.4136 3.16977   1 
   0  -7   9 68.8466 3.11104   5 
   0  -7   9 66.2558 2.40556   6 
  -1   7  -9 3.50822 0.96323   2 
  -1   7  -9 2.81681 0.94941   1 
   1  -7   9 3.00942 0.85013   5 
   1  -7   9 2.93731 0.52449   6 
  -2   7  -9 125.433 4.70677   1 
   2  -7   9 114.489 4.51594   5 
   2  -7   9 110.535 3.51687   6 
  -3   7  -9 15.8205 1.66183   1 
   3  -7   9 15.4034 0.96831   6 
   3  -7   9 13.5748 1.47807   5 
 -11  -6   9 16.1102 1.62151   1 
  10   6  -9 0.62615 1.13913   3 
 -10  -6   9 3.32396 0.99015   1 
 -10  -6   9 1.96528 0.78993   5 
   9   6  -9 72.7960 3.56765   3 
   9   6  -9 63.8248 3.15436   2 
  -9  -6   9 69.4102 3.15327   1 
  -9  -6   9 67.1297 3.06614   6 
  -9  -6   9 64.1453 2.94801   5 
   8   6  -9 28.2895 2.02094   2 
   8   6  -9 29.1835 2.25886   3 
  -8  -6   9 26.7105 1.78949   5 
  -8  -6   9 28.3717 1.96945   1 
  -8  -6   9 26.5710 1.83072   6 
   7   6  -9 52.0556 2.79490   3 
   7   6  -9 51.6280 2.70421   2 
  -7  -6   9 50.9738 2.44046   6 
  -7  -6   9 50.4180 2.58888   1 
  -7  -6   9 53.3483 2.51740   5 
   6   6  -9 19.1754 1.71732   2 
  -6  -6   9 19.9053 1.45611   6 
  -6  -6   9 20.0950 1.63852   1 
  -6  -6   9 18.5609 1.55120   5 
   5   6  -9 123.735 4.69548   2 
  -5  -6   9 124.723 4.20591   6 
  -5  -6   9 130.202 4.55691   1 
  -5  -6   9 127.777 4.46664   5 
   4   6  -9 8.01729 1.20997   2 
  -4  -6   9 8.02692 0.89031   6 
  -4  -6   9 8.24433 1.09255   1 
  -4  -6   9 7.31812 1.04447   5 
   3   6  -9 82.5617 3.58008   2 
  -3  -6   9 86.8266 3.41957   5 
  -3  -6   9 86.4417 3.03020   6 
  -3  -6   9 92.1602 3.50807   1 
   2   6  -9 15.3403 1.45637   2 
  -2  -6   9 17.6398 1.48557   5 
  -2  -6   9 17.4681 1.11858   6 
  -2  -6   9 14.3298 1.32388   1 
   1   6  -9 151.235 5.29227   2 
  -1  -6   9 148.885 5.13745   1 
  -1  -6   9 153.800 5.19299   5 
  -1  -6   9 151.175 4.56718   6 
   0   6  -9 -1.0349 0.64918   1 
   0   6  -9 0.38247 0.68596   2 
   0  -6   9 -0.4294 0.51121   5 
   0  -6   9 -0.5310 0.55945   1 
   0  -6   9 -0.4521 0.33179   6 
  -1   6  -9 81.9741 3.48461   1 
  -1   6  -9 86.0055 3.44584   2 
   1  -6   9 74.9287 2.65818   6 
   1  -6   9 80.6781 3.39072   5 
   1  -6   9 79.3888 3.39516   1 
  -2   6  -9 26.2352 1.97715   1 
  -2   6  -9 31.3244 1.97179   2 
   2  -6   9 27.9283 1.94060   5 
   2  -6   9 28.0408 1.35375   6 
  -3   6  -9 62.9461 3.05910   1 
   3  -6   9 56.2489 2.90969   5 
   3  -6   9 56.5239 2.13226   6 
  -4   6  -9 29.2803 2.12592   1 
   4  -6   9 27.5045 1.36788   6 
   4  -6   9 29.3312 2.13793   5 
  11   5  -9 16.6045 1.95082   3 
 -11  -5   9 18.7408 1.59467   5 
  10   5  -9 11.7288 1.66504   3 
 -10  -5   9 10.6123 1.27079   5 
 -10  -5   9 11.3770 1.40591   1 
   9   5  -9 1.69273 1.10324   3 
   9   5  -9 0.71966 0.78804   2 
  -9  -5   9 1.38614 0.74632   5 
  -9  -5   9 1.75138 0.86802   1 
   8   5  -9 47.7953 2.55685   2 
   8   5  -9 46.3279 2.75775   3 
  -8  -5   9 47.9496 2.45612   6 
  -8  -5   9 47.8903 2.41480   5 
  -8  -5   9 48.9119 2.49570   1 
   7   5  -9 71.1779 3.27702   2 
   7   5  -9 78.6449 3.43451   3 
  -7  -5   9 72.2333 3.11857   5 
  -7  -5   9 78.7981 3.12568   6 
  -7  -5   9 76.4378 3.16508   1 
   6   5  -9 78.2465 3.29510   3 
   6   5  -9 74.5755 3.28877   2 
  -6  -5   9 77.2889 3.01122   6 
  -6  -5   9 79.7191 3.19580   1 
  -6  -5   9 72.4134 3.06990   5 
   5   5  -9 0.15870 0.70239   2 
  -5  -5   9 -0.9961 0.57064   1 
  -5  -5   9 -0.7456 0.57623   5 
  -5  -5   9 0.01847 0.52055   6 
   4   5  -9 158.221 5.47355   2 
  -4  -5   9 159.057 4.98737   6 
  -4  -5   9 167.482 5.32212   1 
  -4  -5   9 159.754 5.29460   5 
   3   5  -9 47.7445 2.47137   2 
  -3  -5   9 49.5531 2.31982   1 
  -3  -5   9 47.8048 2.01534   6 
  -3  -5   9 46.1666 2.31548   5 
   2   5  -9 158.316 5.46830   2 
  -2  -5   9 167.297 4.93154   6 
  -2  -5   9 160.105 5.34054   5 
  -2  -5   9 167.580 5.36168   1 
   1   5  -9 4.03903 0.87996   2 
  -1  -5   9 3.80195 0.80563   1 
  -1  -5   9 4.22805 0.60521   6 
  -1  -5   9 3.24884 0.81012   5 
   0   5  -9 30.9539 1.96573   1 
   0   5  -9 30.9287 1.92766   2 
   0  -5   9 30.1896 1.88556   5 
   0  -5   9 30.2445 1.83151   1 
   0  -5   9 30.4931 1.43970   6 
  -1   5  -9 12.9186 1.25918   2 
  -1   5  -9 14.3969 1.35265   1 
   1  -5   9 11.8543 0.86632   6 
   1  -5   9 12.5855 1.24465   5 
   1  -5   9 11.8697 1.21989   1 
  -2   5  -9 102.455 3.99373   1 
  -2   5  -9 108.699 3.89279   2 
   2  -5   9 99.5803 3.24159   6 
   2  -5   9 95.6818 3.21934   6 
   2  -5   9 98.6129 3.88880   5 
  -3   5  -9 58.3332 2.86472   1 
   3  -5   9 56.3986 2.14217   6 
   3  -5   9 58.2492 2.82491   5 
  -4   5  -9 52.2423 2.76171   1 
   4  -5   9 48.3151 1.96928   6 
   4  -5   9 51.0489 2.70156   5 
  -5   5  -9 53.5622 2.83321   1 
   5  -5   9 49.5653 2.07093   6 
   5  -5   9 51.7344 2.79611   5 
  11   4  -9 26.4340 2.40572   3 
 -11  -4   9 26.8420 1.97898   5 
  10   4  -9 0.07997 1.01371   3 
 -10  -4   9 1.50713 0.76021   5 
   9   4  -9 70.3779 3.16984   2 
   9   4  -9 78.3016 3.66169   3 
  -9  -4   9 73.0936 3.15623   1 
  -9  -4   9 69.2289 3.09362   5 
   8   4  -9 9.57973 1.44568   3 
   8   4  -9 8.52233 1.19523   2 
  -8  -4   9 11.9127 1.26459   5 
  -8  -4   9 9.92123 1.17097   1 
   7   4  -9 51.4595 2.61152   2 
   7   4  -9 55.6451 2.82296   3 
  -7  -4   9 52.6090 2.51980   5 
  -7  -4   9 56.4060 2.54510   6 
  -7  -4   9 57.3006 2.55384   1 
   6   4  -9 3.86605 0.98272   3 
   6   4  -9 3.00463 0.89091   2 
  -6  -4   9 3.24696 0.81078   5 
  -6  -4   9 3.76648 0.85604   1 
  -6  -4   9 3.97677 0.82110   6 
   5   4  -9 124.843 4.51762   2 
   5   4  -9 133.520 4.46324   3 
  -5  -4   9 118.819 4.31710   5 
  -5  -4   9 128.967 4.20930   6 
  -5  -4   9 127.201 4.32465   1 
   4   4  -9 0.33810 0.66157   2 
  -4  -4   9 1.08714 0.63811   1 
  -4  -4   9 -0.7344 0.58376   5 
  -4  -4   9 0.10571 0.48525   6 
   3   4  -9 211.289 6.58544   2 
  -3  -4   9 207.830 6.07716   6 
  -3  -4   9 208.334 6.32701   1 
  -3  -4   9 202.850 6.40614   5 
   2   4  -9 9.77779 1.13173   2 
  -2  -4   9 8.40979 1.07516   5 
  -2  -4   9 10.3477 1.05411   1 
  -2  -4   9 8.61079 0.82479   6 
   1   4  -9 434.757 12.1084   2 
  -1  -4   9 431.012 11.5515   6 
  -1  -4   9 428.684 12.0320   5 
  -1  -4   9 425.322 11.9296   1 
   0   4  -9 -0.6215 0.56024   1 
   0   4  -9 0.04510 0.54285   2 
   0  -4   9 -0.0320 0.52743   1 
   0  -4   9 0.17114 0.59703   5 
   0  -4   9 -0.3330 0.33171   6 
  -1   4  -9 121.428 4.26298   2 
  -1   4  -9 123.083 4.35302   1 
   1  -4   9 117.604 4.28844   5 
   1  -4   9 125.110 4.29273   1 
   1  -4   9 119.547 3.77522   6 
  -2   4  -9 26.4580 1.81824   1 
  -2   4  -9 27.9191 1.73593   2 
   2  -4   9 25.1616 1.28155   6 
   2  -4   9 24.0788 1.27151   6 
   2  -4   9 24.8503 1.74311   5 
  -3   4  -9 96.1889 3.50838   2 
  -3   4  -9 93.6338 3.68811   1 
   3  -4   9 85.3659 3.57014   5 
   3  -4   9 85.1769 2.97174   6 
  -4   4  -9 12.8473 1.36386   1 
   4  -4   9 11.2812 1.30556   5 
   4  -4   9 12.1228 0.96148   6 
  -5   4  -9 199.625 6.54894   1 
   5  -4   9 190.367 6.48007   5 
   5  -4   9 196.138 6.79535   4 
   5  -4   9 186.313 5.68744   6 
  -6   4  -9 1.23612 0.83771   1 
   6  -4   9 0.31919 0.77815   5 
   6  -4   9 1.13525 0.56305   6 
   6  -4   9 1.96694 1.11642   4 
   7  -4   9 87.6341 4.39253   4 
  11   3  -9 4.44075 1.38915   3 
 -11  -3   9 2.03709 0.84731   5 
  10   3  -9 26.4296 2.27920   3 
 -10  -3   9 23.7028 1.82405   5 
   9   3  -9 2.82261 1.20943   3 
  -9  -3   9 4.03697 0.94219   5 
   8   3  -9 120.822 4.63532   3 
   8   3  -9 113.135 4.20462   2 
  -8  -3   9 110.598 4.19833   5 
  -8  -3   9 120.642 4.15208   1 
   7   3  -9 2.65579 0.84639   2 
   7   3  -9 3.18131 1.00591   3 
  -7  -3   9 3.08618 0.81438   6 
  -7  -3   9 3.54307 0.85342   5 
  -7  -3   9 2.10387 0.75122   1 
   6   3  -9 140.511 4.78792   3 
   6   3  -9 130.499 4.61611   2 
  -6  -3   9 129.285 4.57502   5 
  -6  -3   9 136.013 4.47822   6 
  -6  -3   9 135.288 4.46344   1 
   5   3  -9 0.16021 0.60583   2 
   5   3  -9 -0.4056 0.63393   3 
  -5  -3   9 0.66248 0.54076   6 
  -5  -3   9 0.46846 0.57344   1 
  -5  -3   9 -0.7941 0.51988   5 
   4   3  -9 178.452 5.78866   2 
   4   3  -9 184.950 5.60571   3 
  -4  -3   9 172.652 5.66332   5 
  -4  -3   9 182.611 5.55234   1 
  -4  -3   9 183.018 5.48914   6 
   3   3  -9 89.8541 3.43638   2 
  -3  -3   9 90.3828 3.22467   1 
  -3  -3   9 88.4253 3.34562   5 
  -3  -3   9 86.8167 3.06099   6 
   2   3  -9 51.4394 2.41165   2 
  -2  -3   9 48.2852 2.31221   5 
  -2  -3   9 52.9900 2.25408   1 
  -2  -3   9 51.7485 2.06887   6 
   1   3  -9 29.2737 1.78055   2 
  -1  -3   9 31.8403 1.49774   6 
  -1  -3   9 30.9396 1.70415   1 
  -1  -3   9 32.9253 1.83915   5 
   0   3  -9 234.551 7.10292   2 
   0   3  -9 242.205 7.13069   1 
   0  -3   9 237.551 7.02067   1 
   0  -3   9 232.552 6.67175   6 
   0  -3   9 232.495 7.09010   5 
  -1   3  -9 18.2051 1.45205   1 
  -1   3  -9 19.4846 1.46507   2 
   1  -3   9 16.5949 1.07547   6 
   1  -3   9 19.0742 1.47152   1 
   1  -3   9 17.8079 1.43437   5 
  -2   3  -9 110.845 4.04687   1 
  -2   3  -9 112.445 3.94948   2 
   2  -3   9 113.962 3.57620   6 
   2  -3   9 109.598 4.01011   5 
  -3   3  -9 95.7631 3.42520   2 
  -3   3  -9 89.5528 3.55320   1 
   3  -3   9 87.5251 3.49173   5 
   3  -3   9 91.1890 3.62957   4 
   3  -3   9 85.4197 2.97452   6 
  -4   3  -9 132.819 4.77803   1 
   4  -3   9 143.607 5.11028   4 
   4  -3   9 133.470 4.77948   5 
   4  -3   9 129.890 4.17569   6 
  -5   3  -9 7.99217 1.16883   1 
   5  -3   9 7.88280 0.81451   6 
   5  -3   9 7.56127 1.14570   5 
  -6   3  -9 204.833 6.82849   1 
   6  -3   9 200.970 6.12191   6 
   6  -3   9 208.785 6.86936   5 
   6  -3   9 210.955 7.29065   4 
  -7   3  -9 14.6304 1.50551   1 
   7  -3   9 11.9630 1.08839   6 
   7  -3   9 12.1957 1.67969   4 
   7  -3   9 15.6827 1.54285   5 
   8  -3   9 16.1309 1.99502   4 
  11   2  -9 27.4560 2.40796   3 
 -11  -2   9 27.4237 2.07688   5 
  10   2  -9 0.47548 1.00491   3 
 -10  -2   9 0.91344 0.77656   5 
   9   2  -9 45.7029 2.72983   3 
  -9  -2   9 42.8365 2.37326   5 
   8   2  -9 -0.8473 0.87117   3 
   8   2  -9 0.08550 0.65553   2 
  -8  -2   9 0.72127 0.68964   5 
   7   2  -9 47.6624 2.55507   3 
   7   2  -9 45.6732 2.30474   2 
  -7  -2   9 41.4322 2.27211   5 
  -7  -2   9 46.7795 2.16867   1 
   6   2  -9 6.43749 0.96344   2 
   6   2  -9 6.17299 1.10184   3 
  -6  -2   9 7.39144 1.01578   5 
  -6  -2   9 8.86592 1.00002   6 
  -6  -2   9 9.87457 0.97497   1 
   5   2  -9 209.993 6.30359   3 
   5   2  -9 187.965 6.19853   2 
  -5  -2   9 205.777 6.08990   6 
  -5  -2   9 194.026 6.22520   5 
  -5  -2   9 209.570 6.04489   1 
   4   2  -9 0.18548 0.58319   2 
   4   2  -9 0.34708 0.55796   3 
  -4  -2   9 0.30916 0.46746   6 
  -4  -2   9 -0.5930 0.46537   1 
  -4  -2   9 -0.2458 0.55286   5 
   3   2  -9 322.175 8.74533   3 
   3   2  -9 309.129 9.03093   2 
  -3  -2   9 315.344 8.77613   1 
  -3  -2   9 314.831 8.73186   6 
  -3  -2   9 306.123 8.98184   5 
   2   2  -9 275.313 8.14107   2 
  -2  -2   9 283.578 7.83325   6 
  -2  -2   9 280.183 7.92010   1 
  -2  -2   9 278.480 8.13154   5 
   1   2  -9 99.6087 3.53257   2 
  -1  -2   9 95.4860 3.33106   1 
  -1  -2   9 97.5502 3.20682   6 
  -1  -2   9 91.3543 3.45197   5 
   0   2  -9 322.150 9.13786   1 
   0   2  -9 323.221 9.20130   2 
   0  -2   9 320.933 9.05445   1 
   0  -2   9 312.245 9.17135   5 
   0  -2   9 329.009 8.85103   6 
  -1   2  -9 59.3618 2.49865   2 
  -1   2  -9 56.6769 2.50105   1 
   1  -2   9 63.0773 2.49044   4 
   1  -2   9 57.2347 2.18872   6 
   1  -2   9 50.7291 2.41095   5 
   1  -2   9 61.1892 2.51049   1 
  -2   2  -9 8.26496 1.02170   1 
  -2   2  -9 9.39974 0.98636   2 
   2  -2   9 10.1041 1.06399   4 
   2  -2   9 9.85811 1.05954   5 
   2  -2   9 10.5612 0.86515   6 
  -3   2  -9 77.9996 2.92790   2 
  -3   2  -9 74.9362 3.05365   1 
   3  -2   9 77.4656 3.18377   4 
   3  -2   9 73.5669 2.60753   6 
   3  -2   9 68.2568 2.56945   6 
   3  -2   9 70.1577 2.94948   5 
  -4   2  -9 27.7728 1.81083   1 
  -4   2  -9 32.3678 1.75351   2 
   4  -2   9 29.4338 2.05059   4 
   4  -2   9 28.3456 1.44413   6 
   4  -2   9 30.2678 1.84304   5 
  -5   2  -9 240.847 7.26116   1 
   5  -2   9 228.901 7.52061   4 
   5  -2   9 220.277 6.61583   6 
   5  -2   9 228.227 7.18797   5 
  -6   2  -9 16.1450 1.47348   1 
   6  -2   9 14.7464 1.14018   6 
   6  -2   9 16.0503 1.75045   4 
   6  -2   9 15.4623 1.43241   5 
  -7   2  -9 103.194 4.12432   1 
   7  -2   9 96.7932 3.54247   6 
   7  -2   9 104.121 4.15028   5 
   7  -2   9 102.042 4.61328   4 
  -8   2  -9 2.06192 0.91787   1 
   8  -2   9 2.19571 0.68355   6 
   8  -2   9 1.62849 0.87993   5 
   8  -2   9 2.53174 1.20418   4 
 -11  -1   9 2.11426 0.94135   5 
  10   1  -9 39.9245 2.69909   3 
 -10  -1   9 34.8944 2.25674   5 
   9   1  -9 12.5200 1.56755   3 
  -9  -1   9 9.87714 1.26471   5 
   8   1  -9 44.1408 2.60118   3 
  -8  -1   9 39.5371 2.29785   5 
   7   1  -9 8.27317 1.23071   3 
   7   1  -9 6.42780 0.93561   2 
  -7  -1   9 8.28647 1.09852   5 
   6   1  -9 253.796 7.66650   2 
   6   1  -9 264.650 7.93465   3 
  -6  -1   9 270.814 7.43862   1 
  -6  -1   9 248.862 7.77515   5 
   5   1  -9 1.44469 0.65106   2 
   5   1  -9 2.26297 0.78288   3 
  -5  -1   9 0.81941 0.64994   5 
  -5  -1   9 2.18908 0.62201   6 
  -5  -1   9 2.67772 0.62256   1 
   4   1  -9 240.854 7.34358   2 
   4   1  -9 253.494 7.30888   3 
  -4  -1   9 239.577 7.35522   5 
  -4  -1   9 254.961 7.07668   1 
  -4  -1   9 256.157 7.20983   6 
   3   1  -9 14.9390 1.16528   3 
   3   1  -9 15.6140 1.28801   2 
  -3  -1   9 14.7208 1.10364   1 
  -3  -1   9 12.5981 1.13042   5 
  -3  -1   9 16.3372 1.12536   6 
   2   1  -9 182.512 5.22323   3 
   2   1  -9 174.776 5.55758   2 
  -2  -1   9 183.708 5.33185   1 
  -2  -1   9 182.577 5.32657   6 
  -2  -1   9 172.705 5.52990   5 
   1   1  -9 104.909 3.73079   2 
  -1  -1   9 102.026 3.71156   5 
  -1  -1   9 115.398 3.60660   1 
  -1  -1   9 110.020 3.51697   6 
   0   1  -9 497.670 13.5298   1 
   0   1  -9 512.019 13.6537   2 
   0  -1   9 501.266 13.4596   1 
   0  -1   9 499.014 13.3553   6 
   0  -1   9 534.532 13.5121   4 
   0  -1   9 469.883 13.5808   5 
  -1   1  -9 0.81933 0.56464   2 
  -1   1  -9 1.34202 0.63448   1 
   1  -1   9 1.28109 0.61419   5 
   1  -1   9 1.32158 0.59061   4 
   1  -1   9 0.91894 0.46633   6 
  -2   1  -9 253.402 7.24339   2 
  -2   1  -9 245.206 7.26420   1 
   2  -1   9 247.729 7.27884   5 
   2  -1   9 245.281 7.33651   4 
   2  -1   9 241.770 6.94702   6 
  -3   1  -9 8.32969 1.00733   1 
  -3   1  -9 9.46677 0.95703   2 
   3  -1   9 10.1711 1.15427   4 
   3  -1   9 9.24152 0.81465   6 
   3  -1   9 10.4572 0.85098   6 
   3  -1   9 8.08583 0.97536   5 
  -4   1  -9 46.4397 2.08331   2 
  -4   1  -9 43.7003 2.20959   1 
   4  -1   9 45.1301 2.19763   5 
   4  -1   9 42.6691 1.86333   6 
   4  -1   9 41.2001 2.37775   4 
  -5   1  -9 2.06462 0.75694   1 
   5  -1   9 1.93920 0.75040   5 
   5  -1   9 2.62003 0.56414   6 
   5  -1   9 2.70666 1.02020   4 
  -6   1  -9 122.201 4.39383   1 
   6  -1   9 114.619 3.90349   6 
   6  -1   9 115.988 4.78629   4 
   6  -1   9 122.315 4.38426   5 
  -7   1  -9 -0.0644 0.64274   1 
   7  -1   9 -1.0997 0.84585   4 
   7  -1   9 0.00062 0.69277   5 
   7  -1   9 0.43782 0.50110   6 
  -8   1  -9 77.0792 3.39295   1 
   8  -1   9 71.4470 3.91026   4 
   8  -1   9 73.7340 3.39674   5 
   8  -1   9 76.2834 3.01625   6 
   9  -1   9 -0.2379 0.72455   5 
   9  -1   9 0.52427 1.13784   4 
  10   0  -9 7.24013 1.49986   3 
 -10   0   9 6.14937 1.13270   5 
   9   0  -9 44.8945 2.71228   3 
  -9   0   9 38.8199 2.36644   5 
   8   0  -9 1.99008 0.96103   3 
  -8   0   9 2.20656 0.86489   5 
   7   0  -9 176.494 5.78601   3 
   7   0  -9 162.295 5.24925   2 
  -7   0   9 158.245 5.46655   5 
   6   0  -9 26.6558 1.63107   2 
   6   0  -9 29.6891 1.99472   3 
  -6   0   9 24.9055 1.72513   5 
   5   0  -9 129.904 4.37058   3 
   5   0  -9 120.851 4.17196   2 
  -5   0   9 126.690 3.85786   1 
  -5   0   9 118.221 4.27663   5 
   4   0  -9 54.7241 2.39601   2 
   4   0  -9 59.9480 2.51132   3 
  -4   0   9 58.0534 2.31301   6 
  -4   0   9 59.2522 2.13866   1 
  -4   0   9 52.5498 2.42637   5 
   3   0  -9 193.577 5.69421   3 
   3   0  -9 190.531 5.83903   2 
  -3   0   9 177.927 5.80357   5 
  -3   0   9 199.638 5.68416   6 
  -3   0   9 194.238 5.49850   1 
   2   0  -9 34.4595 1.81732   2 
   2   0  -9 36.3031 1.67179   3 
  -2   0   9 39.6622 1.75948   4 
  -2   0   9 36.7546 1.61092   1 
  -2   0   9 33.9325 1.80728   5 
  -2   0   9 37.9929 1.66894   6 
   1   0  -9 354.779 10.2635   2 
  -1   0   9 357.305 10.2682   5 
  -1   0   9 385.962 10.0618   1 
  -1   0   9 384.945 10.1157   6 
   0   0  -9 6.30583 0.80903   2 
   0   0  -9 4.17277 0.70861   1 
   0   0   9 5.87341 0.69282   6 
   0   0   9 5.19777 0.68988   1 
   0   0   9 6.48403 0.81277   4 
   0   0   9 4.03719 0.73991   5 
  -1   0  -9 414.129 11.6629   2 
  -1   0  -9 427.674 11.6056   1 
   1   0   9 421.886 11.7326   4 
   1   0   9 438.508 11.7558   5 
   1   0   9 433.547 11.4936   6 
  -2   0  -9 0.35988 0.51781   1 
  -2   0  -9 0.88896 0.54756   2 
   2   0   9 0.73192 0.52927   5 
   2   0   9 0.34956 0.61155   4 
   2   0   9 -0.2175 0.38019   6 
  -3   0  -9 113.468 3.87526   1 
  -3   0  -9 111.993 3.78502   2 
   3   0   9 115.993 4.13327   4 
   3   0   9 112.933 3.62498   6 
   3   0   9 114.272 3.61776   6 
   3   0   9 106.895 3.82040   5 
  -4   0  -9 11.0892 0.99005   2 
  -4   0  -9 11.4497 1.08443   1 
   4   0   9 9.78400 1.03598   5 
   4   0   9 10.6012 0.88235   6 
   4   0   9 11.0584 1.26751   4 
  -5   0  -9 228.905 6.41961   2 
  -5   0  -9 210.732 6.58721   1 
   5   0   9 210.060 6.25033   6 
   5   0   9 204.360 6.93920   4 
   5   0   9 213.903 6.57900   5 
  -6   0  -9 11.5216 1.20155   1 
   6   0   9 11.3319 0.99714   6 
   6   0   9 12.1688 1.50985   4 
   6   0   9 10.9969 1.18019   5 
  -7   0  -9 90.3263 3.59348   1 
   7   0   9 88.0414 3.24712   6 
   7   0   9 88.9126 3.58568   5 
   7   0   9 86.4192 4.10492   4 
  -8   0  -9 32.9292 2.03865   1 
   8   0   9 34.1562 2.10858   5 
   8   0   9 25.7975 2.37382   4 
   8   0   9 34.0836 1.81280   6 
  -9   0  -9 36.3277 2.20147   1 
   9   0   9 32.7297 2.73384   4 
   9   0   9 33.0363 1.94419   6 
   9   0   9 36.9755 2.29422   5 
  10  -1  -9 58.1345 3.28593   3 
 -10   1   9 51.4062 2.86228   5 
   9  -1  -9 18.0726 1.85282   3 
  -9   1   9 15.3604 1.53266   5 
   8  -1  -9 68.8827 3.35630   3 
  -8   1   9 67.2589 3.08524   5 
   7  -1  -9 13.6892 1.49415   3 
  -7   1   9 16.6051 1.45057   5 
   6  -1  -9 184.049 5.96196   3 
   6  -1  -9 181.673 5.54535   2 
  -6   1   9 172.591 5.75775   5 
   5  -1  -9 16.0799 1.28383   2 
   5  -1  -9 14.6519 1.33929   3 
  -5   1   9 13.0191 1.20165   5 
   4  -1  -9 18.9427 1.46769   3 
   4  -1  -9 16.7564 1.30294   2 
  -4   1   9 16.8961 1.37861   5 
  -4   1   9 18.0441 1.34349   4 
   3  -1  -9 126.280 4.02763   3 
   3  -1  -9 113.792 3.98981   2 
  -3   1   9 118.554 4.08245   5 
  -3   1   9 121.657 3.64084   1 
  -3   1   9 122.538 3.90315   6 
  -3   1   9 125.750 4.01337   4 
   2  -1  -9 59.3863 2.45374   2 
   2  -1  -9 57.2048 2.26162   3 
  -2   1   9 61.2864 2.14749   1 
  -2   1   9 62.8270 2.50836   5 
  -2   1   9 63.1631 2.32729   6 
  -2   1   9 64.3673 2.46513   4 
   1  -1  -9 6.43226 0.73288   1 
   1  -1  -9 6.78055 0.84683   2 
   1  -1  -9 5.95732 0.68194   3 
  -1   1   9 8.09287 0.90333   4 
  -1   1   9 8.18306 0.70545   1 
  -1   1   9 8.53033 0.76303   6 
  -1   1   9 6.45067 0.81809   5 
   0  -1  -9 306.818 8.71542   2 
   0  -1  -9 302.858 8.46868   1 
   0   1   9 311.853 8.77081   4 
   0   1   9 316.188 8.54882   6 
   0   1   9 305.784 8.67300   5 
  -1  -1  -9 11.6036 1.02653   2 
  -1  -1  -9 11.7624 0.96045   1 
   1   1   9 13.4519 1.26980   4 
   1   1   9 11.6753 1.01816   5 
   1   1   9 12.5270 0.96219   6 
  -2  -1  -9 111.761 3.77383   1 
  -2  -1  -9 110.148 3.82527   2 
   2   1   9 120.927 3.73876   6 
   2   1   9 119.041 4.12225   4 
   2   1   9 119.241 3.88609   5 
  -3  -1  -9 71.3524 2.68001   1 
  -3  -1  -9 69.4806 2.67824   2 
   3   1   9 68.1233 2.67283   5 
   3   1   9 69.5819 2.51114   6 
   3   1   9 69.6915 2.52511   6 
   3   1   9 67.5271 2.95483   4 
  -4  -1  -9 25.8631 1.53462   2 
  -4  -1  -9 27.0496 1.61228   1 
   4   1   9 30.9706 1.66847   5 
   4   1   9 26.7649 1.93832   4 
   4   1   9 28.4444 1.46636   6 
  -5  -1  -9 1.01391 0.59630   1 
  -5  -1  -9 0.08270 0.50631   2 
   5   1   9 0.89146 0.82203   4 
   5   1   9 0.81481 0.50046   6 
   5   1   9 0.49093 0.58444   5 
  -6  -1  -9 264.030 7.84980   1 
   6   1   9 251.014 8.35571   4 
   6   1   9 270.318 7.83370   5 
   6   1   9 264.432 7.58205   6 
  -7  -1  -9 34.5683 1.97882   1 
   7   1   9 29.2546 2.34510   4 
   7   1   9 29.5040 1.89544   5 
   7   1   9 29.7622 1.68576   6 
  -8  -1  -9 39.7857 2.21737   1 
   8   1   9 37.0819 2.19974   5 
   8   1   9 37.1057 1.97629   6 
   8   1   9 36.4925 2.68632   4 
  -9  -1  -9 16.2784 1.50172   1 
   9   1   9 20.0582 1.69606   5 
   9   1   9 18.1061 2.08997   4 
   9   1   9 16.1202 1.37106   6 
 -10  -1  -9 25.7452 1.87691   5 
  10   1   9 26.0892 1.98499   5 
  10   1   9 23.4092 2.45106   4 
  10   1   9 26.8132 1.78204   6 
  10  -2  -9 2.45267 1.20438   3 
 -10   2   9 -0.7692 0.86263   5 
   9  -2  -9 73.2298 3.63036   3 
  -9   2   9 67.5202 3.28895   5 
   8  -2  -9 33.1846 2.36119   3 
  -8   2   9 36.3125 2.23057   5 
   7  -2  -9 132.162 4.90809   3 
  -7   2   9 131.916 4.72609   5 
   6  -2  -9 2.60737 0.75156   6 
   6  -2  -9 3.69375 0.75073   2 
   6  -2  -9 4.36805 1.00445   3 
  -6   2   9 4.59923 0.91867   4 
  -6   2   9 4.22305 0.88726   5 
   5  -2  -9 252.613 7.56281   3 
   5  -2  -9 243.466 7.32410   6 
   5  -2  -9 247.289 7.21507   2 
  -5   2   9 256.255 7.51421   4 
  -5   2   9 242.303 7.44828   5 
   4  -2  -9 14.4524 1.37113   3 
   4  -2  -9 15.5921 1.24035   2 
   4  -2  -9 14.2704 1.13698   6 
  -4   2   9 16.1797 1.36492   5 
  -4   2   9 16.9117 1.38204   4 
   3  -2  -9 88.8423 3.27718   3 
   3  -2  -9 92.8457 3.22128   6 
   3  -2  -9 87.2279 3.22120   2 
  -3   2   9 97.0498 3.39270   4 
  -3   2   9 92.3271 3.36069   5 
   2  -2  -9 54.8571 2.24230   6 
   2  -2  -9 57.1256 2.30674   3 
   2  -2  -9 55.6202 2.34222   2 
  -2   2   9 59.8731 2.24572   6 
  -2   2   9 59.9499 1.97245   1 
  -2   2   9 59.0109 2.44965   4 
  -2   2   9 55.2656 2.34466   5 
   1  -2  -9 33.4981 1.73696   2 
   1  -2  -9 34.4482 1.66114   6 
   1  -2  -9 38.2191 1.53583   1 
   1  -2  -9 34.0990 1.60168   3 
  -1   2   9 37.6185 1.64446   6 
  -1   2   9 36.4089 1.87084   4 
  -1   2   9 37.3342 1.77464   5 
   0  -2  -9 6.81164 0.68419   3 
   0  -2  -9 8.03837 0.73234   1 
   0  -2  -9 6.93726 0.84441   2 
   0   2   9 8.26306 0.78036   6 
   0   2   9 8.39846 0.98425   4 
   0   2   9 7.37179 0.82570   5 
  -1  -2  -9 614.357 16.4512   2 
  -1  -2  -9 613.242 16.1986   1 
   1   2   9 620.492 16.6993   4 
   1   2   9 630.317 16.3168   6 
   1   2   9 618.978 16.4112   5 
  -2  -2  -9 76.2923 2.66835   1 
  -2  -2  -9 73.4138 2.79113   2 
   2   2   9 77.6098 2.68286   6 
   2   2   9 72.1224 2.75036   5 
   2   2   9 73.2011 3.06713   4 
  -3  -2  -9 203.555 5.95451   2 
  -3  -2  -9 194.517 5.85642   1 
   3   2   9 202.135 5.82383   6 
   3   2   9 198.354 5.79095   6 
   3   2   9 198.761 5.91690   5 
   3   2   9 195.500 6.33531   4 
  -4  -2  -9 25.5725 1.46538   1 
  -4  -2  -9 26.3765 1.48329   2 
   4   2   9 24.3037 1.49565   5 
   4   2   9 22.8466 1.80334   4 
   4   2   9 23.4458 1.35682   6 
  -5  -2  -9 179.120 5.50627   2 
  -5  -2  -9 183.243 5.61686   1 
   5   2   9 184.286 5.46927   6 
   5   2   9 181.272 5.56949   5 
   5   2   9 179.216 6.17846   4 
  -6  -2  -9 9.78294 0.98477   2 
  -6  -2  -9 11.0152 1.09239   1 
   6   2   9 9.76338 1.05886   5 
   6   2   9 11.0989 1.01191   6 
   6   2   9 9.22153 1.38857   4 
  -7  -2  -9 267.653 7.95866   1 
   7   2   9 252.511 8.61537   4 
   7   2   9 273.364 7.79610   6 
   7   2   9 270.791 7.92275   5 
  -8  -2  -9 22.4494 1.67060   1 
   8   2   9 24.0849 1.58709   6 
   8   2   9 19.9957 2.02500   4 
   8   2   9 24.4014 1.71898   5 
  -9  -2  -9 83.9361 3.42513   1 
   9   2   9 73.9371 4.06101   4 
   9   2   9 83.0640 3.43966   5 
   9   2   9 81.5504 3.26762   6 
 -10  -2  -9 9.28523 1.21711   1 
  10   2   9 7.59666 1.63507   4 
  10   2   9 9.88253 1.17134   6 
  10   2   9 10.3077 1.27641   5 
   9  -3  -9 -0.6178 0.92050   3 
  -9   3   9 0.87919 0.84262   5 
   8  -3  -9 100.713 4.27462   3 
   8  -3  -9 95.1439 3.77768   6 
  -8   3   9 89.3130 3.88830   5 
   7  -3  -9 11.1292 1.44372   3 
   7  -3  -9 12.1116 1.23387   6 
  -7   3   9 12.3377 1.31714   5 
  -7   3   9 7.90417 1.32596   4 
   6  -3  -9 99.9682 4.01876   3 
   6  -3  -9 100.491 3.70282   6 
  -6   3   9 99.5325 3.85407   5 
  -6   3   9 102.880 4.02947   4 
   5  -3  -9 0.69083 0.55819   6 
   5  -3  -9 0.22412 0.71584   3 
   5  -3  -9 0.30829 0.54048   2 
  -5   3   9 0.75279 0.62162   5 
  -5   3   9 0.02308 0.64341   4 
   4  -3  -9 312.937 8.88615   6 
   4  -3  -9 308.422 8.79769   2 
   4  -3  -9 309.779 9.08387   3 
  -4   3   9 309.191 9.02299   5 
  -4   3   9 325.223 9.22797   4 
   3  -3  -9 0.45070 0.52369   2 
   3  -3  -9 1.64277 0.54119   6 
   3  -3  -9 0.01282 0.59059   3 
  -3   3   9 0.62653 0.58897   5 
  -3   3   9 0.38244 0.59235   4 
   2  -3  -9 46.3518 2.04380   2 
   2  -3  -9 44.7556 1.97974   6 
   2  -3  -9 44.3144 2.03421   3 
  -2   3   9 45.3219 2.10981   5 
  -2   3   9 48.5876 2.27691   4 
   1  -3  -9 2.35234 0.42864   1 
   1  -3  -9 2.46504 0.56525   3 
   1  -3  -9 2.27808 0.60834   2 
   1  -3  -9 2.54821 0.55656   6 
  -1   3   9 3.24862 0.78215   4 
  -1   3   9 2.81397 0.62224   5 
  -1   3   9 2.34483 0.51468   6 
   0  -3  -9 88.6281 2.97033   3 
   0  -3  -9 84.2311 3.12244   2 
   0  -3  -9 87.4187 2.77666   1 
   0  -3  -9 88.9893 3.05105   6 
   0   3   9 90.5652 3.11275   5 
   0   3   9 93.9313 3.43006   4 
   0   3   9 89.1294 3.00856   6 
  -1  -3  -9 43.9696 1.75021   3 
  -1  -3  -9 47.3630 1.93750   6 
  -1  -3  -9 45.0015 1.75032   1 
  -1  -3  -9 42.7719 1.99481   2 
   1   3   9 42.9765 1.93464   5 
   1   3   9 43.6847 2.30227   4 
   1   3   9 46.0206 1.89047   6 
  -2  -3  -9 427.208 12.2287   2 
  -2  -3  -9 460.452 12.0500   1 
   2   3   9 469.301 12.1756   6 
   2   3   9 449.818 12.6783   4 
   2   3   9 455.602 12.1902   5 
  -3  -3  -9 34.7661 1.63517   1 
  -3  -3  -9 35.0721 1.77407   2 
   3   3   9 38.4278 1.67427   6 
   3   3   9 34.7441 1.72167   5 
   3   3   9 36.1148 1.67820   6 
   3   3   9 34.8944 2.14189   4 
  -4  -3  -9 363.121 10.0691   1 
  -4  -3  -9 368.861 10.1582   2 
   4   3   9 350.449 10.6816   4 
   4   3   9 373.664 10.1061   5 
   4   3   9 376.957 10.0817   6 
  -5  -3  -9 17.5524 1.26408   2 
  -5  -3  -9 16.1327 1.22214   1 
   5   3   9 16.3727 1.17650   6 
   5   3   9 13.0825 1.47805   4 
   5   3   9 14.7115 1.20528   5 
  -6  -3  -9 230.633 6.67892   2 
  -6  -3  -9 224.652 6.77503   1 
   6   3   9 232.044 6.73984   5 
   6   3   9 227.090 6.70328   6 
   6   3   9 219.900 7.48870   4 
  -7  -3  -9 2.70762 0.75436   1 
   7   3   9 2.28553 1.17398   4 
   7   3   9 1.74793 0.68553   6 
   7   3   9 3.17764 0.81476   5 
  -8  -3  -9 79.8999 3.24807   1 
   8   3   9 75.9494 3.89932   4 
   8   3   9 84.6974 3.23750   5 
   8   3   9 82.0298 3.17382   6 
  -9  -3  -9 3.26209 0.89440   1 
   9   3   9 3.30228 1.24590   4 
   9   3   9 5.08227 0.89100   6 
   9   3   9 3.35822 0.88856   5 
 -10  -3  -9 30.1056 1.97266   1 
  10   3   9 32.7952 2.00852   6 
  10   3   9 28.2868 2.60738   4 
  11   3   9 2.72691 0.91152   6 
   9  -4  -9 51.2696 2.68833   6 
   9  -4  -9 57.4477 3.30157   3 
  -9   4   9 48.0650 2.83925   5 
   8  -4  -9 10.7936 1.26515   6 
   8  -4  -9 8.10967 1.49237   3 
  -8   4   9 7.73983 1.28644   5 
  -8   4   9 7.47294 1.42272   4 
   7  -4  -9 112.861 4.47928   3 
   7  -4  -9 105.345 3.94102   6 
  -7   4   9 99.5282 4.11813   5 
   6  -4  -9 3.14009 0.77729   6 
   6  -4  -9 1.55006 0.95720   3 
  -6   4   9 1.70321 0.80902   5 
  -6   4   9 1.29860 0.88341   4 
   5  -4  -9 69.7719 2.75259   6 
   5  -4  -9 64.8922 2.59117   2 
   5  -4  -9 65.3027 3.06505   3 
  -5   4   9 68.5652 3.13987   4 
  -5   4   9 68.3242 2.95075   5 
   4  -4  -9 9.37522 1.18846   3 
   4  -4  -9 11.9418 1.05240   2 
   4  -4  -9 12.5640 1.07317   6 
  -4   4   9 13.1994 1.34621   4 
  -4   4   9 11.5938 1.15236   5 
   3  -4  -9 91.1834 3.26284   2 
   3  -4  -9 96.9057 3.30282   6 
   3  -4  -9 89.8806 3.47861   3 
  -3   4   9 91.7262 3.40933   5 
  -3   4   9 97.5120 3.67128   4 
   2  -4  -9 139.019 4.50680   3 
   2  -4  -9 134.608 4.31721   6 
   2  -4  -9 135.333 4.36353   2 
  -2   4   9 134.272 4.42570   5 
  -2   4   9 138.564 4.72288   4 
   1  -4  -9 27.1145 1.49645   6 
   1  -4  -9 29.5851 1.63544   3 
   1  -4  -9 29.9009 1.62251   2 
  -1   4   9 34.1220 1.67581   5 
  -1   4   9 32.0810 1.91102   4 
   0  -4  -9 15.1403 1.15544   3 
   0  -4  -9 16.9514 1.12414   6 
   0  -4  -9 15.1609 1.22171   2 
   0  -4  -9 14.6545 0.84402   1 
   0   4   9 17.3867 1.20462   5 
   0   4   9 16.9141 1.48480   4 
  -1  -4  -9 438.051 12.2009   2 
  -1  -4  -9 449.414 12.1469   6 
  -1  -4  -9 458.508 12.0419   3 
  -1  -4  -9 446.494 11.7666   1 
   1   4   9 469.463 12.1114   6 
   1   4   9 442.142 12.5894   4 
   1   4   9 445.154 12.0842   5 
  -2  -4  -9 180.820 5.44075   6 
  -2  -4  -9 181.792 5.19310   1 
  -2  -4  -9 179.586 5.52416   2 
  -2  -4  -9 185.662 5.24605   3 
   2   4   9 180.687 5.39060   5 
   2   4   9 187.849 5.41313   6 
   2   4   9 177.857 5.92663   4 
  -3  -4  -9 165.182 4.98059   1 
  -3  -4  -9 164.706 5.21232   2 
   3   4   9 164.909 5.68787   4 
   3   4   9 180.280 5.17550   6 
   3   4   9 176.112 5.13741   6 
   3   4   9 172.307 5.11250   5 
  -4  -4  -9 32.4872 1.72957   2 
  -4  -4  -9 33.5014 1.59795   1 
   4   4   9 31.3161 1.59576   5 
   4   4   9 31.7652 2.17353   4 
   4   4   9 33.2504 1.59784   6 
  -5  -4  -9 225.060 6.59757   2 
  -5  -4  -9 216.917 6.49600   1 
   5   4   9 221.110 7.28528   4 
   5   4   9 228.024 6.49946   5 
   5   4   9 228.667 6.56541   6 
  -6  -4  -9 33.8378 1.73530   1 
  -6  -4  -9 33.3935 1.74685   2 
   6   4   9 33.7045 1.73754   6 
   6   4   9 26.4149 2.17514   4 
   6   4   9 34.7372 1.72722   5 
  -7  -4  -9 206.976 6.07344   2 
  -7  -4  -9 195.213 6.13269   1 
   7   4   9 210.564 6.19867   6 
   7   4   9 204.583 6.09567   5 
   7   4   9 188.358 6.94412   4 
  -8  -4  -9 9.79888 1.10852   1 
   8   4   9 9.67639 1.07632   6 
   8   4   9 10.1463 1.06826   5 
   8   4   9 7.42278 1.46290   4 
  -9  -4  -9 50.2690 2.46384   1 
   9   4   9 49.1358 3.13444   4 
   9   4   9 55.5349 2.50661   6 
 -10  -4  -9 20.2601 1.62604   1 
  10   4   9 16.4856 2.04203   4 
 -11  -4  -9 8.14146 1.19440   1 
   9  -5  -9 1.98230 0.86310   6 
  -9   5   9 1.92257 1.09817   4 
   8  -5  -9 38.2927 2.22407   6 
   8  -5  -9 43.2419 2.77458   3 
  -8   5   9 39.3223 2.75811   4 
  -8   5   9 36.6223 2.46454   5 
   7  -5  -9 12.7495 1.26222   6 
   7  -5  -9 16.1899 1.73937   3 
  -7   5   9 12.7006 1.64422   4 
  -7   5   9 13.2794 1.46652   5 
   6  -5  -9 55.2589 2.52249   6 
   6  -5  -9 55.5641 2.96229   3 
  -6   5   9 57.5862 2.81898   5 
  -6   5   9 58.3908 3.11046   4 
   5  -5  -9 62.0993 3.00976   3 
   5  -5  -9 55.5765 2.46001   6 
  -5   5   9 57.8750 2.97428   4 
  -5   5   9 55.8817 2.71201   5 
   4  -5  -9 194.971 5.95985   6 
   4  -5  -9 194.402 5.87924   2 
   4  -5  -9 201.189 6.41971   3 
  -4   5   9 195.411 6.19632   5 
  -4   5   9 193.046 6.50506   4 
   3  -5  -9 0.25585 0.59089   2 
   3  -5  -9 0.11758 0.74978   3 
   3  -5  -9 1.18477 0.53787   6 
  -3   5   9 1.25327 0.69405   5 
  -3   5   9 0.66265 0.76535   4 
   2  -5  -9 94.3015 3.29819   6 
   2  -5  -9 92.7400 3.26771   2 
   2  -5  -9 91.8145 3.48134   3 
  -2   5   9 95.9662 3.39727   5 
  -2   5   9 90.6407 3.69489   4 
   1  -5  -9 24.8769 1.60427   3 
   1  -5  -9 24.5147 1.39975   6 
   1  -5  -9 23.6473 1.44561   2 
  -1   5   9 26.3556 1.82038   4 
  -1   5   9 25.2441 1.51379   5 
   0  -5  -9 119.218 3.97683   2 
   0  -5  -9 117.761 3.98286   3 
   0  -5  -9 123.051 3.91809   6 
   0   5   9 121.848 4.37720   4 
   0   5   9 122.221 3.89571   5 
  -1  -5  -9 3.29583 0.70166   2 
  -1  -5  -9 2.74120 0.58673   6 
  -1  -5  -9 3.39035 0.64265   3 
   1   5   9 2.62338 0.88803   4 
   1   5   9 3.26824 0.60473   5 
  -2  -5  -9 397.635 11.1597   2 
  -2  -5  -9 415.118 11.0291   3 
  -2  -5  -9 408.511 11.1173   6 
   2   5   9 403.597 11.6650   4 
   2   5   9 411.773 10.9757   5 
  -3  -5  -9 46.3131 1.99052   6 
  -3  -5  -9 47.6623 1.79791   1 
  -3  -5  -9 42.8681 2.02724   2 
  -3  -5  -9 45.6710 1.84859   3 
   3   5   9 46.6180 1.91991   5 
   3   5   9 41.8855 2.46273   4 
  -4  -5  -9 431.678 11.6960   2 
  -4  -5  -9 428.813 11.4093   1 
   4   5   9 429.052 11.4380   5 
   4   5   9 414.480 12.2907   4 
  -5  -5  -9 12.9629 1.11093   1 
  -5  -5  -9 13.7518 1.19146   2 
   5   5   9 12.0716 1.44141   4 
   5   5   9 12.1985 1.02951   5 
  -6  -5  -9 20.6743 1.38067   2 
  -6  -5  -9 19.4524 1.32194   1 
   6   5   9 18.9593 1.86456   4 
   6   5   9 21.2906 1.30343   5 
  -7  -5  -9 4.73487 0.81502   2 
  -7  -5  -9 5.88027 0.85896   1 
   7   5   9 5.60275 1.32454   4 
  -8  -5  -9 66.8736 2.76340   1 
   8   5   9 62.1619 3.47599   4 
  -9  -5  -9 6.49826 0.98967   1 
   9   5   9 4.72504 1.35003   4 
 -10  -5  -9 36.2629 2.09490   1 
  10   5   9 32.1488 2.74242   4 
 -11  -5  -9 1.53695 0.76917   1 
  11   5   9 3.57728 1.36664   4 
   8  -6  -9 17.8569 1.90835   3 
   8  -6  -9 16.4831 1.44733   6 
  -8   6   9 17.5797 1.72792   5 
  -8   6   9 15.6051 1.88484   4 
   7  -6  -9 36.8154 2.57711   3 
   7  -6  -9 36.4957 2.07823   6 
  -7   6   9 38.2812 2.44071   5 
  -7   6   9 36.4356 2.67557   4 
   6  -6  -9 -0.5376 0.78511   3 
   6  -6  -9 -0.1126 0.57508   6 
  -6   6   9 -0.6543 0.79577   4 
  -6   6   9 -0.5476 0.67912   5 
   5  -6  -9 109.810 4.35478   3 
   5  -6  -9 102.892 3.76274   6 
  -5   6   9 108.652 4.13996   5 
  -5   6   9 107.773 4.53788   4 
   4  -6  -9 30.1165 1.67250   2 
   4  -6  -9 29.7710 2.13754   3 
   4  -6  -9 31.3609 1.69811   6 
  -4   6   9 29.1328 1.89655   5 
  -4   6   9 30.3146 2.17469   4 
   3  -6  -9 160.428 5.07742   6 
   3  -6  -9 162.050 5.08617   2 
   3  -6  -9 162.828 5.53507   3 
  -3   6   9 162.733 5.32015   5 
  -3   6   9 168.998 5.78654   4 
   2  -6  -9 152.947 4.83004   2 
   2  -6  -9 161.277 5.22997   3 
   2  -6  -9 155.566 4.81520   6 
  -2   6   9 145.261 5.31330   4 
  -2   6   9 151.975 4.93911   5 
   1  -6  -9 145.194 4.58673   6 
   1  -6  -9 140.691 4.83072   3 
   1  -6  -9 144.221 4.65167   2 
  -1   6   9 148.992 5.18820   4 
  -1   6   9 152.504 4.68632   5 
   0  -6  -9 28.6314 1.53827   6 
   0  -6  -9 29.7741 1.63540   2 
   0  -6  -9 29.5076 1.72839   3 
   0   6   9 27.8630 2.04075   4 
   0   6   9 31.8742 1.61648   5 
  -1  -6  -9 543.656 14.7840   2 
  -1  -6  -9 550.519 14.8217   3 
  -1  -6  -9 559.757 14.7112   6 
   1   6   9 535.795 15.2837   4 
   1   6   9 562.707 14.5971   5 
  -2  -6  -9 28.1249 1.64789   2 
  -2  -6  -9 28.0100 1.50474   6 
  -2  -6  -9 30.5313 1.58321   3 
   2   6   9 27.8045 1.43922   5 
   2   6   9 27.7824 2.04224   4 
  -3  -6  -9 249.000 7.16182   6 
  -3  -6  -9 249.595 7.24939   2 
  -3  -6  -9 244.880 7.08082   3 
  -3  -6  -9 254.079 6.78654   1 
   3   6   9 241.513 7.78537   4 
   3   6   9 248.102 6.94491   5 
  -4  -6  -9 9.33764 0.92254   6 
  -4  -6  -9 8.69637 0.77383   1 
  -4  -6  -9 8.40972 0.95333   2 
   4   6   9 7.75121 0.77556   5 
   4   6   9 8.07054 1.30078   4 
   4   6   9 10.8438 0.97922   3 
  -5  -6  -9 140.832 4.58694   2 
  -5  -6  -9 141.767 4.32557   1 
   5   6   9 138.979 5.21936   4 
  -6  -6  -9 82.1797 3.09181   2 
  -6  -6  -9 83.3715 2.93280   1 
   6   6   9 75.9338 3.66101   4 
  -7  -6  -9 46.4249 2.11169   1 
  -7  -6  -9 48.5324 2.24167   2 
   7   6   9 45.6666 2.83670   4 
  -8  -6  -9 4.63625 0.85150   1 
  -8  -6  -9 5.55511 0.88372   2 
   8   6   9 5.14079 1.38516   4 
  -9  -6  -9 76.4886 3.10093   1 
   9   6   9 73.2885 3.88041   4 
 -10  -6  -9 12.1130 1.28333   1 
  10   6   9 7.30019 1.67971   4 
 -11  -6  -9 9.28326 1.24275   1 
  11   6   9 9.71273 1.79646   4 
   7  -7  -9 17.3383 1.45337   6 
   7  -7  -9 20.3246 1.97235   3 
  -7   7   9 18.7243 1.78236   5 
  -7   7   9 22.4899 2.25685   4 
   6  -7  -9 42.7178 2.75933   3 
   6  -7  -9 42.5143 2.15916   6 
  -6   7   9 44.4338 2.88921   4 
  -6   7   9 42.6345 2.53766   5 
   5  -7  -9 18.3360 1.74583   3 
   5  -7  -9 16.6064 1.30234   6 
  -5   7   9 14.7459 1.71297   4 
  -5   7   9 13.6696 1.41779   5 
   4  -7  -9 81.5468 3.62806   3 
   4  -7  -9 80.9024 3.02256   6 
  -4   7   9 79.9535 3.76967   4 
  -4   7   9 77.8307 3.34370   5 
   3  -7  -9 23.7379 1.48419   6 
   3  -7  -9 24.6604 1.62172   2 
   3  -7  -9 28.1520 2.00598   3 
  -3   7   9 25.2584 2.06233   4 
  -3   7   9 26.1066 1.76254   5 
   2  -7  -9 104.351 3.63066   6 
   2  -7  -9 105.740 3.74258   2 
   2  -7  -9 112.689 4.18064   3 
  -2   7   9 105.906 4.32552   4 
  -2   7   9 108.290 3.82663   5 
   1  -7  -9 76.3994 3.19483   3 
   1  -7  -9 77.7701 2.95539   2 
   1  -7  -9 75.6585 2.83679   6 
  -1   7   9 73.0594 3.40072   4 
  -1   7   9 79.7047 2.93990   5 
   0  -7  -9 106.200 3.88864   3 
   0  -7  -9 106.964 3.71220   2 
   0  -7  -9 106.610 3.58696   6 
   0   7   9 111.012 3.61695   5 
   0   7   9 101.862 4.16386   4 
  -1  -7  -9 1.69432 0.56873   6 
  -1  -7  -9 1.42683 0.62656   2 
  -1  -7  -9 1.61551 0.67122   3 
   1   7   9 2.10404 0.90358   4 
   1   7   9 3.36497 0.57471   5 
  -2  -7  -9 237.006 6.96111   6 
  -2  -7  -9 243.532 7.14523   3 
  -2  -7  -9 237.281 7.07930   2 
   2   7   9 241.518 6.73886   5 
   2   7   9 236.906 7.65490   4 
  -3  -7  -9 11.5302 0.99972   6 
  -3  -7  -9 11.2357 1.06833   2 
  -3  -7  -9 11.6363 1.05696   3 
   3   7   9 12.2736 1.44917   4 
  -4  -7  -9 169.218 5.19824   3 
  -4  -7  -9 168.309 4.83537   1 
  -4  -7  -9 163.170 5.17269   6 
  -4  -7  -9 165.759 5.29155   2 
   4   7   9 158.768 5.79820   4 
   4   7   9 173.730 5.23155   3 
  -5  -7  -9 0.59360 0.61736   2 
  -5  -7  -9 0.57317 0.49869   6 
  -5  -7  -9 0.68109 0.48799   1 
   5   7   9 -0.9261 0.81490   4 
   5   7   9 0.91426 0.57374   3 
  -6  -7  -9 69.5432 2.86958   2 
  -6  -7  -9 69.6906 2.62243   1 
   6   7   9 73.4576 3.52262   4 
  -7  -7  -9 8.89074 1.05270   2 
  -7  -7  -9 8.09649 0.93720   1 
   7   7   9 7.63675 1.38003   4 
  -8  -7  -9 71.1985 2.88700   1 
  -8  -7  -9 74.6225 2.99835   2 
   8   7   9 66.7582 3.69104   4 
  -9  -7  -9 46.8075 2.28703   1 
   9   7   9 39.0089 2.87075   4 
 -10  -7  -9 42.3030 2.31038   1 
  10   7   9 42.6790 3.07645   4 
 -11  -7  -9 15.4913 1.50732   1 
  11   7   9 17.2074 2.17031   4 
   6  -8  -9 3.04024 1.13066   3 
   6  -8  -9 2.80464 0.72043   6 
  -6   8   9 1.59365 1.06053   4 
  -6   8   9 2.58208 1.04809   5 
   5  -8  -9 30.9188 1.73996   6 
   5  -8  -9 31.7791 2.37174   3 
  -5   8   9 28.2748 2.38305   4 
  -5   8   9 28.7572 2.10503   5 
   4  -8  -9 15.2995 1.21096   6 
   4  -8  -9 13.2016 1.52181   3 
  -4   8   9 11.1640 1.32727   5 
  -4   8   9 12.9631 1.64165   4 
   3  -8  -9 176.072 5.61523   2 
   3  -8  -9 183.381 6.23585   3 
   3  -8  -9 180.619 5.52703   6 
  -3   8   9 178.126 5.82140   5 
  -3   8   9 171.779 6.40404   4 
   2  -8  -9 17.8738 1.24206   6 
   2  -8  -9 17.0781 1.63640   3 
   2  -8  -9 16.0113 1.39410   2 
  -2   8   9 14.4010 1.60780   4 
  -2   8   9 14.2007 1.27418   5 
   1  -8  -9 133.475 4.57548   2 
   1  -8  -9 138.161 4.94680   3 
   1  -8  -9 137.472 4.43451   6 
  -1   8   9 148.695 4.61405   5 
  -1   8   9 136.271 5.20784   4 
   0  -8  -9 9.72265 1.04873   2 
   0  -8  -9 10.4796 0.95099   6 
   0  -8  -9 8.33408 1.12624   3 
   0   8   9 8.35899 1.26405   4 
   0   8   9 11.0729 0.97375   5 
  -1  -8  -9 59.6322 2.69880   3 
  -1  -8  -9 60.5903 2.43036   6 
  -1  -8  -9 62.7478 2.62290   2 
   1   8   9 63.4062 3.11589   4 
  -2  -8  -9 16.3879 1.33812   2 
  -2  -8  -9 13.6481 1.31773   3 
  -2  -8  -9 13.7481 1.12687   6 
   2   8   9 14.5456 1.55559   4 
  -3  -8  -9 43.3405 1.96614   6 
  -3  -8  -9 43.3211 2.13574   3 
  -3  -8  -9 40.4339 2.07796   2 
   3   8   9 40.9035 2.54606   4 
  -4  -8  -9 25.7226 1.52487   6 
  -4  -8  -9 27.6304 1.67489   3 
  -4  -8  -9 28.9936 1.76959   2 
   4   8   9 27.8019 1.72352   3 
   4   8   9 24.6320 2.08837   4 
  -5  -8  -9 121.549 3.83635   1 
  -5  -8  -9 118.683 4.10930   6 
  -5  -8  -9 125.728 4.27543   2 
   5   8   9 112.900 4.70573   4 
   5   8   9 129.298 4.24937   3 
  -6  -8  -9 10.5245 0.98562   1 
  -6  -8  -9 11.0581 1.15974   2 
   6   8   9 10.3413 1.51353   4 
   6   8   9 11.4448 1.12711   3 
  -7  -8  -9 125.725 4.42140   2 
  -7  -8  -9 124.864 4.15607   1 
   7   8   9 124.474 5.10313   4 
  -8  -8  -9 -0.7619 0.65482   1 
  -8  -8  -9 -0.3487 0.66533   2 
   8   8   9 1.24606 1.15470   4 
  -9  -8  -9 84.2052 3.36935   2 
  -9  -8  -9 80.8199 3.30291   1 
   9   8   9 81.8765 4.14870   4 
 -10  -8  -9 11.6230 1.34031   1 
  10   8   9 13.9695 1.95535   4 
 -11  -8  -9 42.7646 2.41704   1 
  11   8   9 37.0642 3.00500   4 
  -6   9   9 20.8482 1.89166   5 
   5  -9  -9 0.17298 0.53611   6 
   5  -9  -9 -0.3399 0.82109   3 
  -5   9   9 0.17353 0.90110   4 
  -5   9   9 0.23639 0.83025   5 
   4  -9  -9 88.5551 3.29975   6 
   4  -9  -9 94.1254 4.16430   3 
  -4   9   9 86.1629 3.69508   5 
  -4   9   9 87.7276 4.25948   4 
   3  -9  -9 0.34184 0.78617   3 
   3  -9  -9 1.15322 0.54215   6 
  -3   9   9 1.01895 0.90165   4 
  -3   9   9 0.26442 0.70632   5 
   2  -9  -9 210.824 6.52891   2 
   2  -9  -9 210.083 7.00301   3 
   2  -9  -9 210.829 6.29601   6 
  -2   9   9 211.447 6.52052   5 
  -2   9   9 202.130 7.25496   4 
   1  -9  -9 9.33953 0.91920   6 
   1  -9  -9 6.84904 1.13620   3 
   1  -9  -9 6.15571 0.98518   2 
  -1   9   9 7.00465 1.29189   4 
   0  -9  -9 102.211 4.01150   3 
   0  -9  -9 101.863 3.75496   2 
   0  -9  -9 103.634 3.53270   6 
   0   9   9 99.0414 4.28699   4 
  -1  -9  -9 26.9173 1.75014   2 
  -1  -9  -9 27.9253 1.54963   6 
  -1  -9  -9 27.3562 1.85955   3 
   1   9   9 27.3249 2.15878   4 
  -2  -9  -9 158.370 5.21399   2 
  -2  -9  -9 165.167 5.39067   3 
  -2  -9  -9 157.469 4.96273   6 
   2   9   9 150.808 5.68776   4 
  -3  -9  -9 0.96960 0.69725   2 
  -3  -9  -9 1.89103 0.75558   3 
  -3  -9  -9 1.78087 0.58310   6 
   3   9   9 1.26365 1.02006   4 
  -4  -9  -9 92.2682 3.48881   3 
  -4  -9  -9 87.0995 3.21895   6 
  -4  -9  -9 87.1041 3.42277   2 
   4   9   9 86.5956 3.45085   3 
   4   9   9 83.5805 3.89772   4 
  -5  -9  -9 49.8633 2.43534   2 
  -5  -9  -9 47.0308 2.20881   6 
   5   9   9 46.3438 2.83500   4 
   5   9   9 49.7743 2.44728   3 
  -6  -9  -9 83.4580 3.17185   6 
  -6  -9  -9 83.5195 3.33971   2 
   6   9   9 81.3103 3.31121   3 
   6   9   9 74.5407 3.77238   4 
  -7  -9  -9 11.4657 1.25080   2 
  -7  -9  -9 12.2354 1.13223   1 
   7   9   9 9.70704 1.61588   4 
  -8  -9  -9 71.0967 3.04767   2 
   8   9   9 63.3503 3.57485   4 
  -9  -9  -9 13.7277 1.38233   2 
  -9  -9  -9 14.6677 1.34535   1 
   9   9   9 12.5653 1.81799   4 
 -10  -9  -9 97.9734 3.78004   1 
  10   9   9 88.4853 4.53917   4 
 -11  -9  -9 1.75753 0.87582   1 
  11   9   9 0.11443 1.25014   4 
   4 -10  -9 2.69152 0.67741   6 
   4 -10  -9 2.90751 1.09617   3 
  -4  10   9 2.32078 1.17205   4 
   3 -10  -9 124.782 4.18887   6 
   3 -10  -9 130.625 5.12137   3 
  -3  10   9 116.804 5.22952   4 
   2 -10  -9 0.56544 0.49395   6 
   2 -10  -9 -0.5433 0.66179   2 
   2 -10  -9 0.47497 0.75215   3 
  -2  10   9 -0.3984 0.96429   4 
   1 -10  -9 105.241 3.96698   2 
   1 -10  -9 106.142 4.34784   3 
   1 -10  -9 109.188 3.72068   6 
  -1  10   9 103.889 4.59668   4 
   0 -10  -9 62.9017 3.06865   3 
   0 -10  -9 59.2023 2.80109   2 
   0 -10  -9 65.5088 2.55812   6 
   0  10   9 57.7029 3.22699   4 
  -1 -10  -9 103.481 3.89155   2 
  -1 -10  -9 103.848 4.09272   3 
  -1 -10  -9 102.446 3.55112   6 
   1  10   9 93.8473 4.29787   4 
  -2 -10  -9 0.53056 0.67910   3 
  -2 -10  -9 0.87117 0.75727   2 
  -2 -10  -9 -0.0749 0.47110   6 
   2  10   9 -2.5084 0.80078   4 
  -3 -10  -9 258.787 7.90235   2 
  -3 -10  -9 271.985 8.06350   3 
  -3 -10  -9 249.615 7.51790   6 
   3  10   9 252.847 8.44758   4 
  -4 -10  -9 9.65293 1.00108   6 
  -4 -10  -9 8.69509 1.15701   2 
  -4 -10  -9 10.8783 1.21734   3 
   4  10   9 5.57341 1.35874   4 
   4  10   9 8.34690 1.18163   3 
  -5 -10  -9 62.5567 2.88488   2 
  -5 -10  -9 65.4834 2.66413   6 
   5  10   9 55.2815 3.24149   4 
   5  10   9 66.0363 2.97838   3 
  -6 -10  -9 62.3142 2.68037   6 
  -6 -10  -9 65.3804 2.94794   2 
   6  10   9 55.6799 3.29519   4 
   6  10   9 69.2948 3.05318   3 
  -7 -10  -9 31.9159 2.03656   2 
  -7 -10  -9 31.0926 1.87139   6 
   7  10   9 29.5749 2.44700   4 
   7  10   9 32.3192 2.13591   3 
  -8 -10  -9 0.25826 0.67085   1 
  -8 -10  -9 1.13084 0.83905   2 
   8  10   9 1.40039 1.15277   4 
  -9 -10  -9 70.7838 3.04487   1 
  -9 -10  -9 74.7582 3.25666   2 
   9  10   9 67.3651 3.78470   4 
 -10 -10  -9 1.34574 0.84395   1 
  10  10   9 1.93767 1.34200   4 
 -11 -10  -9 28.1637 2.01059   1 
  11  10   9 28.1559 2.68546   4 
   3 -11  -9 37.8418 1.90048   6 
   3 -11  -9 44.5029 2.78549   3 
  -3  11   9 37.7920 2.86833   4 
   2 -11  -9 52.1092 2.28477   6 
   2 -11  -9 53.8528 3.05823   3 
  -2  11   9 47.0842 3.16251   4 
   1 -11  -9 -0.3474 0.47323   6 
   1 -11  -9 0.37995 0.73517   2 
   1 -11  -9 0.41208 0.82466   3 
  -1  11   9 -0.8277 0.93084   4 
   0 -11  -9 124.320 4.83018   3 
   0 -11  -9 122.449 4.09114   6 
   0 -11  -9 122.440 4.46314   2 
   0  11   9 115.184 5.03086   4 
  -1 -11  -9 57.7088 2.48550   6 
  -1 -11  -9 63.3814 3.12991   3 
  -1 -11  -9 60.7005 2.87309   2 
   1  11   9 60.1541 3.35928   4 
  -2 -11  -9 139.998 5.12174   3 
  -2 -11  -9 136.608 4.88477   2 
  -2 -11  -9 139.497 4.49840   6 
   2  11   9 128.958 5.34709   4 
  -3 -11  -9 -0.5283 0.68347   3 
  -3 -11  -9 -0.9918 0.69006   2 
  -3 -11  -9 0.21042 0.50699   6 
   3  11   9 -1.4857 0.97374   4 
  -4 -11  -9 169.526 5.45978   6 
  -4 -11  -9 176.802 5.89404   2 
  -4 -11  -9 176.388 5.97273   3 
   4  11   9 181.989 6.03921   3 
   4  11   9 158.888 6.30350   4 
  -5 -11  -9 10.7558 1.07480   6 
  -5 -11  -9 12.9328 1.38640   2 
   5  11   9 10.6750 1.65631   4 
   5  11   9 11.8213 1.46984   3 
  -6 -11  -9 35.5607 2.22270   2 
  -6 -11  -9 36.3186 1.94380   6 
   6  11   9 38.7492 2.37157   3 
   6  11   9 34.4430 2.60008   4 
  -7 -11  -9 9.67521 1.26071   2 
  -7 -11  -9 10.7784 1.14125   6 
   7  11   9 10.7968 1.65958   4 
   7  11   9 9.25238 1.33250   3 
  -8 -11  -9 18.7116 1.67027   2 
   8  11   9 16.9354 1.96621   4 
   8  11   9 14.0830 1.56099   3 
  -9 -11  -9 3.83050 1.07746   2 
   9  11   9 6.53202 1.57385   4 
 -10 -11  -9 67.1368 3.10743   1 
 -10 -11  -9 74.0168 3.37414   2 
  10  11   9 66.8419 3.90105   4 
 -11 -11  -9 4.86015 1.12173   1 
   1 -12  -9 119.688 4.90877   3 
   1 -12  -9 119.434 3.99912   6 
   1 -12  -9 120.475 4.47567   2 
  -1  12   9 101.398 4.96726   4 
   0 -12  -9 12.9935 1.41365   2 
   0 -12  -9 12.9188 1.56098   3 
   0 -12  -9 11.4280 1.07916   6 
   0  12   9 11.0642 1.71446   4 
  -1 -12  -9 61.9482 2.57161   6 
  -1 -12  -9 64.1409 3.24527   3 
  -1 -12  -9 61.3049 2.99799   2 
   1  12   9 64.1320 3.60624   4 
  -2 -12  -9 17.6241 1.28811   6 
  -2 -12  -9 14.7622 1.50856   2 
  -2 -12  -9 15.3018 1.61016   3 
   2  12   9 13.6280 1.80700   4 
  -3 -12  -9 48.1815 2.74581   3 
  -3 -12  -9 47.8133 2.20732   6 
  -3 -12  -9 47.2845 2.61241   2 
   3  12   9 46.2304 3.03517   4 
  -4 -12  -9 -0.6740 0.46981   6 
  -4 -12  -9 -0.5525 0.79055   2 
  -4 -12  -9 0.30186 0.76383   3 
   4  12   9 -1.2982 1.02889   4 
   4  12   9 1.25974 0.93168   3 
  -5 -12  -9 79.1112 3.51564   2 
  -5 -12  -9 76.1056 3.08376   6 
   5  12   9 74.4092 3.93579   4 
   5  12   9 84.7487 3.73042   3 
  -6 -12  -9 10.6083 1.09988   6 
  -6 -12  -9 8.20457 1.28013   2 
   6  12   9 11.6924 1.78382   4 
   6  12   9 10.4685 1.42359   3 
  -7 -12  -9 12.2622 1.20405   6 
  -7 -12  -9 10.9810 1.39736   2 
   7  12   9 12.5890 1.81752   4 
   7  12   9 9.98003 1.46593   3 
  -8 -12  -9 11.8668 1.47723   2 
  -8 -12  -9 12.3298 1.24681   6 
   8  12   9 10.7476 1.44701   3 
   8  12   9 10.5072 1.76826   4 
  -9 -12  -9 12.7827 1.52297   2 
   9  12   9 15.7470 2.02904   4 
 -10 -12  -9 0.12278 0.90256   2 
  10  12   9 2.35455 1.33110   4 
   0 -13  -9 88.5960 3.88639   2 
   0 -13  -9 98.2028 4.33525   3 
  -1 -13  -9 6.37992 1.22541   3 
  -1 -13  -9 5.98465 1.17461   2 
  -1 -13  -9 5.79878 0.82609   6 
   1  13   9 5.11790 1.42171   4 
  -2 -13  -9 118.378 4.68194   2 
  -2 -13  -9 124.248 4.16483   6 
  -2 -13  -9 125.169 4.98122   3 
   2  13   9 113.899 5.21903   4 
  -3 -13  -9 2.71631 0.70290   6 
  -3 -13  -9 3.78406 1.09306   3 
  -3 -13  -9 2.30835 0.98178   2 
   3  13   9 2.64459 1.22482   3 
   3  13   9 1.64909 1.30942   4 
  -4 -13  -9 45.9564 2.19017   6 
  -4 -13  -9 41.2210 2.54559   2 
  -4 -13  -9 41.5951 2.69753   3 
   4  13   9 40.4127 3.00982   4 
   4  13   9 50.6858 2.89406   3 
  -5 -13  -9 9.97142 1.07246   6 
  -5 -13  -9 14.4730 1.57807   2 
   5  13   9 10.5657 1.80557   4 
   5  13   9 12.0706 1.56486   3 
  -6 -13  -9 21.6707 1.55683   6 
  -6 -13  -9 21.2219 1.89097   2 
   6  13   9 21.9763 2.03889   3 
   6  13   9 18.7847 2.12989   4 
  -7 -13  -9 1.59975 0.72418   6 
  -7 -13  -9 -0.7744 0.78993   2 
   7  13   9 0.29399 0.92787   3 
   7  13   9 0.03148 1.10975   4 
  -8 -13  -9 53.8611 2.92411   2 
  -8 -13  -9 47.3196 2.49123   6 
   8  13   9 48.0111 3.31378   4 
   8  13   9 51.4408 3.00401   3 
  -9 -13  -9 -2.0921 0.80363   2 
   9  13   9 -0.0101 0.98504   3 
   9  13   9 -0.0324 1.19094   4 
  -1 -14  -9 7.23454 1.28219   2 
  -2 -14  -9 4.51235 1.21775   2 
  -3 -14  -9 21.1303 2.02191   3 
  -3 -14  -9 22.0781 1.95323   2 
   3  14   9 17.9178 2.14641   4 
   3  14   9 20.2087 2.04912   3 
  -4 -14  -9 8.70683 1.01969   6 
  -4 -14  -9 7.57905 1.36887   3 
  -4 -14  -9 8.75177 1.39177   2 
   4  14   9 6.82782 1.44903   3 
   4  14   9 5.97043 1.66217   4 
  -5 -14  -9 46.8201 2.30751   6 
  -5 -14  -9 46.8925 2.84544   2 
   5  14   9 48.2905 3.28667   4 
   5  14   9 50.4448 3.04778   3 
  -6 -14  -9 4.45900 0.84536   6 
  -6 -14  -9 2.25516 1.02850   2 
   6  14   9 3.94975 1.49868   4 
   6  14   9 3.49681 1.25529   3 
  -7 -14  -9 32.8849 1.95283   6 
   7  14   9 31.5901 2.77840   4 
   7  14   9 34.2668 2.50192   3 
  -8 -14  -9 0.98173 0.73817   6 
   8  14   9 1.01112 1.04270   3 
  -3  -9  10 24.1140 1.82470   5 
  -2  -9  10 6.68289 1.17385   5 
  -8  -8  10 89.0287 3.64030   6 
  -8  -8  10 93.8422 4.04308   1 
   7   8 -10 -0.1083 0.82706   2 
  -7  -8  10 -1.3360 0.63720   1 
  -7  -8  10 -0.7849 0.53550   6 
   6   8 -10 34.9624 2.46581   2 
  -6  -8  10 34.9362 2.31786   1 
  -6  -8  10 34.3746 2.13128   5 
  -6  -8  10 37.3069 1.97642   6 
   5   8 -10 43.1127 2.69798   2 
  -5  -8  10 42.3843 2.06680   6 
  -5  -8  10 40.9382 2.43919   1 
  -5  -8  10 39.3126 2.31829   5 
   4   8 -10 78.9093 3.74813   2 
  -4  -8  10 77.3354 3.38336   5 
  -4  -8  10 78.2692 3.52259   1 
  -4  -8  10 79.5316 2.98752   6 
   3   8 -10 -1.5842 0.71622   2 
  -3  -8  10 -0.4636 0.69272   1 
  -3  -8  10 -1.2918 0.59839   5 
  -3  -8  10 0.39436 0.51877   6 
   2   8 -10 105.795 4.47390   2 
  -2  -8  10 102.965 3.50990   6 
  -2  -8  10 113.447 4.39666   1 
  -2  -8  10 105.014 4.20357   5 
   1   8 -10 0.66793 0.83796   2 
   1   8 -10 1.32682 0.91158   1 
  -1  -8  10 -0.1689 0.69731   1 
  -1  -8  10 0.00007 0.38262   6 
  -1  -8  10 -0.5605 0.60179   5 
   0   8 -10 78.9735 3.66618   2 
   0  -8  10 75.4499 3.50309   5 
  10   7 -10 6.63476 1.24877   2 
   9   7 -10 12.7075 1.55811   2 
  -9  -7  10 16.0554 1.61031   1 
  -9  -7  10 12.1441 1.41012   6 
   8   7 -10 1.72003 0.95117   2 
  -8  -7  10 0.64342 0.86237   1 
  -8  -7  10 0.46506 0.71035   5 
  -8  -7  10 0.08547 0.72995   6 
   7   7 -10 112.143 4.56546   2 
  -7  -7  10 115.584 4.15636   6 
  -7  -7  10 107.359 4.18777   5 
  -7  -7  10 109.392 4.38009   1 
   6   7 -10 0.34198 0.91583   2 
  -6  -7  10 2.07805 0.75147   6 
  -6  -7  10 0.41607 0.79669   1 
  -6  -7  10 -0.0837 0.71903   5 
   5   7 -10 113.751 4.69204   2 
  -5  -7  10 118.301 4.07761   6 
  -5  -7  10 120.359 4.52764   1 
  -5  -7  10 116.128 4.37439   5 
   4   7 -10 8.17776 1.36767   2 
  -4  -7  10 8.55149 1.21973   5 
  -4  -7  10 9.90807 1.28588   1 
  -4  -7  10 10.1368 1.01490   6 
   3   7 -10 197.937 6.83645   2 
  -3  -7  10 197.516 6.51832   5 
  -3  -7  10 199.493 6.00328   6 
  -3  -7  10 206.257 6.68510   1 
   2   7 -10 -0.2759 0.73304   2 
  -2  -7  10 0.12286 0.42771   6 
  -2  -7  10 0.99627 0.77097   1 
  -2  -7  10 -0.4719 0.64925   5 
   1   7 -10 88.1669 3.84735   2 
  -1  -7  10 85.3194 3.64611   5 
  -1  -7  10 85.9625 3.01804   6 
  -1  -7  10 89.0630 3.73803   1 
   0   7 -10 9.53216 1.30014   2 
   0   7 -10 9.67630 1.37482   1 
   0  -7  10 10.1288 1.26662   1 
   0  -7  10 6.90207 1.14624   5 
   0  -7  10 9.98331 0.82461   6 
  -1   7 -10 61.0042 3.04382   2 
  -1   7 -10 63.0167 3.14374   1 
   1  -7  10 55.9556 2.19122   6 
   1  -7  10 57.9627 2.97329   5 
   2  -7  10 14.9662 1.55846   5 
  10   6 -10 17.2648 1.92747   3 
 -10  -6  10 19.3788 1.70925   1 
   9   6 -10 51.6356 3.07293   3 
   9   6 -10 47.4443 2.74324   2 
  -9  -6  10 50.0607 2.69818   1 
  -9  -6  10 46.4234 2.51447   5 
   8   6 -10 18.8898 1.76043   2 
  -8  -6  10 21.6204 1.68431   5 
  -8  -6  10 21.6834 1.83476   1 
  -8  -6  10 24.1272 1.78790   6 
   7   6 -10 1.57000 0.94607   2 
  -7  -6  10 1.26445 0.76013   6 
  -7  -6  10 1.01596 0.75493   5 
  -7  -6  10 3.04400 0.94685   1 
   6   6 -10 111.797 4.49481   2 
  -6  -6  10 115.165 4.31971   1 
  -6  -6  10 107.430 4.18850   5 
  -6  -6  10 118.778 4.11236   6 
   5   6 -10 14.7511 1.56649   2 
  -5  -6  10 16.6003 1.48457   1 
  -5  -6  10 16.1294 1.30199   6 
  -5  -6  10 13.6429 1.37431   5 
   4   6 -10 60.4355 3.02996   2 
  -4  -6  10 57.0874 2.79199   5 
  -4  -6  10 60.3917 2.49870   6 
  -4  -6  10 64.5028 2.91067   1 
   3   6 -10 61.7278 3.03203   2 
  -3  -6  10 61.7926 2.83630   1 
  -3  -6  10 57.8604 2.37645   6 
  -3  -6  10 57.7131 2.80128   5 
   2   6 -10 73.9901 3.40513   2 
  -2  -6  10 78.2541 2.81232   6 
  -2  -6  10 78.5919 3.29808   1 
  -2  -6  10 72.3892 3.20759   5 
   1   6 -10 -0.3114 0.62746   2 
  -1  -6  10 -0.3082 0.61640   1 
  -1  -6  10 -0.4261 0.32242   6 
  -1  -6  10 -0.1893 0.58392   5 
   0   6 -10 90.9087 3.83862   1 
   0   6 -10 93.9645 3.82561   2 
   0  -6  10 89.4087 3.68938   5 
   0  -6  10 92.3351 3.71107   1 
   0  -6  10 85.1511 3.03437   6 
  -1   6 -10 2.00434 0.95606   1 
  -1   6 -10 0.92461 0.78656   2 
   1  -6  10 2.51685 0.51746   6 
   1  -6  10 1.97831 0.51156   6 
   1  -6  10 1.48035 0.76515   5 
  -2   6 -10 73.0249 3.43652   1 
   2  -6  10 73.9813 3.39227   5 
  -3   6 -10 17.6299 1.71349   1 
   3  -6  10 16.0940 1.09035   6 
   3  -6  10 16.9221 1.62025   5 
  10   5 -10 8.35642 1.61537   3 
 -10  -5  10 9.63042 1.25965   5 
   9   5 -10 37.0477 2.34797   2 
   9   5 -10 41.2993 2.76486   3 
  -9  -5  10 37.3702 2.30491   1 
  -9  -5  10 34.0869 2.16858   5 
   8   5 -10 19.4110 1.76697   2 
   8   5 -10 23.8281 2.08180   3 
  -8  -5  10 20.5112 1.68882   6 
  -8  -5  10 22.0630 1.75757   1 
  -8  -5  10 20.8241 1.70385   5 
   7   5 -10 71.6644 3.26448   2 
  -7  -5  10 69.8369 3.08299   5 
  -7  -5  10 71.2401 3.03527   6 
  -7  -5  10 69.8761 3.11077   1 
   6   5 -10 9.22780 1.25960   2 
  -6  -5  10 9.60807 1.10587   6 
  -6  -5  10 5.62110 1.05329   5 
  -6  -5  10 7.62022 1.12809   1 
   5   5 -10 82.7163 3.60833   2 
  -5  -5  10 87.8822 3.27014   6 
  -5  -5  10 87.8088 3.47713   1 
  -5  -5  10 82.1139 3.44122   5 
   4   5 -10 55.9828 2.78741   2 
  -4  -5  10 52.1792 2.28500   6 
  -4  -5  10 52.4989 2.59323   5 
  -4  -5  10 51.9703 2.51115   1 
   3   5 -10 75.6338 3.38829   2 
  -3  -5  10 80.0924 2.91887   6 
  -3  -5  10 79.0729 3.28848   5 
  -3  -5  10 78.1759 3.21774   1 
   2   5 -10 -0.6262 0.62318   2 
  -2  -5  10 0.51367 0.63412   1 
  -2  -5  10 -0.5060 0.62899   5 
  -2  -5  10 -0.0408 0.42335   6 
   1   5 -10 121.831 4.56562   2 
  -1  -5  10 123.394 4.47490   5 
  -1  -5  10 121.362 3.95149   6 
  -1  -5  10 124.629 4.44914   1 
   0   5 -10 2.37633 0.86116   1 
   0   5 -10 2.12046 0.80825   2 
   0  -5  10 0.69885 0.44896   6 
   0  -5  10 1.23380 0.67420   1 
   0  -5  10 0.84248 0.70575   5 
  -1   5 -10 115.342 4.37711   1 
  -1   5 -10 117.990 4.33179   2 
   1  -5  10 108.664 3.62983   6 
   1  -5  10 111.739 4.26504   5 
  -2   5 -10 12.3111 1.40334   1 
  -2   5 -10 14.3048 1.37205   2 
   2  -5  10 11.7743 0.95171   6 
   2  -5  10 10.7278 0.89456   6 
   2  -5  10 12.4307 1.37054   5 
  -3   5 -10 106.837 4.23165   1 
   3  -5  10 100.475 4.10995   5 
   3  -5  10 95.7365 3.30869   6 
  -4   5 -10 41.0640 2.48208   1 
   4  -5  10 36.3911 1.70079   6 
   4  -5  10 39.5550 2.44498   5 
  10   4 -10 52.9659 3.15111   3 
 -10  -4  10 46.6957 2.59798   5 
   9   4 -10 23.3577 1.81463   2 
   9   4 -10 22.3107 2.09319   3 
  -9  -4  10 21.5536 1.78047   5 
   8   4 -10 10.4909 1.32447   2 
   8   4 -10 11.7794 1.60099   3 
  -8  -4  10 12.3690 1.29985   1 
  -8  -4  10 8.89890 1.17504   5 
   7   4 -10 2.71283 0.93507   2 
   7   4 -10 1.71010 0.99258   3 
  -7  -4  10 4.40622 0.94321   1 
  -7  -4  10 3.84442 0.92117   5 
  -7  -4  10 3.25155 0.83284   6 
   6   4 -10 70.2064 3.18405   2 
   6   4 -10 74.9946 3.22165   3 
  -6  -4  10 74.4306 2.96675   6 
  -6  -4  10 65.1645 2.99759   5 
  -6  -4  10 72.5694 3.05134   1 
   5   4 -10 3.61212 0.95690   2 
  -5  -4  10 3.70283 0.76222   6 
  -5  -4  10 2.88951 0.86202   5 
  -5  -4  10 3.51571 0.82660   1 
   4   4 -10 124.416 4.56270   2 
  -4  -4  10 122.608 4.11530   6 
  -4  -4  10 128.553 4.34506   1 
  -4  -4  10 117.641 4.36683   5 
   3   4 -10 13.0495 1.31436   2 
  -3  -4  10 13.4072 1.08697   6 
  -3  -4  10 11.2698 1.23311   5 
  -3  -4  10 11.8364 1.16951   1 
   2   4 -10 193.158 6.28615   2 
  -2  -4  10 193.447 6.06365   1 
  -2  -4  10 189.556 5.73168   6 
  -2  -4  10 190.182 6.17130   5 
   1   4 -10 1.54021 0.72521   2 
  -1  -4  10 1.15989 0.51152   6 
  -1  -4  10 1.05206 0.71884   5 
  -1  -4  10 1.65462 0.71822   1 
   0   4 -10 140.672 4.96639   1 
   0   4 -10 142.244 4.96369   2 
   0  -4  10 142.620 4.93492   5 
   0  -4  10 140.878 4.43913   6 
   0  -4  10 146.397 4.89117   1 
  -1   4 -10 2.28319 0.82608   1 
  -1   4 -10 4.45134 0.90765   2 
   1  -4  10 3.00091 0.59150   6 
   1  -4  10 2.83839 0.86691   5 
  -2   4 -10 84.3165 3.34533   2 
  -2   4 -10 81.0648 3.43543   1 
   2  -4  10 76.4883 2.77639   6 
   2  -4  10 81.8375 3.38389   5 
   2  -4  10 74.6552 2.76714   6 
  -3   4 -10 38.7508 2.37307   1 
  -3   4 -10 41.7542 2.23636   2 
   3  -4  10 42.2951 2.36394   5 
   3  -4  10 40.2671 1.79413   6 
  -4   4 -10 88.2883 3.69097   1 
   4  -4  10 81.7983 3.59940   5 
   4  -4  10 77.8114 2.89382   6 
  -5   4 -10 39.1566 2.42803   1 
   5  -4  10 36.7501 2.33225   5 
   5  -4  10 37.1511 1.78397   6 
  10   3 -10 19.7085 2.01292   3 
 -10  -3  10 17.3859 1.58222   5 
   9   3 -10 51.1731 2.98294   3 
  -9  -3  10 40.5451 2.41262   5 
   8   3 -10 5.27927 1.25966   3 
   8   3 -10 4.41116 0.98451   2 
  -8  -3  10 4.88404 0.97469   5 
   7   3 -10 85.3190 3.55831   3 
   7   3 -10 71.1346 3.24210   2 
  -7  -3  10 78.6528 3.12306   1 
  -7  -3  10 70.1441 3.17494   5 
   6   3 -10 -0.3073 0.68360   2 
   6   3 -10 -0.5030 0.71322   3 
  -6  -3  10 -0.3005 0.59571   5 
  -6  -3  10 0.16327 0.58616   1 
  -6  -3  10 0.13498 0.54921   6 
   5   3 -10 84.0911 3.48880   2 
  -5  -3  10 89.8190 3.29026   6 
  -5  -3  10 84.1644 3.39535   5 
  -5  -3  10 87.3880 3.27480   1 
   4   3 -10 1.48364 0.77601   2 
  -4  -3  10 1.50393 0.72198   5 
  -4  -3  10 2.23953 0.72453   1 
  -4  -3  10 1.51309 0.59470   6 
   3   3 -10 52.5886 2.54989   2 
  -3  -3  10 53.5869 2.23420   6 
  -3  -3  10 49.6127 2.46091   5 
  -3  -3  10 53.3600 2.35395   1 
   2   3 -10 57.7017 2.66881   2 
  -2  -3  10 59.4636 2.50793   1 
  -2  -3  10 53.8014 2.58666   5 
  -2  -3  10 55.5389 2.28576   6 
   1   3 -10 285.502 8.43531   2 
  -1  -3  10 282.948 8.24064   1 
  -1  -3  10 271.251 8.34631   5 
  -1  -3  10 284.215 7.96127   6 
   0   3 -10 7.96740 1.09160   1 
   0   3 -10 10.6127 1.13746   2 
   0  -3  10 10.1559 0.87396   6 
   0  -3  10 9.53196 1.09999   5 
   0  -3  10 10.2290 1.08627   1 
  -1   3 -10 286.995 8.63645   1 
  -1   3 -10 298.853 8.64372   2 
   1  -3  10 288.121 8.13824   6 
   1  -3  10 286.692 8.65030   5 
  -2   3 -10 12.3712 1.20498   2 
  -2   3 -10 11.6108 1.25855   1 
   2  -3  10 11.2255 1.22196   5 
   2  -3  10 13.1616 1.02079   6 
  -3   3 -10 95.6901 3.52545   2 
  -3   3 -10 84.7111 3.59788   1 
   3  -3  10 87.4333 3.06709   6 
   3  -3  10 87.6472 3.58326   5 
  -4   3 -10 99.2255 4.06241   1 
   4  -3  10 108.828 4.14264   5 
   4  -3  10 104.030 3.50442   6 
  -5   3 -10 65.3080 3.09754   1 
   5  -3  10 59.5921 3.01776   5 
   5  -3  10 60.7922 2.44533   6 
  -6   3 -10 0.03166 0.79232   1 
   6  -3  10 2.37861 0.63982   6 
   6  -3  10 0.67452 0.87636   5 
   6  -3  10 -0.5663 0.94388   4 
   7  -3  10 142.332 5.84316   4 
  10   2 -10 33.7298 2.54441   3 
 -10  -2  10 25.1051 1.95924   5 
   9   2 -10 3.93513 1.21272   3 
  -9  -2  10 4.16659 0.97746   5 
   8   2 -10 24.0399 2.11767   3 
   8   2 -10 24.6109 1.77224   2 
  -8  -2  10 22.4407 1.74948   5 
   7   2 -10 1.25128 0.76726   2 
   7   2 -10 0.89764 0.86796   3 
  -7  -2  10 1.43274 0.78041   5 
   6   2 -10 134.855 4.85068   2 
   6   2 -10 145.564 5.01693   3 
  -6  -2  10 153.060 4.69326   1 
  -6  -2  10 132.611 4.84144   5 
   5   2 -10 1.03853 0.71271   3 
   5   2 -10 -0.3728 0.61675   2 
  -5  -2  10 1.09753 0.59136   1 
  -5  -2  10 0.47817 0.54374   6 
  -5  -2  10 -0.5441 0.56528   5 
   4   2 -10 179.801 5.88399   2 
  -4  -2  10 185.367 5.59865   1 
  -4  -2  10 190.802 5.63824   6 
  -4  -2  10 172.060 5.79730   5 
   3   2 -10 -0.3204 0.60443   2 
  -3  -2  10 -0.1166 0.49788   1 
  -3  -2  10 -0.1267 0.45504   6 
  -3  -2  10 -1.4818 0.52925   5 
   2   2 -10 203.608 6.36301   2 
  -2  -2  10 206.119 5.99939   6 
  -2  -2  10 196.124 6.28679   5 
  -2  -2  10 199.400 6.07478   1 
   1   2 -10 139.790 4.70241   2 
  -1  -2  10 137.055 4.48307   1 
  -1  -2  10 141.896 4.35712   6 
  -1  -2  10 128.865 4.60962   5 
   0   2 -10 69.5160 2.95305   2 
   0   2 -10 73.9040 2.94777   1 
   0  -2  10 70.9341 2.96102   5 
   0  -2  10 72.6124 2.65207   6 
   0  -2  10 72.6378 2.87065   1 
  -1   2 -10 29.9864 1.79952   1 
  -1   2 -10 30.0760 1.79471   2 
   1  -2  10 28.7620 1.52264   6 
   1  -2  10 27.7757 1.75158   5 
  -2   2 -10 102.674 3.70554   2 
  -2   2 -10 100.847 3.76599   1 
   2  -2  10 97.2455 3.34184   6 
   2  -2  10 98.6865 3.74722   5 
  -3   2 -10 74.4737 3.23869   1 
  -3   2 -10 81.3793 3.16555   2 
   3  -2  10 84.1041 3.45296   4 
   3  -2  10 78.0947 3.25027   5 
   3  -2  10 78.7295 2.85238   6 
   3  -2  10 78.6844 2.84169   6 
  -4   2 -10 173.849 5.39575   2 
  -4   2 -10 159.567 5.53787   1 
   4  -2  10 159.376 5.00853   6 
   4  -2  10 162.315 5.54210   5 
   4  -2  10 164.900 5.76738   4 
  -5   2 -10 17.2766 1.55336   1 
   5  -2  10 19.2727 1.26467   6 
   5  -2  10 18.3785 1.63124   5 
  -6   2 -10 87.5028 3.70412   1 
   6  -2  10 82.4060 3.12509   6 
   6  -2  10 86.8914 4.05962   4 
   6  -2  10 84.3472 3.65583   5 
  -7   2 -10 2.89669 0.95081   1 
   7  -2  10 4.41359 1.10864   5 
   7  -2  10 2.19272 0.68035   6 
   7  -2  10 3.42716 1.18418   4 
   8  -2  10 47.6374 3.22536   4 
  10   1 -10 6.64915 1.46473   3 
 -10  -1  10 6.30544 1.12348   5 
   9   1 -10 43.5503 2.72583   3 
  -9  -1  10 36.7456 2.31448   5 
   8   1 -10 10.6896 1.48231   3 
  -8  -1  10 11.5756 1.28325   5 
   7   1 -10 71.2486 3.02774   2 
   7   1 -10 80.0771 3.44992   3 
  -7  -1  10 64.2487 3.07056   5 
   6   1 -10 -0.2309 0.62046   2 
   6   1 -10 0.24617 0.75262   3 
  -6  -1  10 -0.6438 0.67583   5 
   5   1 -10 89.4819 3.54728   2 
   5   1 -10 98.5210 3.65249   3 
  -5  -1  10 94.6039 3.43738   6 
  -5  -1  10 91.1135 3.59682   5 
  -5  -1  10 95.0548 3.28910   1 
   4   1 -10 2.52176 0.78760   2 
   4   1 -10 3.63898 0.76990   3 
  -4  -1  10 1.90971 0.62336   6 
  -4  -1  10 3.76205 0.70456   1 
  -4  -1  10 2.92240 0.78994   5 
   3   1 -10 282.594 8.37136   2 
  -3  -1  10 287.720 8.10958   6 
  -3  -1  10 271.869 8.32694   5 
  -3  -1  10 295.193 8.06048   1 
   2   1 -10 57.0967 2.60671   2 
  -2  -1  10 65.1121 2.44915   6 
  -2  -1  10 61.2815 2.42359   1 
  -2  -1  10 57.6391 2.62308   5 
   1   1 -10 318.846 9.34333   2 
  -1  -1  10 338.717 9.14402   1 
  -1  -1  10 315.716 9.33587   5 
  -1  -1  10 327.508 9.05798   6 
   0   1 -10 132.429 4.51561   2 
   0   1 -10 132.933 4.40797   1 
   0  -1  10 128.203 4.49235   5 
   0  -1  10 137.819 4.25460   6 
   0  -1  10 135.189 4.34692   1 
  -1   1 -10 152.719 5.03562   2 
  -1   1 -10 151.613 4.99524   1 
   1  -1  10 148.295 5.04478   5 
   1  -1  10 156.233 4.79563   6 
   1  -1  10 166.258 5.06212   4 
  -2   1 -10 93.5913 3.38503   1 
  -2   1 -10 84.6616 3.27651   2 
   2  -1  10 83.0389 3.30696   5 
   2  -1  10 92.0178 3.08041   6 
   2  -1  10 84.7596 3.36293   4 
  -3   1 -10 17.6765 1.39187   2 
  -3   1 -10 15.5061 1.32361   1 
   3  -1  10 15.8310 1.12896   6 
   3  -1  10 14.0538 1.26051   5 
   3  -1  10 16.1397 1.54153   4 
   3  -1  10 14.3211 1.11100   6 
  -4   1 -10 30.9124 1.81876   2 
  -4   1 -10 32.6890 1.94088   1 
   4  -1  10 31.9026 1.91877   5 
   4  -1  10 32.9017 2.18664   4 
   4  -1  10 30.2289 1.59452   6 
  -5   1 -10 111.973 4.20096   1 
   5  -1  10 108.767 4.50038   4 
   5  -1  10 113.043 3.75635   6 
   5  -1  10 109.828 4.15731   5 
  -6   1 -10 4.63172 0.97396   1 
   6  -1  10 4.73641 1.21318   4 
   6  -1  10 5.25470 0.78412   6 
   6  -1  10 4.32817 1.00772   5 
  -7   1 -10 95.8083 3.95116   1 
   7  -1  10 97.0164 4.02025   5 
   7  -1  10 100.833 3.57744   6 
   7  -1  10 94.2580 4.42198   4 
  -8   1 -10 3.26644 0.96215   1 
   8  -1  10 2.03451 1.12410   4 
   8  -1  10 2.97394 0.76005   6 
   8  -1  10 3.10442 0.98638   5 
  10   0 -10 60.1456 3.43081   3 
 -10   0  10 56.4024 2.99658   5 
   9   0 -10 5.57246 1.32661   3 
  -9   0  10 4.13145 1.09389   5 
   8   0 -10 19.6812 1.83283   3 
  -8   0  10 14.8843 1.50606   5 
   7   0 -10 44.1389 2.56680   3 
   7   0 -10 43.5696 2.20462   2 
  -7   0  10 42.4831 2.36344   5 
   6   0 -10 119.927 4.27276   2 
   6   0 -10 129.558 4.55827   3 
  -6   0  10 118.149 4.42245   5 
   5   0 -10 13.0960 1.29345   3 
   5   0 -10 13.2314 1.20879   2 
  -5   0  10 13.3401 1.26405   5 
   4   0 -10 187.368 5.69929   3 
   4   0 -10 174.797 5.68284   2 
  -4   0  10 185.907 5.32566   1 
  -4   0  10 166.122 5.68818   5 
  -4   0  10 184.764 5.56092   6 
   3   0 -10 5.65655 0.81857   3 
   3   0 -10 6.15053 0.91324   2 
  -3   0  10 5.43979 0.72310   1 
  -3   0  10 4.11945 0.81752   5 
  -3   0  10 5.39568 0.75920   6 
   2   0 -10 184.238 5.81044   2 
  -2   0  10 192.036 5.60871   6 
  -2   0  10 176.120 5.75532   5 
  -2   0  10 187.979 5.47121   1 
   1   0 -10 149.295 4.89845   2 
   1   0 -10 149.388 4.67074   1 
  -1   0  10 144.368 4.86413   5 
  -1   0  10 151.795 4.64096   1 
  -1   0  10 155.052 4.69972   6 
   0   0 -10 195.538 6.00708   1 
   0   0 -10 198.562 6.17796   2 
   0   0  10 207.009 6.01227   1 
   0   0  10 202.869 6.11064   4 
   0   0  10 205.105 5.97991   6 
   0   0  10 202.115 6.21226   5 
  -1   0 -10 0.54104 0.55630   1 
  -1   0 -10 -0.5771 0.52656   2 
   1   0  10 0.10355 0.44127   6 
   1   0  10 0.10013 0.59058   4 
   1   0  10 -0.1452 0.54453   5 
  -2   0 -10 323.552 9.36491   1 
  -2   0 -10 320.001 9.38461   2 
   2   0  10 338.908 9.20769   6 
   2   0  10 329.901 9.44652   5 
   2   0  10 339.463 9.62049   4 
  -3   0 -10 5.34157 0.83607   2 
  -3   0 -10 3.29967 0.79040   1 
   3   0  10 5.42058 0.72404   6 
   3   0  10 3.76895 0.66159   6 
   3   0  10 2.89264 0.76043   5 
   3   0  10 3.18854 0.91276   4 
  -4   0 -10 116.358 4.25519   1 
  -4   0 -10 127.354 4.21938   2 
   4   0  10 124.289 4.30613   5 
   4   0  10 120.287 4.58850   4 
   4   0  10 126.247 4.03664   6 
  -5   0 -10 -0.6737 0.53562   1 
  -5   0 -10 0.03578 0.55740   2 
   5   0  10 -0.4391 0.60647   5 
   5   0  10 0.37885 0.82871   4 
   5   0  10 0.42048 0.49194   6 
  -6   0 -10 60.6483 2.82260   1 
   6   0  10 60.2888 2.51827   6 
   6   0  10 63.8609 2.87645   5 
   6   0  10 58.9431 3.22414   4 
  -7   0 -10 10.6737 1.26375   1 
   7   0  10 8.71498 1.23320   5 
   7   0  10 8.64921 0.99773   6 
   7   0  10 9.82462 1.58282   4 
  -8   0 -10 34.7064 2.19666   1 
   8   0  10 36.7070 2.30600   5 
   8   0  10 32.2450 2.64874   4 
   8   0  10 35.4093 1.94263   6 
   9   0  10 0.77511 0.84579   5 
  10  -1 -10 -1.0329 0.93438   3 
   9  -1 -10 52.3665 3.07008   3 
  -9   1  10 46.6178 2.69926   5 
   8  -1 -10 37.7566 2.50488   3 
  -8   1  10 34.0951 2.19501   5 
   7  -1 -10 74.2724 3.38295   3 
  -7   1  10 64.6360 3.07136   5 
   6  -1 -10 -0.0433 0.74673   3 
   6  -1 -10 0.69717 0.66467   2 
  -6   1  10 0.28012 0.66052   5 
   5  -1 -10 216.364 6.72544   2 
   5  -1 -10 230.367 6.96896   3 
  -5   1  10 218.713 6.90802   5 
   4  -1 -10 17.8218 1.45606   3 
   4  -1 -10 16.4926 1.33180   2 
  -4   1  10 12.7229 1.23318   5 
   3  -1 -10 71.4336 2.77589   3 
   3  -1 -10 68.3916 2.83682   2 
  -3   1  10 69.2103 2.89941   5 
  -3   1  10 77.2139 2.75206   6 
   2  -1 -10 80.7740 2.93007   3 
   2  -1 -10 83.2421 3.17684   2 
  -2   1  10 86.8876 3.01323   6 
  -2   1  10 86.8776 3.15889   4 
  -2   1  10 78.5485 3.14145   5 
  -2   1  10 85.7143 2.81450   1 
   1  -1 -10 70.1017 2.88579   2 
   1  -1 -10 73.1336 2.64463   1 
  -1   1  10 71.9562 2.88915   5 
  -1   1  10 75.8123 2.90709   4 
  -1   1  10 75.7483 2.74393   6 
  -1   1  10 77.4141 2.61703   1 
   0  -1 -10 25.2164 1.58992   2 
   0  -1 -10 24.1559 1.41081   1 
   0   1  10 25.4075 1.61463   4 
   0   1  10 23.5700 1.56646   5 
   0   1  10 28.5665 1.48084   6 
  -1  -1 -10 600.314 16.4333   2 
  -1  -1 -10 598.838 16.2262   1 
   1   1  10 606.672 16.4290   5 
   1   1  10 628.567 16.6118   4 
   1   1  10 631.210 16.2864   6 
  -2  -1 -10 8.35461 0.97366   2 
  -2  -1 -10 10.5414 0.98262   1 
   2   1  10 9.34431 1.13818   4 
   2   1  10 11.6352 1.08038   5 
   2   1  10 11.0077 0.94691   6 
  -3  -1 -10 76.4206 2.86429   2 
  -3  -1 -10 67.1337 2.74742   1 
   3   1  10 72.7748 2.65802   6 
   3   1  10 67.8571 3.06126   4 
   3   1  10 67.5221 2.59865   6 
   3   1  10 69.4029 2.79750   5 
  -4  -1 -10 25.5580 1.62275   1 
  -4  -1 -10 29.4560 1.66220   2 
   4   1  10 24.5377 1.92564   4 
   4   1  10 25.9042 1.47712   6 
   4   1  10 28.3058 1.69323   5 
  -5  -1 -10 155.645 5.20939   1 
  -5  -1 -10 166.424 5.12468   2 
   5   1  10 159.447 4.97685   6 
   5   1  10 152.972 5.66905   4 
   5   1  10 158.316 5.20895   5 
  -6  -1 -10 2.61641 0.79542   1 
   6   1  10 2.99608 0.73060   6 
   6   1  10 2.82301 0.87881   5 
   6   1  10 1.42692 1.03058   4 
  -7  -1 -10 140.917 4.84709   1 
   7   1  10 128.784 5.35365   4 
   7   1  10 137.467 4.54992   6 
   7   1  10 133.729 4.77517   5 
  -8  -1 -10 2.03784 0.86576   1 
   8   1  10 1.17459 0.83156   5 
   8   1  10 1.49832 0.67592   6 
   8   1  10 0.37568 1.07536   4 
  -9  -1 -10 38.2435 2.29777   1 
   9   1  10 42.1026 2.46977   5 
   9   1  10 42.5335 2.21133   6 
   9   1  10 37.2075 2.96996   4 
   9  -2 -10 0.21328 1.09813   3 
  -9   2  10 1.19780 0.83230   5 
   8  -2 -10 67.5634 3.38002   3 
  -8   2  10 57.6503 3.00165   5 
   7  -2 -10 34.7659 2.35130   3 
  -7   2  10 31.8591 2.09554   5 
   6  -2 -10 112.582 4.25416   3 
   6  -2 -10 105.289 3.77595   2 
  -6   2  10 100.549 4.00383   5 
   5  -2 -10 8.24371 1.00761   2 
   5  -2 -10 10.3074 1.22928   3 
  -5   2  10 8.71185 1.12185   5 
   4  -2 -10 224.738 6.76429   3 
   4  -2 -10 213.336 6.60575   2 
  -4   2  10 223.761 6.75486   4 
  -4   2  10 214.767 6.77325   5 
   3  -2 -10 1.01133 0.61016   3 
   3  -2 -10 0.33253 0.55822   2 
  -3   2  10 0.01069 0.58700   5 
  -3   2  10 0.67274 0.61113   4 
   2  -2 -10 26.1521 1.58240   2 
   2  -2 -10 25.8426 1.50968   3 
  -2   2  10 26.6154 1.65531   5 
  -2   2  10 28.2989 1.71635   4 
   1  -2 -10 161.984 4.91548   3 
   1  -2 -10 166.695 4.82789   1 
   1  -2 -10 156.237 5.15248   2 
  -1   2  10 165.836 5.04433   6 
  -1   2  10 165.386 5.20285   5 
  -1   2  10 170.011 5.31642   4 
   0  -2 -10 52.0243 2.37108   2 
   0  -2 -10 56.5840 2.16514   1 
   0   2  10 55.2156 2.53539   4 
   0   2  10 59.2812 2.42675   5 
   0   2  10 59.5697 2.28029   6 
  -1  -2 -10 0.90363 0.60600   2 
  -1  -2 -10 0.82340 0.49838   1 
   1   2  10 0.65420 0.57344   5 
   1   2  10 1.13840 0.52199   6 
   1   2  10 1.02517 0.69313   4 
  -2  -2 -10 315.083 8.69382   1 
  -2  -2 -10 302.882 8.81995   2 
   2   2  10 300.902 9.14304   4 
   2   2  10 312.821 8.84019   5 
   2   2  10 318.043 8.72162   6 
  -3  -2 -10 27.5654 1.66395   2 
  -3  -2 -10 29.4537 1.62610   1 
   3   2  10 31.7132 1.70444   5 
   3   2  10 28.4622 1.96650   4 
   3   2  10 29.7981 1.58823   6 
   3   2  10 31.6632 1.58603   6 
  -4  -2 -10 20.0642 1.42280   2 
  -4  -2 -10 20.6300 1.42328   1 
   4   2  10 22.3664 1.50137   5 
   4   2  10 23.0258 1.41004   6 
   4   2  10 22.3244 1.81622   4 
  -5  -2 -10 68.7498 2.82146   1 
  -5  -2 -10 77.5345 2.88650   2 
   5   2  10 66.8558 3.33146   4 
   5   2  10 70.3121 2.71266   6 
   5   2  10 66.7149 2.79391   5 
  -6  -2 -10 171.421 5.17691   2 
  -6  -2 -10 152.397 5.22726   1 
   6   2  10 165.840 5.28731   5 
   6   2  10 151.381 5.85522   4 
   6   2  10 160.178 5.11068   6 
  -7  -2 -10 14.8704 1.35963   1 
   7   2  10 12.8692 1.71863   4 
   7   2  10 17.9153 1.36062   6 
   7   2  10 18.4391 1.55799   5 
  -8  -2 -10 101.821 3.87690   1 
   8   2  10 102.663 3.89814   5 
   8   2  10 99.2199 3.70482   6 
   8   2  10 91.0681 4.46643   4 
  -9  -2 -10 2.94099 0.92082   1 
   9   2  10 1.88404 1.23177   4 
   9   2  10 3.01749 0.84319   6 
   9   2  10 4.35984 1.07262   5 
  10   2  10 15.0537 1.42953   6 
  10   2  10 15.0327 1.54000   5 
   9  -3 -10 79.4213 3.91914   3 
  -9   3  10 74.4448 3.54506   5 
   8  -3 -10 1.18972 1.06387   3 
  -8   3  10 0.83913 0.84834   5 
   7  -3 -10 42.7186 2.62284   3 
  -7   3  10 38.6566 2.36092   5 
   6  -3 -10 45.7767 2.55682   3 
  -6   3  10 40.0198 2.32474   5 
   5  -3 -10 163.290 5.33440   2 
   5  -3 -10 184.189 5.84662   3 
   5  -3 -10 167.713 5.47503   6 
  -5   3  10 171.113 5.76803   4 
  -5   3  10 165.839 5.61487   5 
   4  -3 -10 0.16494 0.52796   6 
   4  -3 -10 -0.3426 0.55256   2 
   4  -3 -10 -1.1849 0.65928   3 
  -4   3  10 1.31354 0.73132   4 
  -4   3  10 -0.6779 0.55570   5 
   3  -3 -10 237.627 7.13619   3 
   3  -3 -10 231.770 7.03465   2 
   3  -3 -10 244.473 7.04084   6 
  -3   3  10 232.551 7.17773   5 
  -3   3  10 242.127 7.32044   4 
   2  -3 -10 19.4879 1.32505   6 
   2  -3 -10 20.5865 1.40872   2 
   2  -3 -10 19.7813 1.40611   3 
  -2   3  10 22.8706 1.49638   5 
  -2   3  10 20.0597 1.58369   4 
   1  -3 -10 67.4573 2.75177   2 
   1  -3 -10 70.0262 2.64954   3 
  -1   3  10 73.1977 3.00748   4 
  -1   3  10 70.3391 2.76494   5 
   0  -3 -10 144.810 4.24932   1 
   0  -3 -10 138.470 4.62931   2 
   0  -3 -10 142.098 4.38623   3 
   0   3  10 146.732 4.51370   6 
   0   3  10 143.900 4.89674   4 
   0   3  10 144.307 4.60966   5 
  -1  -3 -10 148.628 4.90452   2 
  -1  -3 -10 152.059 4.57378   1 
   1   3  10 159.350 4.89027   5 
   1   3  10 159.914 4.81837   6 
   1   3  10 149.929 5.17537   4 
  -2  -3 -10 8.66123 0.96017   2 
  -2  -3 -10 8.49529 0.81682   1 
   2   3  10 8.13601 0.83859   6 
   2   3  10 7.71461 0.91645   5 
   2   3  10 8.50595 1.17555   4 
  -3  -3 -10 243.938 7.35294   2 
  -3  -3 -10 242.112 7.17451   1 
   3   3  10 263.454 7.27276   6 
   3   3  10 257.811 7.32875   5 
   3   3  10 258.237 7.27256   6 
   3   3  10 242.557 7.81984   4 
  -4  -3 -10 21.1817 1.48979   2 
  -4  -3 -10 19.9752 1.35424   1 
   4   3  10 23.0928 1.49234   5 
   4   3  10 21.3651 1.37984   6 
   4   3  10 21.9568 1.85149   4 
  -5  -3 -10 109.384 3.87915   1 
  -5  -3 -10 119.151 3.96116   2 
   5   3  10 106.216 4.47734   4 
   5   3  10 117.722 3.89483   6 
   5   3  10 118.141 3.94808   5 
  -6  -3 -10 13.4731 1.18127   2 
  -6  -3 -10 13.6222 1.21008   1 
   6   3  10 15.6215 1.25825   6 
   6   3  10 11.5396 1.15792   5 
   6   3  10 14.2715 1.70250   4 
  -7  -3 -10 173.655 5.64025   1 
   7   3  10 181.442 5.66593   5 
   7   3  10 169.742 6.43111   4 
   7   3  10 175.322 5.55442   6 
  -8  -3 -10 10.0091 1.17905   1 
   8   3  10 7.52367 1.52331   4 
   8   3  10 7.84481 1.14919   5 
   8   3  10 9.31868 1.12600   6 
   9   3  10 78.1288 3.17200   6 
   9   3  10 65.0947 3.85969   4 
   9   3  10 76.5639 3.24064   5 
 -10  -3 -10 4.31298 0.99455   1 
  10   3  10 4.10582 0.94070   6 
  10   3  10 4.38578 1.53303   4 
   8  -4 -10 79.7887 3.83459   3 
  -8   4  10 70.3871 3.44781   5 
   7  -4 -10 0.04309 0.83368   3 
   7  -4 -10 -0.2126 0.66493   6 
  -7   4  10 -0.4011 0.74533   5 
   6  -4 -10 110.088 4.07324   6 
   6  -4 -10 115.722 4.50623   3 
  -6   4  10 112.743 4.30227   5 
  -6   4  10 108.946 4.45498   4 
   5  -4 -10 13.8689 1.24838   6 
   5  -4 -10 16.1775 1.57032   3 
   5  -4 -10 14.2185 1.28693   2 
  -5   4  10 18.5709 1.72248   4 
  -5   4  10 17.7051 1.56067   5 
   4  -4 -10 248.394 7.57309   3 
   4  -4 -10 252.561 7.32633   6 
   4  -4 -10 242.359 7.22310   2 
  -4   4  10 233.699 7.41711   5 
  -4   4  10 248.079 7.69989   4 
   3  -4 -10 3.52143 0.77375   2 
   3  -4 -10 4.08010 0.74081   6 
   3  -4 -10 4.56195 0.93812   3 
  -3   4  10 3.63446 0.89571   4 
  -3   4  10 4.31978 0.87614   5 
   2  -4 -10 134.425 4.43432   6 
   2  -4 -10 135.849 4.54883   3 
   2  -4 -10 138.383 4.51236   2 
  -2   4  10 140.940 4.59796   5 
  -2   4  10 135.182 4.83700   4 
   1  -4 -10 7.45383 0.89417   3 
   1  -4 -10 7.45677 0.91705   2 
   1  -4 -10 7.65970 0.83474   6 
  -1   4  10 8.75849 0.94912   5 
  -1   4  10 7.67892 1.11493   4 
   0  -4 -10 101.653 3.65610   2 
   0  -4 -10 105.738 3.54470   3 
   0  -4 -10 106.848 3.59895   6 
   0   4  10 105.245 4.00089   4 
   0   4  10 107.180 3.62887   5 
  -1  -4 -10 7.92557 0.71344   1 
  -1  -4 -10 8.23360 0.96179   2 
   1   4  10 8.13515 1.17272   4 
   1   4  10 7.88160 0.89274   5 
  -2  -4 -10 208.463 6.38214   2 
  -2  -4 -10 208.742 6.02355   1 
   2   4  10 223.879 6.30104   6 
   2   4  10 205.591 6.79404   4 
   2   4  10 215.523 6.29438   5 
  -3  -4 -10 52.6333 2.36998   2 
   3   4  10 49.9559 2.75202   4 
   3   4  10 57.6903 2.29058   6 
   3   4  10 57.3621 2.35550   5 
   3   4  10 54.8198 2.24253   6 
  -4  -4 -10 241.261 7.10835   2 
  -4  -4 -10 230.845 6.88298   1 
   4   4  10 232.107 7.68689   4 
   4   4  10 242.275 6.98507   5 
   4   4  10 253.337 7.05634   6 
  -5  -4 -10 29.5803 1.73705   2 
  -5  -4 -10 29.8968 1.65185   1 
   5   4  10 25.6517 2.11301   4 
   5   4  10 32.0797 1.70079   6 
   5   4  10 31.9988 1.70371   5 
  -6  -4 -10 241.606 7.14119   1 
  -6  -4 -10 245.812 7.18342   2 
   6   4  10 248.086 7.19158   6 
   6   4  10 247.496 7.13545   5 
   6   4  10 222.645 7.88578   4 
  -7  -4 -10 0.03153 0.62331   2 
  -7  -4 -10 -0.1766 0.64037   1 
   7   4  10 0.18947 0.59977   6 
   7   4  10 0.28087 0.65440   5 
   7   4  10 -0.9549 1.03690   4 
  -8  -4 -10 162.117 5.28782   1 
   8   4  10 164.651 5.28474   6 
   8   4  10 146.273 6.03555   4 
  -9  -4 -10 0.32721 0.66780   1 
   9   4  10 -0.2784 1.09717   4 
 -10  -4 -10 10.3971 1.26884   1 
  10   4  10 11.8101 1.82135   4 
   8  -5 -10 -0.8152 0.94500   3 
   8  -5 -10 -0.8101 0.60012   6 
  -8   5  10 -0.5857 0.77103   5 
   7  -5 -10 28.5585 2.28377   3 
   7  -5 -10 28.0016 1.85987   6 
  -7   5  10 26.6048 2.04927   5 
  -7   5  10 27.0532 2.23798   4 
   6  -5 -10 34.5495 2.41369   3 
   6  -5 -10 32.6326 1.93511   6 
  -6   5  10 32.1443 2.31882   4 
  -6   5  10 27.1763 2.01215   5 
   5  -5 -10 113.140 4.08436   6 
   5  -5 -10 118.799 4.56965   3 
  -5   5  10 114.462 4.62460   4 
  -5   5  10 116.486 4.35513   5 
   4  -5 -10 0.07927 0.67413   2 
   4  -5 -10 0.78481 0.81230   3 
   4  -5 -10 2.33255 0.68170   6 
  -4   5  10 1.98477 0.79662   5 
  -4   5  10 1.56987 0.94321   4 
   3  -5 -10 146.466 4.91541   2 
   3  -5 -10 165.561 5.35990   3 
   3  -5 -10 155.069 4.98795   6 
  -3   5  10 156.253 5.16231   5 
  -3   5  10 155.771 5.49953   4 
   2  -5 -10 60.0367 2.51379   2 
   2  -5 -10 59.1650 2.46871   6 
   2  -5 -10 57.4338 2.65466   3 
  -2   5  10 59.9667 2.56565   5 
  -2   5  10 59.3404 2.87282   4 
   1  -5 -10 87.7673 3.26370   2 
   1  -5 -10 88.1029 3.33721   3 
   1  -5 -10 93.7491 3.26930   6 
  -1   5  10 87.9840 3.64799   4 
  -1   5  10 90.3468 3.28750   5 
   0  -5 -10 113.732 3.93056   2 
   0  -5 -10 115.197 3.92693   3 
   0  -5 -10 120.536 3.89871   6 
   0   5  10 111.843 4.32751   4 
   0   5  10 115.959 3.88953   5 
  -1  -5 -10 50.5054 2.27529   2 
  -1  -5 -10 49.5096 2.12493   3 
  -1  -5 -10 53.5663 2.21732   6 
   1   5  10 48.5919 2.60560   4 
   1   5  10 49.9101 2.19628   5 
  -2  -5 -10 28.7299 1.58339   6 
  -2  -5 -10 28.7346 1.33774   1 
  -2  -5 -10 27.1860 1.64867   2 
   2   5  10 27.1069 2.06748   4 
   2   5  10 30.7482 1.63167   5 
  -3  -5 -10 210.506 5.82073   1 
  -3  -5 -10 198.614 6.15847   2 
   3   5  10 208.858 6.01447   5 
   3   5  10 192.077 6.66741   4 
  -4  -5 -10 5.10823 0.85390   2 
  -4  -5 -10 5.30331 0.74278   1 
   4   5  10 4.70533 1.15596   4 
   4   5  10 5.97491 0.79813   5 
  -5  -5 -10 38.3029 1.96736   2 
  -5  -5 -10 37.3196 1.80286   1 
   5   5  10 35.1608 2.41985   4 
   5   5  10 37.2938 1.82489   5 
  -6  -5 -10 28.0803 1.64591   1 
  -6  -5 -10 27.0361 1.69163   2 
   6   5  10 25.6303 2.24849   4 
   6   5  10 33.3693 1.71000   5 
  -7  -5 -10 155.034 4.95518   2 
  -7  -5 -10 148.020 4.89753   1 
   7   5  10 148.537 5.81828   4 
  -8  -5 -10 19.2451 1.50399   1 
   8   5  10 14.9273 1.93174   4 
  -9  -5 -10 42.2003 2.21641   1 
   9   5  10 36.5270 2.86005   4 
 -10  -5 -10 6.55533 1.07581   1 
  10   5  10 5.32529 1.50778   4 
   8  -6 -10 33.6966 2.11889   6 
  -8   6  10 36.5990 2.74115   4 
   7  -6 -10 9.87808 1.18958   6 
   7  -6 -10 6.37037 1.41344   3 
  -7   6  10 8.54459 1.48755   4 
  -7   6  10 9.13583 1.32940   5 
   6  -6 -10 45.1629 2.70279   3 
   6  -6 -10 42.5982 2.21727   6 
  -6   6  10 40.3218 2.43612   5 
  -6   6  10 39.7359 2.67825   4 
   5  -6 -10 36.0940 2.43015   3 
   5  -6 -10 32.8149 1.90610   6 
  -5   6  10 36.8495 2.47265   4 
  -5   6  10 36.4240 2.22140   5 
   4  -6 -10 141.465 4.59445   2 
   4  -6 -10 136.049 5.09590   3 
   4  -6 -10 140.004 4.61369   6 
  -4   6  10 140.071 4.88786   5 
  -4   6  10 132.607 5.20442   4 
   3  -6 -10 51.2256 2.30063   6 
   3  -6 -10 52.1776 2.33570   2 
   3  -6 -10 50.2294 2.65984   3 
  -3   6  10 48.2275 2.41841   5 
  -3   6  10 49.7632 2.74700   4 
   2  -6 -10 108.415 3.68997   6 
   2  -6 -10 101.422 3.92945   3 
   2  -6 -10 103.947 3.70053   2 
  -2   6  10 103.592 3.76877   5 
  -2   6  10 104.013 4.22153   4 
   1  -6 -10 30.6922 1.69011   6 
   1  -6 -10 32.9337 1.82175   2 
   1  -6 -10 31.9042 1.91084   3 
  -1   6  10 30.3270 2.15454   4 
  -1   6  10 35.2450 1.87208   5 
   0  -6 -10 131.254 4.21449   6 
   0  -6 -10 129.336 4.37435   3 
   0  -6 -10 124.308 4.26388   2 
   0   6  10 130.509 4.19501   5 
   0   6  10 120.303 4.68659   4 
  -1  -6 -10 -0.5060 0.48667   3 
  -1  -6 -10 0.11765 0.59046   2 
  -1  -6 -10 -0.1649 0.45355   6 
   1   6  10 -0.0515 0.50280   5 
   1   6  10 -0.9101 0.73837   4 
  -2  -6 -10 222.828 6.51708   3 
  -2  -6 -10 222.886 6.64836   2 
  -2  -6 -10 219.201 6.54357   6 
   2   6  10 210.311 7.12431   4 
   2   6  10 221.335 6.39018   5 
  -3  -6 -10 20.7664 1.50642   2 
  -3  -6 -10 20.2392 1.33404   6 
   3   6  10 19.0297 1.31289   5 
   3   6  10 17.8770 1.74806   4 
  -4  -6 -10 266.482 7.24943   1 
  -4  -6 -10 260.594 7.63923   2 
   4   6  10 247.887 8.25694   4 
   4   6  10 259.925 7.34205   5 
  -5  -6 -10 -0.5521 0.45214   1 
  -5  -6 -10 0.50146 0.62520   2 
   5   6  10 0.15739 0.93529   4 
  -6  -6 -10 86.8354 3.31934   2 
  -6  -6 -10 90.0049 3.17990   1 
   6   6  10 84.7452 3.98212   4 
  -7  -6 -10 11.0817 1.14257   2 
  -7  -6 -10 10.0522 1.04564   1 
   7   6  10 10.4985 1.63276   4 
  -8  -6 -10 68.2793 2.80163   2 
  -8  -6 -10 61.9758 2.69197   1 
   8   6  10 57.0149 3.41977   4 
  -9  -6 -10 22.5495 1.64993   1 
   9   6  10 21.6432 2.26725   4 
 -10  -6 -10 16.8524 1.48472   1 
  10   6  10 14.5710 2.05259   4 
 -11  -6 -10 7.57156 1.19249   1 
   7  -7 -10 20.2582 1.59479   6 
  -7   7  10 22.4902 2.22194   4 
  -7   7  10 21.1453 1.88305   5 
   6  -7 -10 49.3899 2.95626   3 
   6  -7 -10 46.1248 2.32792   6 
  -6   7  10 45.0826 2.66399   5 
  -6   7  10 43.3140 2.93124   4 
   5  -7 -10 42.9162 2.18444   6 
   5  -7 -10 49.3144 2.82208   3 
  -5   7  10 45.1342 2.53810   5 
  -5   7  10 43.2628 2.82050   4 
   4  -7 -10 -1.1572 0.49893   6 
   4  -7 -10 -0.3172 0.93184   3 
  -4   7  10 0.97885 0.96318   4 
  -4   7  10 0.95719 0.81171   5 
   3  -7 -10 237.802 7.07865   2 
   3  -7 -10 248.892 7.64209   3 
   3  -7 -10 228.115 7.01186   6 
  -3   7  10 225.859 7.76796   4 
  -3   7  10 237.056 7.28405   5 
   2  -7 -10 60.8400 2.62929   2 
   2  -7 -10 60.9656 2.57157   6 
   2  -7 -10 64.4829 2.98997   3 
  -2   7  10 61.2444 2.72250   5 
  -2   7  10 67.3269 3.27375   4 
   1  -7 -10 76.8578 3.24090   3 
   1  -7 -10 74.9122 3.01511   2 
   1  -7 -10 75.4863 2.92243   6 
  -1   7  10 80.1442 3.02415   5 
  -1   7  10 77.0700 3.52741   4 
   0  -7 -10 40.8197 1.92304   6 
   0  -7 -10 36.1808 2.06510   3 
   0  -7 -10 36.1665 1.94766   2 
   0   7  10 39.0120 1.91762   5 
   0   7  10 38.0383 2.41490   4 
  -1  -7 -10 95.7532 3.37008   6 
  -1  -7 -10 92.8755 3.45095   2 
  -1  -7 -10 92.6752 3.52320   3 
   1   7  10 94.9949 3.25113   5 
   1   7  10 90.7950 3.95609   4 
  -2  -7 -10 40.9826 1.99717   6 
  -2  -7 -10 42.8321 2.11943   3 
  -2  -7 -10 41.2058 2.09918   2 
   2   7  10 42.3145 1.88104   5 
   2   7  10 40.1394 2.58354   4 
  -3  -7 -10 367.693 10.4079   2 
  -3  -7 -10 378.472 10.3256   6 
  -3  -7 -10 369.892 10.2868   3 
   3   7  10 353.084 10.9742   4 
  -4  -7 -10 52.1652 2.30095   6 
  -4  -7 -10 51.4613 2.38237   2 
   4   7  10 48.7503 2.87769   4 
  -5  -7 -10 132.305 4.43578   2 
  -5  -7 -10 127.161 4.01038   1 
   5   7  10 122.590 5.00579   4 
  -6  -7 -10 5.55951 0.92367   2 
  -6  -7 -10 3.28134 0.67435   1 
   6   7  10 2.10453 1.16167   4 
  -7  -7 -10 104.939 3.71940   1 
  -7  -7 -10 111.021 3.97112   2 
   7   7  10 105.745 4.68209   4 
  -8  -7 -10 21.1280 1.67420   2 
  -8  -7 -10 23.8945 1.60809   1 
   8   7  10 18.8556 2.06724   4 
  -9  -7 -10 33.7945 1.96275   1 
   9   7  10 28.3868 2.55163   4 
 -10  -7 -10 11.3339 1.28054   1 
  10   7  10 11.0064 1.85574   4 
 -11  -7 -10 23.8433 1.84316   1 
   6  -8 -10 54.2971 3.18011   3 
   6  -8 -10 52.8918 2.48240   6 
  -6   8  10 52.1239 2.90983   5 
  -6   8  10 51.4808 3.32530   4 
   5  -8 -10 9.11297 1.06079   6 
   5  -8 -10 8.03755 1.42236   3 
  -5   8  10 8.13930 1.25806   5 
  -5   8  10 6.34360 1.40816   4 
   4  -8 -10 48.4301 2.80621   3 
   4  -8 -10 44.2033 2.21091   6 
  -4   8  10 47.6475 2.55116   5 
  -4   8  10 43.9882 2.86322   4 
   3  -8 -10 19.2720 1.39106   6 
   3  -8 -10 23.0654 1.60746   2 
   3  -8 -10 21.8041 1.91892   3 
  -3   8  10 19.3887 1.67559   5 
  -3   8  10 19.3327 2.00119   4 
   2  -8 -10 82.4776 3.60692   3 
   2  -8 -10 78.1329 3.03115   6 
   2  -8 -10 76.1270 3.14799   2 
  -2   8  10 79.3520 3.78699   4 
  -2   8  10 78.5880 3.20216   5 
   1  -8 -10 35.4908 1.99919   2 
   1  -8 -10 37.8485 1.90266   6 
   1  -8 -10 37.6409 2.24708   3 
  -1   8  10 38.6806 2.55212   4 
  -1   8  10 39.6475 2.02805   5 
   0  -8 -10 72.6221 3.12058   3 
   0  -8 -10 74.6588 2.87950   6 
   0  -8 -10 71.5466 2.96649   2 
   0   8  10 69.7432 3.45850   4 
   0   8  10 73.2484 2.84659   5 
  -1  -8 -10 16.0430 1.24636   6 
  -1  -8 -10 15.5211 1.39546   2 
  -1  -8 -10 15.8370 1.42571   3 
   1   8  10 15.2372 1.62813   4 
  -2  -8 -10 120.436 4.12754   6 
  -2  -8 -10 129.046 4.38821   3 
  -2  -8 -10 120.977 4.27490   2 
   2   8  10 119.824 4.85767   4 
  -3  -8 -10 16.8113 1.27833   6 
  -3  -8 -10 17.1787 1.44532   3 
  -3  -8 -10 19.3442 1.50351   2 
   3   8  10 14.9438 1.70414   4 
  -4  -8 -10 60.5127 2.67058   2 
  -4  -8 -10 59.8566 2.58613   3 
  -4  -8 -10 57.2530 2.50008   6 
   4   8  10 60.8154 2.60994   3 
   4   8  10 53.0856 3.08206   4 
  -5  -8 -10 22.2308 1.67194   2 
   5   8  10 21.1081 2.06818   4 
  -6  -8 -10 79.0217 2.87506   1 
  -6  -8 -10 78.3612 3.19743   2 
   6   8  10 72.8165 3.75964   4 
  -7  -8 -10 3.26474 0.77064   1 
  -7  -8 -10 2.50541 0.85163   2 
   7   8  10 3.06107 1.22811   4 
  -8  -8 -10 110.797 3.97378   1 
  -8  -8 -10 115.557 4.20984   2 
   8   8  10 106.377 4.89676   4 
  -9  -8 -10 22.4262 1.68355   1 
   9   8  10 22.2302 2.28575   4 
 -10  -8 -10 59.1783 2.81087   1 
  10   8  10 51.5644 3.52318   4 
 -11  -8 -10 38.7112 2.39233   1 
   5  -9 -10 52.5111 2.40743   6 
   5  -9 -10 50.6905 3.03539   3 
  -5   9  10 47.0909 2.77139   5 
  -5   9  10 45.3896 3.11553   4 
   4  -9 -10 -0.4588 0.84838   3 
   4  -9 -10 -0.2216 0.50321   6 
  -4   9  10 0.34935 0.82136   5 
  -4   9  10 1.06817 0.96875   4 
   3  -9 -10 37.2940 1.95924   6 
   3  -9 -10 41.4733 2.63088   3 
  -3   9  10 37.8817 2.23156   5 
  -3   9  10 37.5673 2.70683   4 
   2  -9 -10 7.49793 1.04326   2 
   2  -9 -10 8.36994 1.29100   3 
   2  -9 -10 7.37206 0.90964   6 
  -2   9  10 9.56858 1.48280   4 
   1  -9 -10 134.855 4.48534   6 
   1  -9 -10 140.875 5.08533   3 
   1  -9 -10 136.603 4.70447   2 
  -1   9  10 129.204 5.29908   4 
   0  -9 -10 0.18013 0.72776   3 
   0  -9 -10 -0.0052 0.67855   2 
   0  -9 -10 0.59784 0.59133   6 
   0   9  10 0.64581 0.96081   4 
  -1  -9 -10 75.6549 2.90006   6 
  -1  -9 -10 74.0686 3.23242   3 
  -1  -9 -10 69.1630 3.01809   2 
   1   9  10 73.6117 3.58420   4 
  -2  -9 -10 6.32730 0.84970   6 
  -2  -9 -10 5.91181 1.00809   3 
  -2  -9 -10 4.44193 0.95352   2 
   2   9  10 4.10788 1.25835   4 
  -3  -9 -10 75.4644 2.94057   6 
  -3  -9 -10 77.5192 3.20299   3 
  -3  -9 -10 72.2131 3.08959   2 
   3   9  10 71.8792 3.63827   4 
  -4  -9 -10 54.5298 2.54828   3 
  -4  -9 -10 55.6104 2.57212   2 
  -4  -9 -10 50.3382 2.33849   6 
   4   9  10 53.2817 2.54968   3 
   4   9  10 47.9551 3.00102   4 
  -5  -9 -10 23.6442 1.74618   2 
  -5  -9 -10 23.6379 1.59177   6 
   5   9  10 26.4168 1.79531   3 
   5   9  10 20.8719 2.13311   4 
  -6  -9 -10 8.73171 1.17270   2 
   6   9  10 6.40082 1.39460   4 
  -7  -9 -10 94.1203 3.69212   2 
   7   9  10 85.3599 4.23212   4 
  -8  -9 -10 5.52479 1.05253   2 
  -8  -9 -10 5.75291 0.95180   1 
   8   9  10 4.42211 1.41739   4 
  -9  -9 -10 42.3005 2.38926   2 
  -9  -9 -10 43.4196 2.25130   1 
   9   9  10 37.4283 3.00384   4 
 -10  -9 -10 5.78236 1.11067   1 
  10   9  10 4.05959 1.54159   4 
 -11  -9 -10 46.7141 2.60251   1 
   4 -10 -10 29.9388 1.73394   6 
   4 -10 -10 26.7849 2.26813   3 
  -4  10  10 28.7321 2.53047   4 
   3 -10 -10 -0.2382 0.79895   3 
   3 -10 -10 1.36272 0.57278   6 
  -3  10  10 1.40203 1.12685   4 
   2 -10 -10 122.119 4.17734   6 
   2 -10 -10 123.043 4.89791   3 
   2 -10 -10 123.597 4.46675   2 
  -2  10  10 117.017 5.16683   4 
   1 -10 -10 0.71252 0.55860   6 
   1 -10 -10 -0.0836 0.76900   3 
   1 -10 -10 -0.6375 0.65837   2 
  -1  10  10 0.18880 0.92902   4 
   0 -10 -10 136.002 4.81368   2 
   0 -10 -10 138.628 4.52802   6 
   0 -10 -10 134.792 5.07864   3 
   0  10  10 132.441 5.42449   4 
  -1 -10 -10 10.6918 1.35427   3 
  -1 -10 -10 13.9496 1.20099   6 
  -1 -10 -10 12.7947 1.32510   2 
   1  10  10 12.1623 1.70703   4 
  -2 -10 -10 137.482 4.80865   3 
  -2 -10 -10 126.191 4.56713   2 
  -2 -10 -10 127.963 4.28785   6 
   2  10  10 111.655 4.96961   4 
  -3 -10 -10 -0.5937 0.70716   2 
  -3 -10 -10 0.88790 0.70973   3 
  -3 -10 -10 -0.1191 0.52973   6 
   3  10  10 -1.1614 1.06937   4 
  -4 -10 -10 173.717 5.59212   6 
  -4 -10 -10 177.193 5.89986   3 
  -4 -10 -10 174.483 5.86602   2 
   4  10  10 169.406 6.45127   4 
   4  10  10 181.268 5.97066   3 
  -5 -10 -10 17.0385 1.40607   6 
  -5 -10 -10 16.3152 1.50591   2 
   5  10  10 18.8197 1.66795   3 
   5  10  10 13.9075 1.82779   4 
  -6 -10 -10 124.356 4.52869   2 
   6  10  10 113.023 5.02658   4 
  -7 -10 -10 5.07342 1.06059   2 
   7  10  10 5.68790 1.47174   4 
  -8 -10 -10 35.4457 2.22496   2 
   8  10  10 30.4048 2.64583   4 
  -9 -10 -10 20.1934 1.77848   2 
   9  10  10 17.0507 2.11802   4 
 -10 -10 -10 60.5627 2.85118   1 
  10  10  10 51.6829 3.54382   4 
 -11 -10 -10 1.87451 0.86901   1 
   2 -11 -10 17.0262 1.76760   3 
   2 -11 -10 16.2881 1.31694   6 
  -2  11  10 16.9924 1.99325   4 
   1 -11 -10 91.8399 3.75040   2 
   1 -11 -10 96.0936 3.46239   6 
   1 -11 -10 96.7220 4.19724   3 
  -1  11  10 84.3524 4.33197   4 
   0 -11 -10 0.86217 0.77488   2 
   0 -11 -10 3.07058 0.76164   6 
   0 -11 -10 3.28685 1.03049   3 
   0  11  10 2.41418 1.13896   4 
  -1 -11 -10 78.7929 3.03407   6 
  -1 -11 -10 79.3435 3.61079   3 
  -1 -11 -10 74.4125 3.32222   2 
   1  11  10 72.2362 3.87708   4 
  -2 -11 -10 32.9498 1.81865   6 
  -2 -11 -10 34.5110 2.27533   3 
  -2 -11 -10 29.2028 2.04256   2 
   2  11  10 32.1958 2.56039   4 
  -3 -11 -10 120.367 4.58296   2 
  -3 -11 -10 129.763 4.79335   3 
  -3 -11 -10 119.162 4.22497   6 
   3  11  10 121.199 5.22755   4 
  -4 -11 -10 5.72526 1.08259   3 
  -4 -11 -10 2.55471 0.98630   2 
  -4 -11 -10 3.64536 0.80930   6 
   4  11  10 4.48007 1.12885   3 
   4  11  10 1.33387 1.25381   4 
  -5 -11 -10 92.1181 3.58729   6 
  -5 -11 -10 102.935 3.99967   2 
   5  11  10 85.3408 4.35202   4 
   5  11  10 100.365 4.05041   3 
  -6 -11 -10 0.78541 0.62130   6 
  -6 -11 -10 0.61389 0.84275   2 
   6  11  10 2.19548 0.98059   3 
   6  11  10 1.04975 1.20238   4 
  -7 -11 -10 72.5331 3.33999   2 
   7  11  10 72.0784 3.96061   4 
  -8 -11 -10 16.7216 1.56815   2 
   8  11  10 14.2432 1.99440   4 
  -9 -11 -10 2.05322 0.93958   2 
   9  11  10 1.63777 1.30791   4 
 -10 -11 -10 3.85011 1.12905   2 
   1 -12 -10 22.3212 1.84976   2 
   1 -12 -10 27.9259 2.26256   3 
   1 -12 -10 22.1315 1.53444   6 
  -1  12  10 22.4280 2.33018   4 
   0 -12 -10 37.0269 2.51538   3 
   0 -12 -10 37.5198 2.29890   2 
   0 -12 -10 39.2927 1.98606   6 
   0  12  10 32.5009 2.69731   4 
  -1 -12 -10 2.63119 0.98304   2 
  -1 -12 -10 3.68954 0.79637   6 
  -1 -12 -10 4.26067 1.07359   3 
   1  12  10 3.08924 1.31246   4 
  -2 -12 -10 98.9691 4.24980   3 
  -2 -12 -10 94.4794 3.56119   6 
  -2 -12 -10 99.7092 4.00386   2 
   2  12  10 93.7003 4.56417   4 
  -3 -12 -10 14.6651 1.52849   2 
  -3 -12 -10 16.9869 1.68303   3 
  -3 -12 -10 13.8815 1.23451   6 
   3  12  10 9.25782 1.74839   4 
  -4 -12 -10 103.646 3.74078   6 
  -4 -12 -10 96.7151 4.18063   3 
  -4 -12 -10 93.6789 4.01092   2 
   4  12  10 87.9259 4.53472   4 
   4  12  10 108.297 4.30846   3 
  -5 -12 -10 24.8621 1.64413   6 
  -5 -12 -10 22.9420 1.91235   2 
   5  12  10 21.2022 2.27177   4 
   5  12  10 22.2821 1.98682   3 
  -6 -12 -10 96.2635 4.00866   2 
   6  12  10 88.3344 4.47322   4 
   6  12  10 94.1919 4.04405   3 
  -7 -12 -10 -0.2079 0.82722   2 
  -7 -12 -10 -0.3033 0.58977   6 
   7  12  10 0.39790 0.87031   3 
   7  12  10 -0.0084 1.20205   4 
  -8 -12 -10 11.3718 1.45898   2 
   8  12  10 11.4866 1.84477   4 
  -9 -12 -10 9.65696 1.36476   2 
   9  12  10 7.35799 1.71576   4 
 -10 -12 -10 6.29419 1.21506   2 
   0 -13 -10 -0.6685 0.71393   2 
  -1 -13 -10 125.258 5.11304   3 
  -1 -13 -10 117.589 4.71251   2 
  -1 -13 -10 119.631 4.20944   6 
  -2 -13 -10 0.54969 0.81762   2 
  -2 -13 -10 0.41953 0.52468   6 
  -2 -13 -10 0.05345 0.81052   3 
   2  13  10 -0.4212 1.08516   4 
  -3 -13 -10 73.2645 3.48714   2 
  -3 -13 -10 77.0561 3.74453   3 
  -3 -13 -10 76.5053 3.07815   6 
   3  13  10 80.2099 3.84451   3 
   3  13  10 65.9058 3.93712   4 
  -4 -13 -10 3.14474 0.78079   6 
  -4 -13 -10 2.84132 1.07951   2 
  -4 -13 -10 3.96814 1.10817   3 
   4  13  10 3.96125 1.50949   4 
   4  13  10 3.05114 1.15361   3 
  -5 -13 -10 17.1749 1.67656   2 
  -5 -13 -10 16.6698 1.38521   6 
   5  13  10 15.8014 2.07633   4 
   5  13  10 20.0162 1.90225   3 
  -6 -13 -10 5.15026 1.20638   2 
  -6 -13 -10 5.17102 0.91006   6 
   6  13  10 3.05794 1.14930   3 
   6  13  10 4.37776 1.52630   4 
  -7 -13 -10 82.0737 3.75471   2 
   7  13  10 70.5511 4.09032   4 
   7  13  10 81.2959 3.83183   3 
  -8 -13 -10 -1.4664 0.76891   2 
  -8 -13 -10 -0.6922 0.62804   6 
  -4 -14 -10 67.5530 3.55646   3 
   4  14  10 66.3877 3.63021   3 
   5  14  10 4.58736 1.33648   3 
   6  14  10 21.9064 2.10722   3 
   7  14  10 5.12881 1.31179   3 
   8  14  10 11.7448 1.59884   3 
  -5  -8  11 12.8589 1.42034   5 
  -4  -8  11 62.7048 3.06773   5 
  -3  -8  11 5.43555 1.07458   5 
  -2  -8  11 9.00653 1.24943   5 
  -8  -7  11 16.4802 1.49393   6 
   7   7 -11 -0.9422 0.80619   2 
  -7  -7  11 -0.9711 0.69121   5 
  -7  -7  11 -0.9450 0.76438   1 
  -7  -7  11 -0.9037 0.58295   6 
   6   7 -11 111.115 4.78181   2 
  -6  -7  11 120.825 4.25711   6 
  -6  -7  11 117.686 4.61446   1 
  -6  -7  11 116.142 4.47656   5 
   5   7 -11 6.08414 1.28318   2 
  -5  -7  11 8.43901 0.99069   6 
  -5  -7  11 6.19880 1.18492   1 
  -5  -7  11 6.59868 1.14276   5 
   4   7 -11 75.8994 3.66414   2 
  -4  -7  11 78.5813 3.50042   1 
  -4  -7  11 78.0390 3.00773   6 
  -4  -7  11 69.3498 3.31379   5 
   3   7 -11 33.9816 2.40804   2 
  -3  -7  11 32.8668 2.18783   1 
  -3  -7  11 34.7098 1.80144   6 
  -3  -7  11 32.2731 2.18091   5 
   2   7 -11 82.2962 3.77242   2 
  -2  -7  11 77.3864 3.54234   1 
  -2  -7  11 80.6429 2.95953   6 
  -2  -7  11 75.2940 3.47689   5 
   1   7 -11 2.10593 0.93303   2 
   1   7 -11 3.32447 1.06490   1 
  -1  -7  11 1.50478 0.49156   6 
  -1  -7  11 1.00924 0.80841   5 
  -1  -7  11 0.91494 0.76929   1 
   0   7 -11 123.865 4.92351   2 
  -1   7 -11 23.9919 2.00566   2 
   9   6 -11 30.9287 2.29338   2 
  -9  -6  11 35.4360 2.27690   1 
  -9  -6  11 28.4407 2.02811   5 
   8   6 -11 23.7270 2.04554   2 
  -8  -6  11 22.7769 1.83819   6 
  -8  -6  11 26.0815 1.88334   5 
  -8  -6  11 23.7555 1.93107   1 
   7   6 -11 26.7194 2.13291   2 
  -7  -6  11 27.1868 1.96090   5 
  -7  -6  11 26.5692 1.86499   6 
  -7  -6  11 29.9922 2.09952   1 
   6   6 -11 -0.1372 0.84671   2 
  -6  -6  11 -0.8315 0.55223   6 
  -6  -6  11 -1.1759 0.77210   5 
  -6  -6  11 0.74369 0.82718   1 
   5   6 -11 171.556 6.28088   2 
  -5  -6  11 180.216 6.09620   1 
  -5  -6  11 183.554 5.76396   6 
   4   6 -11 22.8740 1.96367   2 
  -4  -6  11 23.6638 1.85454   1 
  -4  -6  11 22.1331 1.83845   5 
  -4  -6  11 24.2752 1.56899   6 
   3   6 -11 134.328 5.19900   2 
  -3  -6  11 130.468 4.95118   5 
  -3  -6  11 144.016 5.05832   1 
  -3  -6  11 139.318 4.55009   6 
   2   6 -11 -0.3176 0.80537   2 
  -2  -6  11 -0.0744 0.46940   6 
  -2  -6  11 -0.7105 0.62027   5 
  -2  -6  11 0.81772 0.78113   1 
   1   6 -11 142.566 5.27186   2 
   1   6 -11 137.189 5.20229   1 
  -1  -6  11 135.663 5.09634   5 
  -1  -6  11 139.998 4.49082   6 
  -1  -6  11 142.080 5.13118   1 
   0   6 -11 -0.4887 0.71241   2 
   0   6 -11 0.82276 0.81639   1 
   0  -6  11 -0.2329 0.40473   6 
   0  -6  11 -0.0551 0.63263   5 
   0  -6  11 0.86638 0.76524   1 
  -1   6 -11 111.610 4.57413   1 
  -1   6 -11 124.416 4.67014   2 
   1  -6  11 110.954 4.50991   5 
   1  -6  11 109.585 3.72168   6 
   9   5 -11 5.39327 1.20833   2 
  -9  -5  11 6.67119 1.14096   5 
   8   5 -11 10.9110 1.42072   2 
  -8  -5  11 16.0695 1.53584   1 
  -8  -5  11 12.0651 1.36432   5 
   7   5 -11 21.9378 1.89451   2 
  -7  -5  11 24.0891 1.82882   1 
  -7  -5  11 20.2367 1.71700   5 
  -7  -5  11 24.0737 1.75742   6 
   6   5 -11 58.3901 3.06047   2 
  -6  -5  11 63.4824 2.98390   5 
  -6  -5  11 63.3749 2.94619   1 
  -6  -5  11 62.5641 2.79278   6 
   5   5 -11 14.3101 1.54137   2 
  -5  -5  11 14.5694 1.39377   1 
  -5  -5  11 16.9471 1.36825   6 
  -5  -5  11 10.0993 1.28149   5 
   4   5 -11 65.0679 3.25012   2 
  -4  -5  11 72.3518 2.85439   6 
  -4  -5  11 66.3880 3.08414   5 
  -4  -5  11 70.6268 3.08027   1 
   3   5 -11 40.7838 2.40985   2 
  -3  -5  11 38.0641 2.19453   1 
  -3  -5  11 37.6933 1.90831   6 
  -3  -5  11 35.3105 2.17243   5 
   2   5 -11 69.5023 3.23852   2 
  -2  -5  11 73.8434 2.75017   6 
  -2  -5  11 69.7048 3.08111   1 
  -2  -5  11 61.2652 3.00824   5 
   1   5 -11 20.9164 1.82970   1 
   1   5 -11 22.9767 1.85995   2 
  -1  -5  11 20.9881 1.70777   5 
  -1  -5  11 20.7487 1.33070   6 
  -1  -5  11 24.0429 1.74574   1 
   0   5 -11 41.6991 2.41759   1 
   0   5 -11 40.1368 2.37930   2 
   0  -5  11 40.3265 2.31429   1 
   0  -5  11 35.9575 2.25726   5 
   0  -5  11 35.9024 1.76289   6 
  -1   5 -11 1.87952 0.87951   1 
  -1   5 -11 2.60754 0.92445   2 
   1  -5  11 2.11589 0.85815   5 
   1  -5  11 1.60002 0.51492   6 
  -2   5 -11 79.2759 3.42735   2 
  -2   5 -11 72.6066 3.42477   1 
   2  -5  11 74.9783 2.77103   6 
   2  -5  11 71.4669 3.37424   5 
  -3   5 -11 7.16001 1.26292   1 
   3  -5  11 8.89123 1.31979   5 
   3  -5  11 8.38734 0.82469   6 
  10   4 -11 2.74539 1.26324   3 
   9   4 -11 23.4460 1.92413   2 
   9   4 -11 27.5421 2.40407   3 
  -9  -4  11 23.5560 1.85046   5 
   8   4 -11 42.2825 2.51346   2 
  -8  -4  11 41.3115 2.41538   5 
   7   4 -11 21.0234 1.83988   2 
  -7  -4  11 20.9276 1.68210   1 
  -7  -4  11 20.7970 1.64134   6 
  -7  -4  11 20.9662 1.71201   5 
   6   4 -11 2.40176 0.89539   2 
  -6  -4  11 0.88598 0.76727   5 
  -6  -4  11 1.19038 0.77341   1 
  -6  -4  11 1.83106 0.72991   6 
   5   4 -11 94.6119 3.90003   2 
  -5  -4  11 94.0149 3.53288   6 
  -5  -4  11 86.3160 3.68754   5 
  -5  -4  11 97.6887 3.69405   1 
   4   4 -11 55.1108 2.84693   2 
  -4  -4  11 55.6337 2.73791   5 
  -4  -4  11 56.0062 2.46759   6 
  -4  -4  11 59.9863 2.67277   1 
   3   4 -11 38.7472 2.32413   2 
  -3  -4  11 37.0162 2.18752   5 
  -3  -4  11 39.0529 1.91798   6 
  -3  -4  11 41.3509 2.19772   1 
   2   4 -11 5.09126 1.04863   2 
  -2  -4  11 5.01894 0.75845   6 
  -2  -4  11 4.07751 0.97431   5 
  -2  -4  11 3.94229 0.89922   1 
   1   4 -11 103.310 4.01107   1 
   1   4 -11 99.6715 4.01978   2 
  -1  -4  11 106.029 3.93375   1 
  -1  -4  11 95.9963 3.90562   5 
  -1  -4  11 103.514 3.54543   6 
   0   4 -11 0.09939 0.73107   1 
   0   4 -11 0.73662 0.69524   2 
   0  -4  11 0.52664 0.66416   5 
   0  -4  11 0.87277 0.68982   1 
   0  -4  11 0.39823 0.47561   6 
  -1   4 -11 113.366 4.31796   2 
  -1   4 -11 112.306 4.35834   1 
   1  -4  11 110.039 3.74311   6 
   1  -4  11 115.360 4.36918   5 
  -2   4 -11 4.65879 0.98522   2 
  -2   4 -11 3.97546 0.97809   1 
   2  -4  11 4.86111 0.71572   6 
   2  -4  11 4.74175 0.71691   6 
   2  -4  11 3.64225 0.91328   5 
  -3   4 -11 108.662 4.33790   1 
   3  -4  11 104.431 4.24779   5 
   3  -4  11 102.499 3.56298   6 
  -4   4 -11 36.8511 2.37322   1 
   4  -4  11 34.5778 1.74227   6 
   4  -4  11 36.6032 2.33181   5 
  10   3 -11 45.5928 3.00464   3 
   9   3 -11 3.24044 1.27150   3 
  -9  -3  11 1.53398 0.91997   5 
   8   3 -11 56.6763 3.11823   3 
   8   3 -11 51.3701 2.72919   2 
  -8  -3  11 52.5574 2.77475   5 
   7   3 -11 6.59261 1.27059   3 
   7   3 -11 7.26877 1.15768   2 
  -7  -3  11 7.78897 1.14370   5 
   6   3 -11 45.6613 2.54414   2 
  -6  -3  11 48.1955 2.34813   1 
  -6  -3  11 47.7987 2.36579   6 
  -6  -3  11 47.2790 2.50026   5 
   5   3 -11 -0.1000 0.65908   2 
  -5  -3  11 0.93239 0.60085   6 
  -5  -3  11 0.09040 0.63069   5 
  -5  -3  11 -0.5324 0.57025   1 
   4   3 -11 63.0007 2.99627   2 
  -4  -3  11 60.5814 2.88224   5 
  -4  -3  11 64.2124 2.66700   6 
  -4  -3  11 68.9391 2.80458   1 
   3   3 -11 27.1213 1.93768   2 
  -3  -3  11 27.1904 1.60342   6 
  -3  -3  11 27.9284 1.89269   5 
  -3  -3  11 31.5145 1.83132   1 
   2   3 -11 243.257 7.70756   2 
  -2  -3  11 237.285 7.60495   5 
  -2  -3  11 251.415 7.47648   1 
  -2  -3  11 254.714 7.26860   6 
   1   3 -11 0.94689 0.70611   2 
   1   3 -11 0.32779 0.72228   1 
  -1  -3  11 0.18460 0.59981   1 
  -1  -3  11 -0.3334 0.64542   5 
  -1  -3  11 1.05263 0.53620   6 
   0   3 -11 140.662 4.86641   2 
   0   3 -11 136.444 4.77712   1 
   0  -3  11 128.186 4.74049   5 
   0  -3  11 135.776 4.37151   6 
   0  -3  11 132.184 4.66082   1 
  -1   3 -11 4.78651 0.96054   2 
  -1   3 -11 4.55568 0.95715   1 
   1  -3  11 4.28562 0.95569   5 
   1  -3  11 4.65657 0.72223   6 
  -2   3 -11 213.558 6.74864   2 
  -2   3 -11 216.223 6.85378   1 
   2  -3  11 206.580 6.24014   6 
   2  -3  11 205.547 6.78832   5 
  -3   3 -11 4.18750 0.92347   2 
  -3   3 -11 2.60336 0.91821   1 
   3  -3  11 4.97484 0.72553   6 
   3  -3  11 5.64152 1.06835   5 
  -4   3 -11 112.877 4.37654   1 
   4  -3  11 107.937 4.33028   5 
   4  -3  11 104.838 3.68306   6 
  -5   3 -11 17.7898 1.68425   1 
   5  -3  11 18.3813 1.26958   6 
   5  -3  11 18.4411 1.66985   5 
  10   2 -11 5.68002 1.37331   3 
   9   2 -11 14.4785 1.75046   3 
  -9  -2  11 12.5385 1.42083   5 
   8   2 -11 41.4784 2.41693   2 
   8   2 -11 52.8205 2.97239   3 
  -8  -2  11 44.4339 2.50511   5 
   7   2 -11 48.6038 2.60118   2 
   7   2 -11 59.6797 2.97514   3 
  -7  -2  11 48.1787 2.59794   5 
   6   2 -11 1.57651 0.84471   3 
   6   2 -11 0.62273 0.74656   2 
  -6  -2  11 0.03602 0.67137   5 
   5   2 -11 101.731 4.09139   2 
  -5  -2  11 117.457 3.93309   1 
  -5  -2  11 111.286 3.94217   6 
  -5  -2  11 106.971 4.12564   5 
   4   2 -11 -0.2553 0.58042   2 
  -4  -2  11 -0.5743 0.57509   5 
  -4  -2  11 0.40061 0.55353   6 
  -4  -2  11 0.07137 0.55841   1 
   3   2 -11 76.1519 3.27176   2 
  -3  -2  11 78.3714 3.04392   1 
  -3  -2  11 83.4045 3.03336   6 
  -3  -2  11 73.8627 3.20924   5 
   2   2 -11 20.8344 1.63216   2 
  -2  -2  11 20.2328 1.36626   6 
  -2  -2  11 19.5787 1.59325   5 
  -2  -2  11 22.3915 1.52676   1 
   1   2 -11 129.143 4.69263   2 
   1   2 -11 139.307 4.64832   1 
  -1  -2  11 140.620 4.42424   6 
  -1  -2  11 134.995 4.52974   1 
  -1  -2  11 127.250 4.67613   5 
   0   2 -11 63.0851 2.74743   1 
   0   2 -11 61.4540 2.79701   2 
   0  -2  11 60.9282 2.68932   1 
   0  -2  11 59.2955 2.77002   5 
   0  -2  11 61.7702 2.48598   6 
  -1   2 -11 112.499 4.06489   2 
  -1   2 -11 107.985 4.01317   1 
   1  -2  11 109.333 3.67548   6 
   1  -2  11 100.074 3.96835   5 
  -2   2 -11 40.4297 2.17871   2 
  -2   2 -11 35.9688 2.16241   1 
   2  -2  11 36.1818 2.16476   5 
   2  -2  11 38.2729 1.84716   6 
  -3   2 -11 198.291 6.13470   2 
  -3   2 -11 188.461 6.22308   1 
   3  -2  11 184.164 5.70819   6 
   3  -2  11 184.664 5.72091   6 
   3  -2  11 184.850 6.19659   5 
  -4   2 -11 21.9608 1.64548   2 
  -4   2 -11 22.5734 1.80552   1 
   4  -2  11 22.0828 1.38590   6 
   4  -2  11 21.0089 1.77201   5 
  -5   2 -11 45.0958 2.54966   1 
   5  -2  11 42.4360 2.49267   5 
   5  -2  11 41.6537 2.03287   6 
  -6   2 -11 17.9317 1.64247   1 
   6  -2  11 14.7530 1.57829   5 
   6  -2  11 16.5850 1.29229   6 
   7  -2  11 15.7737 1.85629   4 
   9   1 -11 24.8004 2.27752   3 
  -9  -1  11 25.9966 2.04854   5 
   8   1 -11 51.9268 2.93333   3 
  -8  -1  11 45.2961 2.59914   5 
   7   1 -11 9.05142 1.39556   3 
   7   1 -11 7.77955 1.16235   2 
  -7  -1  11 8.49022 1.20920   5 
   6   1 -11 68.8419 3.10251   2 
   6   1 -11 78.0919 3.33085   3 
  -6  -1  11 68.1313 3.14710   5 
   5   1 -11 0.33274 0.65102   2 
   5   1 -11 0.23732 0.71774   3 
  -5  -1  11 -0.1296 0.64082   5 
   4   1 -11 114.872 4.29104   2 
  -4  -1  11 124.725 4.00550   1 
  -4  -1  11 118.448 4.06776   6 
  -4  -1  11 113.599 4.29430   5 
   3   1 -11 35.2968 2.06608   2 
  -3  -1  11 28.1123 1.91275   5 
  -3  -1  11 37.4217 1.83354   1 
  -3  -1  11 37.7396 1.85069   6 
   2   1 -11 207.263 6.66844   2 
  -2  -1  11 218.735 6.40688   6 
  -2  -1  11 201.733 6.62135   5 
  -2  -1  11 221.553 6.40462   1 
   1   1 -11 -0.5291 0.58767   1 
   1   1 -11 0.80409 0.65356   2 
  -1  -1  11 0.68325 0.62699   1 
  -1  -1  11 0.58767 0.52588   6 
  -1  -1  11 -1.6052 0.59640   5 
   0   1 -11 227.496 6.80475   1 
   0   1 -11 221.608 6.92192   2 
   0  -1  11 213.555 6.90141   5 
   0  -1  11 228.473 6.62103   6 
  -1   1 -11 72.2840 2.94537   1 
  -1   1 -11 67.0663 2.91743   2 
   1  -1  11 64.0616 2.91500   5 
   1  -1  11 74.0447 2.72416   6 
  -2   1 -11 12.6999 1.22526   2 
  -2   1 -11 14.8603 1.35080   1 
   2  -1  11 13.9565 1.29416   5 
   2  -1  11 16.0398 1.17829   6 
  -3   1 -11 150.706 5.13165   1 
  -3   1 -11 156.189 5.07450   2 
   3  -1  11 148.369 4.75834   6 
   3  -1  11 141.848 5.08724   5 
   3  -1  11 151.867 4.77831   6 
  -4   1 -11 92.2369 3.76907   1 
  -4   1 -11 97.5728 3.67131   2 
   4  -1  11 93.1088 3.99140   4 
   4  -1  11 96.4485 3.81133   5 
   4  -1  11 100.567 3.45128   6 
  -5   1 -11 42.3933 2.34870   1 
   5  -1  11 40.0797 2.30441   5 
   5  -1  11 37.2786 1.90596   6 
   5  -1  11 38.1706 2.61405   4 
  -6   1 -11 86.0684 3.67686   1 
   6  -1  11 88.3316 3.71897   5 
   6  -1  11 78.5062 3.92298   4 
   6  -1  11 85.4642 3.21310   6 
  -7   1 -11 -0.2038 0.71291   1 
   7  -1  11 0.76791 0.95554   4 
   7  -1  11 0.39770 0.55161   6 
   7  -1  11 -0.7662 0.72556   5 
   9   0 -11 31.6696 2.49772   3 
  -9   0  11 32.4919 2.25074   5 
   8   0 -11 17.9068 1.86413   3 
  -8   0  11 15.5659 1.58544   5 
   7   0 -11 94.2282 3.96624   3 
   7   0 -11 83.3942 3.53981   2 
  -7   0  11 93.4562 3.83511   5 
   6   0 -11 8.62144 1.11811   2 
   6   0 -11 7.48342 1.19161   3 
  -6   0  11 7.48821 1.19640   5 
   5   0 -11 72.2136 3.09547   2 
   5   0 -11 79.0449 3.24996   3 
  -5   0  11 68.7148 3.12496   5 
   4   0 -11 0.65497 0.64959   2 
   4   0 -11 0.37790 0.65078   3 
  -4   0  11 -0.2149 0.57038   5 
   3   0 -11 184.425 5.93506   2 
  -3   0  11 191.144 5.72327   6 
  -3   0  11 193.753 5.56505   1 
  -3   0  11 167.232 5.85572   5 
   2   0 -11 -0.6235 0.57853   2 
  -2   0  11 0.59415 0.58922   1 
  -2   0  11 0.39342 0.50908   6 
  -2   0  11 -1.9155 0.54315   5 
   1   0 -11 301.286 9.06152   2 
   1   0 -11 313.414 8.82746   1 
  -1   0  11 308.319 9.11051   5 
  -1   0  11 316.617 8.85212   6 
  -1   0  11 315.833 8.75480   1 
   0   0 -11 9.27188 0.98368   1 
   0   0 -11 8.01997 1.01906   2 
   0   0  11 7.52694 0.87512   6 
   0   0  11 4.91989 0.96019   5 
  -1   0 -11 203.493 6.28284   1 
  -1   0 -11 204.809 6.41829   2 
   1   0  11 205.659 6.17739   6 
   1   0  11 207.787 6.45659   5 
  -2   0 -11 37.7153 1.99888   1 
  -2   0 -11 34.5801 1.98350   2 
   2   0  11 34.5909 2.09813   4 
   2   0  11 39.6322 1.84605   6 
   2   0  11 36.9618 2.02338   5 
  -3   0 -11 51.6472 2.44288   2 
  -3   0 -11 53.3576 2.51616   1 
   3   0  11 56.3602 2.32386   6 
   3   0  11 52.9392 2.28256   6 
   3   0  11 54.2392 2.56213   5 
   3   0  11 55.8774 2.77779   4 
  -4   0 -11 4.95068 0.92080   2 
  -4   0 -11 4.40529 0.94822   1 
   4   0  11 4.08996 0.76189   6 
   4   0  11 5.21851 0.97414   5 
   4   0  11 4.34915 1.09929   4 
  -5   0 -11 129.106 4.38888   2 
  -5   0 -11 125.898 4.56564   1 
   5   0  11 122.383 4.19052   6 
   5   0  11 119.259 4.49899   5 
   5   0  11 127.729 4.98080   4 
  -6   0 -11 13.3432 1.37777   1 
   6   0  11 11.7716 1.10542   6 
   6   0  11 11.8821 1.36135   5 
   6   0  11 12.6561 1.61715   4 
  -7   0 -11 26.6935 1.93474   1 
   7   0  11 24.8108 1.63123   6 
   7   0  11 22.3422 2.32947   4 
   7   0  11 28.2459 2.01437   5 
   8   0  11 0.39767 0.95933   4 
   8   0  11 0.75304 0.65628   6 
   8   0  11 0.79657 0.85785   5 
   9  -1 -11 1.30642 1.10199   3 
  -9   1  11 2.79191 1.04166   5 
   8  -1 -11 82.0754 3.78868   3 
  -8   1  11 70.0364 3.40501   5 
   7  -1 -11 19.9313 1.87609   3 
  -7   1  11 17.5865 1.58817   5 
   6  -1 -11 72.6110 3.27147   3 
  -6   1  11 64.0140 3.08970   5 
   5  -1 -11 36.8839 2.18393   3 
   5  -1 -11 31.7487 1.92041   2 
  -5   1  11 27.5294 1.91646   5 
   4  -1 -11 120.506 4.40795   2 
   4  -1 -11 135.793 4.48365   3 
  -4   1  11 124.017 4.51193   5 
   3  -1 -11 8.56960 1.05914   2 
  -3   1  11 6.85926 0.99622   5 
   2  -1 -11 70.6977 2.57502   1 
   2  -1 -11 64.2395 2.80357   2 
  -2   1  11 65.4632 2.86032   5 
  -2   1  11 68.5464 2.67919   6 
   1  -1 -11 11.0290 1.15033   2 
   1  -1 -11 11.2553 0.99857   1 
  -1   1  11 8.59152 1.08184   5 
  -1   1  11 12.4855 1.05366   6 
   0  -1 -11 218.389 6.80455   2 
   0  -1 -11 221.360 6.53055   1 
   0   1  11 225.186 6.60356   6 
   0   1  11 219.777 6.80507   5 
   0   1  11 225.553 6.83110   4 
  -1  -1 -11 28.7859 1.74685   2 
  -1  -1 -11 25.6822 1.59615   1 
   1   1  11 29.7029 1.87218   4 
   1   1  11 29.1202 1.77722   5 
   1   1  11 28.9599 1.62050   6 
  -2  -1 -11 72.4637 2.87640   1 
  -2  -1 -11 70.3254 2.97352   2 
   2   1  11 75.4870 2.81534   6 
   2   1  11 71.1242 3.13252   4 
   2   1  11 74.8061 3.02880   5 
  -3  -1 -11 14.0713 1.24816   2 
  -3  -1 -11 14.8652 1.24544   1 
   3   1  11 14.6905 1.18773   6 
   3   1  11 14.9760 1.19346   6 
   3   1  11 15.0823 1.34380   5 
   3   1  11 15.5702 1.60133   4 
  -4  -1 -11 262.697 7.87345   1 
  -4  -1 -11 262.074 7.80599   2 
   4   1  11 265.031 8.32839   4 
   4   1  11 256.051 7.86875   5 
   4   1  11 268.287 7.67987   6 
  -5  -1 -11 -0.4474 0.56554   2 
  -5  -1 -11 -0.1656 0.59873   1 
   5   1  11 0.16616 0.87994   4 
   5   1  11 1.07389 0.76141   5 
   5   1  11 0.51177 0.56478   6 
  -6  -1 -11 113.011 4.18844   1 
   6   1  11 117.280 4.25376   5 
   6   1  11 109.283 3.91006   6 
   6   1  11 102.525 4.59407   4 
  -7  -1 -11 8.20298 1.17634   1 
   7   1  11 5.83943 1.34370   4 
   7   1  11 6.36406 1.10640   5 
   7   1  11 6.90659 0.96775   6 
  -8  -1 -11 37.1834 2.26808   1 
   8   1  11 36.7580 2.30734   5 
   8   1  11 35.0836 2.00723   6 
   8   1  11 31.7056 2.68981   4 
   9   1  11 6.76101 1.24027   5 
   9  -2 -11 45.9136 2.98821   3 
   8  -2 -11 8.19992 1.45014   3 
  -8   2  11 6.46291 1.18316   5 
   7  -2 -11 71.8620 3.45625   3 
  -7   2  11 64.2363 3.17506   5 
   6  -2 -11 35.0865 2.28702   3 
   6  -2 -11 31.8108 1.91650   2 
  -6   2  11 31.6507 2.08621   5 
   5  -2 -11 110.335 4.08916   2 
   5  -2 -11 124.172 4.43797   3 
  -5   2  11 113.246 4.33092   5 
   4  -2 -11 0.28594 0.63515   2 
   4  -2 -11 0.53938 0.70926   3 
  -4   2  11 -0.5017 0.63005   5 
   3  -2 -11 150.326 5.01966   2 
   3  -2 -11 153.393 4.98829   3 
  -3   2  11 151.004 5.10892   5 
   2  -2 -11 6.79741 0.96565   2 
  -2   2  11 6.36756 0.94214   5 
  -2   2  11 7.33011 1.03545   4 
   1  -2 -11 12.4617 1.03953   1 
   1  -2 -11 10.8954 1.13296   2 
  -1   2  11 11.2411 1.18231   4 
  -1   2  11 11.5567 1.15271   5 
  -1   2  11 11.4899 1.02545   6 
   0  -2 -11 74.8476 2.73431   1 
   0  -2 -11 69.9557 3.00194   2 
   0   2  11 78.8433 3.22068   4 
   0   2  11 79.6112 2.91810   6 
   0   2  11 78.4071 3.07074   5 
  -1  -2 -11 92.0070 3.25701   1 
  -1  -2 -11 90.7442 3.48625   2 
   1   2  11 94.3266 3.72110   4 
   1   2  11 96.7024 3.38012   6 
   1   2  11 98.9392 3.55483   5 
  -2  -2 -11 1.30107 0.67204   2 
  -2  -2 -11 0.45626 0.53383   1 
   2   2  11 0.24765 0.50855   6 
   2   2  11 -0.1538 0.56465   5 
   2   2  11 0.79317 0.71262   4 
  -3  -2 -11 157.223 5.07295   1 
  -3  -2 -11 156.014 5.17855   2 
   3   2  11 159.614 5.17724   5 
   3   2  11 164.215 5.06830   6 
   3   2  11 157.433 5.59354   4 
   3   2  11 165.113 5.06158   6 
  -4  -2 -11 2.30272 0.72368   1 
  -4  -2 -11 2.11530 0.71299   2 
   4   2  11 0.15947 0.85187   4 
   4   2  11 2.24121 0.66576   6 
   4   2  11 1.84461 0.72068   5 
  -5  -2 -11 182.027 5.83177   1 
  -5  -2 -11 191.568 5.85058   2 
   5   2  11 174.631 6.38835   4 
   5   2  11 182.058 5.83004   5 
   5   2  11 180.109 5.67278   6 
  -6  -2 -11 33.5345 1.97987   1 
  -6  -2 -11 32.8418 1.91669   2 
   6   2  11 29.6349 2.47629   4 
   6   2  11 33.0465 2.03360   5 
   6   2  11 35.3512 1.86720   6 
  -7  -2 -11 36.7943 2.17309   1 
   7   2  11 36.9230 2.01308   6 
   7   2  11 37.6279 2.74213   4 
   7   2  11 37.1698 2.19087   5 
  -8  -2 -11 0.46895 0.67239   1 
   8   2  11 0.96151 0.69531   6 
   8   2  11 2.92798 1.22336   4 
   8   2  11 1.60540 0.88947   5 
   9   2  11 73.0740 4.13196   4 
   9   2  11 77.6580 3.47039   5 
   9   2  11 71.8864 3.15561   6 
   8  -3 -11 33.8799 2.52172   3 
  -8   3  11 25.1069 2.07903   5 
   7  -3 -11 0.26057 0.93881   3 
  -7   3  11 0.17623 0.83947   5 
   6  -3 -11 105.682 4.23825   3 
  -6   3  11 90.9624 3.91663   5 
   5  -3 -11 10.8850 1.14227   2 
   5  -3 -11 9.09861 1.33365   3 
  -5   3  11 8.45206 1.16496   5 
   4  -3 -11 119.962 4.20852   2 
   4  -3 -11 121.325 4.39595   3 
  -4   3  11 118.674 4.39400   5 
   3  -3 -11 1.14045 0.70273   3 
   3  -3 -11 0.53664 0.64047   2 
  -3   3  11 0.97348 0.72281   5 
  -3   3  11 1.41920 0.81681   4 
   2  -3 -11 152.716 5.07449   2 
   2  -3 -11 160.070 5.02260   3 
  -2   3  11 156.511 5.29883   4 
  -2   3  11 149.517 5.14635   5 
   1  -3 -11 0.09599 0.60335   2 
  -1   3  11 0.00711 0.70759   4 
  -1   3  11 -0.3814 0.54961   5 
   0  -3 -11 155.846 5.16372   2 
   0   3  11 160.898 5.43114   4 
   0   3  11 159.818 5.13409   5 
  -1  -3 -11 51.8156 2.09908   1 
  -1  -3 -11 49.7188 2.35519   2 
   1   3  11 57.5370 2.31825   6 
   1   3  11 52.3539 2.38246   5 
   1   3  11 52.2216 2.68717   4 
  -2  -3 -11 45.0713 2.02995   1 
  -2  -3 -11 46.6311 2.25440   2 
   2   3  11 46.7507 2.56510   4 
   2   3  11 50.6365 2.29673   5 
   2   3  11 50.9623 2.18542   6 
  -3  -3 -11 16.2341 1.46626   2 
  -3  -3 -11 18.9367 1.31042   1 
   3   3  11 19.4327 1.35950   6 
   3   3  11 20.7920 1.49179   5 
   3   3  11 16.7887 1.69638   4 
   3   3  11 20.5989 1.40181   6 
  -4  -3 -11 178.004 5.59502   1 
  -4  -3 -11 173.056 5.69381   2 
   4   3  11 177.664 6.31315   4 
   4   3  11 187.131 5.73248   5 
   4   3  11 188.388 5.67001   6 
  -5  -3 -11 25.6477 1.67304   1 
  -5  -3 -11 28.4052 1.76921   2 
   5   3  11 28.5456 1.67219   6 
   5   3  11 29.9217 1.77614   5 
   5   3  11 24.1135 2.13120   4 
  -6  -3 -11 144.984 4.78838   2 
  -6  -3 -11 136.784 4.77417   1 
   6   3  11 148.114 4.77344   6 
   6   3  11 142.902 4.81635   5 
   6   3  11 136.133 5.52609   4 
  -7  -3 -11 56.7559 2.66991   1 
   7   3  11 59.1977 2.74720   5 
   7   3  11 61.2025 2.64507   6 
   7   3  11 54.8095 3.29465   4 
  -8  -3 -11 76.0913 3.28706   1 
   8   3  11 72.9587 3.96093   4 
   8   3  11 79.7455 3.36183   5 
   8   3  11 80.7735 3.25576   6 
  -9  -3 -11 3.93951 1.01690   1 
   9   3  11 6.58547 1.52870   4 
   9   3  11 7.48537 1.09929   6 
  10   3  11 41.5762 2.38045   6 
   8  -4 -11 0.77951 1.03273   3 
  -8   4  11 0.99572 0.89638   5 
   7  -4 -11 88.0654 3.92376   3 
  -7   4  11 71.8263 3.52713   5 
   6  -4 -11 0.24010 0.86814   3 
  -6   4  11 1.62006 0.83224   5 
   5  -4 -11 90.4550 3.49244   2 
   5  -4 -11 99.7975 4.00529   3 
  -5   4  11 92.2459 3.96595   4 
  -5   4  11 93.4747 3.82654   5 
   4  -4 -11 10.2732 1.15840   2 
   4  -4 -11 13.1984 1.43490   3 
  -4   4  11 11.3541 1.38797   4 
  -4   4  11 12.5181 1.27542   5 
   3  -4 -11 70.3812 2.96524   2 
   3  -4 -11 76.5873 3.18737   3 
  -3   4  11 71.6995 3.10897   5 
  -3   4  11 77.5296 3.38449   4 
   2  -4 -11 0.02942 0.57975   2 
   2  -4 -11 -0.1534 0.60649   3 
  -2   4  11 1.35216 0.82726   4 
  -2   4  11 -0.3726 0.62456   5 
   1  -4 -11 200.737 6.14534   3 
   1  -4 -11 198.838 6.23539   2 
  -1   4  11 202.540 6.58345   4 
  -1   4  11 202.841 6.22716   5 
   0  -4 -11 4.60911 0.85558   2 
   0   4  11 3.19108 0.98722   4 
   0   4  11 3.28569 0.80470   5 
  -1  -4 -11 178.067 5.69776   2 
   1   4  11 182.381 5.60797   5 
   1   4  11 178.832 6.07916   4 
  -2  -4 -11 108.396 3.89961   2 
  -2  -4 -11 113.147 3.57361   1 
   2   4  11 104.464 4.30321   4 
   2   4  11 113.869 3.85626   5 
  -3  -4 -11 64.2898 2.49525   1 
  -3  -4 -11 66.8947 2.76924   2 
   3   4  11 63.2950 3.15655   4 
   3   4  11 64.9823 2.65430   5 
  -4  -4 -11 32.0992 1.85789   2 
  -4  -4 -11 30.1544 1.68276   1 
   4   4  11 33.7609 2.31269   4 
   4   4  11 33.7457 1.80480   5 
  -5  -4 -11 120.100 4.17304   1 
  -5  -4 -11 125.923 4.31432   2 
   5   4  11 118.838 4.94756   4 
   5   4  11 130.856 4.29786   6 
   5   4  11 127.008 4.25538   5 
  -6  -4 -11 1.61257 0.72479   1 
  -6  -4 -11 -0.2865 0.63625   2 
   6   4  11 -0.1813 0.65135   5 
   6   4  11 1.66534 0.68849   6 
   6   4  11 1.28899 1.06768   4 
  -7  -4 -11 125.323 4.25183   2 
  -7  -4 -11 118.915 4.27976   1 
   7   4  11 122.336 4.25971   5 
   7   4  11 111.493 5.04213   4 
  -8  -4 -11 6.11033 1.06086   1 
   8   4  11 4.94177 1.44281   4 
  -9  -4 -11 33.3286 2.05246   1 
   9   4  11 30.5859 2.71971   4 
   7  -5 -11 -1.3495 0.75753   3 
  -7   5  11 0.66831 0.80799   5 
   6  -5 -11 32.6459 2.04513   6 
   6  -5 -11 39.0978 2.50567   3 
  -6   5  11 35.1713 2.44972   4 
  -6   5  11 36.0089 2.32610   5 
   5  -5 -11 0.65972 0.80787   3 
   5  -5 -11 0.72820 0.63102   6 
   5  -5 -11 -0.7468 0.63256   2 
  -5   5  11 -0.0859 0.81012   4 
  -5   5  11 -0.2239 0.70917   5 
   4  -5 -11 253.520 7.65227   6 
   4  -5 -11 266.178 8.04823   3 
   4  -5 -11 254.330 7.58145   2 
  -4   5  11 246.799 8.15897   4 
  -4   5  11 250.492 7.85190   5 
   3  -5 -11 21.6696 1.54293   6 
   3  -5 -11 21.7023 1.57796   2 
   3  -5 -11 21.8598 1.84066   3 
  -3   5  11 23.3660 1.70795   5 
  -3   5  11 18.8525 1.82846   4 
   2  -5 -11 118.236 4.28369   3 
   2  -5 -11 117.905 4.14126   2 
   2  -5 -11 118.282 4.11213   6 
  -2   5  11 120.655 4.23078   5 
  -2   5  11 118.999 4.59794   4 
   1  -5 -11 27.0819 1.76159   3 
   1  -5 -11 27.8780 1.65152   6 
   1  -5 -11 27.5866 1.70990   2 
  -1   5  11 26.6810 1.75191   5 
  -1   5  11 28.3373 2.08127   4 
   0  -5 -11 162.613 5.24372   2 
   0  -5 -11 158.204 5.15581   3 
   0   5  11 161.768 5.68372   4 
   0   5  11 163.831 5.16424   5 
  -1  -5 -11 31.9927 1.84150   2 
   1   5  11 29.3425 1.69758   5 
   1   5  11 28.8426 2.16223   4 
  -2  -5 -11 99.0414 3.61197   2 
   2   5  11 99.3135 3.48345   5 
   2   5  11 91.5243 3.99291   4 
  -3  -5 -11 14.9060 1.34837   2 
  -3  -5 -11 15.0563 1.09508   1 
   3   5  11 12.6617 1.55458   4 
   3   5  11 15.0513 1.28576   5 
  -4  -5 -11 137.866 4.57214   2 
  -4  -5 -11 133.920 4.23277   1 
   4   5  11 125.345 5.07969   4 
   4   5  11 136.284 4.38549   5 
  -5  -5 -11 56.8199 2.35839   1 
  -5  -5 -11 54.1511 2.52301   2 
   5   5  11 59.7404 2.47238   5 
   5   5  11 50.0694 2.99951   4 
  -6  -5 -11 161.623 5.13779   1 
  -6  -5 -11 163.703 5.27512   2 
   6   5  11 155.996 6.09366   4 
  -7  -5 -11 7.34394 1.03388   2 
  -7  -5 -11 6.11493 1.00333   1 
   7   5  11 6.43190 1.49161   4 
  -8  -5 -11 120.932 4.34162   1 
   8   5  11 121.425 5.34150   4 
  -9  -5 -11 1.15574 0.78302   1 
   9   5  11 -1.1029 1.07883   4 
 -10  -5 -11 31.2595 2.07614   1 
   7  -6 -11 42.0048 2.35646   6 
   7  -6 -11 46.8272 2.89080   3 
  -7   6  11 38.8364 2.80040   4 
  -7   6  11 42.5413 2.63083   5 
   6  -6 -11 0.97981 0.71582   6 
   6  -6 -11 0.71844 0.90812   3 
  -6   6  11 0.34027 0.90219   4 
  -6   6  11 -0.6934 0.68403   5 
   5  -6 -11 34.8095 1.97875   6 
   5  -6 -11 35.7527 2.43618   3 
  -5   6  11 31.3561 2.17852   5 
  -5   6  11 36.2232 2.52113   4 
   4  -6 -11 5.00797 0.90766   6 
   4  -6 -11 5.07646 1.14775   3 
   4  -6 -11 5.65328 0.94616   2 
  -4   6  11 4.35994 1.13171   4 
  -4   6  11 5.60792 1.03997   5 
   3  -6 -11 111.157 4.29886   3 
   3  -6 -11 113.790 3.98706   6 
   3  -6 -11 106.441 3.93563   2 
  -3   6  11 109.886 4.12852   5 
  -3   6  11 110.020 4.54079   4 
   2  -6 -11 46.7309 2.21954   6 
   2  -6 -11 44.0230 2.23807   2 
   2  -6 -11 46.9102 2.50002   3 
  -2   6  11 45.8739 2.72674   4 
  -2   6  11 47.3698 2.38548   5 
   1  -6 -11 123.380 4.43897   3 
   1  -6 -11 120.903 4.29026   2 
   1  -6 -11 124.217 4.26081   6 
  -1   6  11 124.494 4.81289   4 
  -1   6  11 132.427 4.36396   5 
   0  -6 -11 17.7574 1.49632   3 
   0  -6 -11 21.0133 1.43270   6 
   0  -6 -11 17.1717 1.45344   2 
   0   6  11 17.7702 1.84878   4 
   0   6  11 17.9694 1.43550   5 
  -1  -6 -11 221.878 6.58470   6 
  -1  -6 -11 206.235 6.60504   2 
  -1  -6 -11 220.615 6.60356   3 
   1   6  11 211.904 7.17410   4 
   1   6  11 221.260 6.49873   5 
  -2  -6 -11 91.5577 3.51089   2 
   2   6  11 92.1072 4.04430   4 
   2   6  11 98.7679 3.42088   5 
  -3  -6 -11 39.7616 2.09305   2 
   3   6  11 36.5234 2.46461   4 
   3   6  11 39.3609 1.95283   5 
  -4  -6 -11 1.68444 0.71759   2 
   4   6  11 0.78738 0.97831   4 
  -5  -6 -11 29.7210 1.60968   1 
  -5  -6 -11 31.0643 1.83250   2 
   5   6  11 26.8033 2.26288   4 
  -6  -6 -11 0.40671 0.66285   2 
  -6  -6 -11 1.25339 0.63757   1 
   6   6  11 -0.5270 0.92152   4 
  -7  -6 -11 127.427 4.37208   2 
  -7  -6 -11 123.184 4.19312   1 
   7   6  11 110.112 5.07255   4 
  -8  -6 -11 9.45432 1.12063   1 
   8   6  11 6.43785 1.57540   4 
  -9  -6 -11 19.9211 1.58527   1 
   9   6  11 17.6594 2.11923   4 
 -10  -6 -11 24.6923 1.80018   1 
  -7   7  11 0.42300 0.94543   4 
   6  -7 -11 8.64117 1.49591   3 
   6  -7 -11 9.72840 1.18316   6 
  -6   7  11 9.71020 1.39504   5 
  -6   7  11 8.44632 1.48147   4 
   5  -7 -11 28.5579 1.84850   6 
   5  -7 -11 30.3554 2.32312   3 
  -5   7  11 29.6509 2.42945   4 
  -5   7  11 32.6538 2.20271   5 
   4  -7 -11 129.123 4.89423   3 
   4  -7 -11 120.744 4.31670   6 
  -4   7  11 121.135 5.02206   4 
  -4   7  11 118.268 4.53772   5 
   3  -7 -11 15.6643 1.41156   2 
   3  -7 -11 15.2358 1.28013   6 
   3  -7 -11 15.0933 1.57716   3 
  -3   7  11 14.5376 1.69800   4 
  -3   7  11 14.1005 1.40836   5 
   2  -7 -11 76.7519 3.12924   2 
   2  -7 -11 78.0594 3.47679   3 
   2  -7 -11 80.8472 3.12519   6 
  -2   7  11 74.9086 3.68247   4 
  -2   7  11 81.1083 3.24404   5 
   1  -7 -11 63.1772 2.74568   2 
   1  -7 -11 65.8589 2.71044   6 
   1  -7 -11 62.0967 2.92646   3 
  -1   7  11 66.3388 2.76878   5 
  -1   7  11 60.5362 3.23681   4 
   0  -7 -11 79.8893 3.30350   3 
   0  -7 -11 79.2806 3.09254   6 
   0  -7 -11 77.8975 3.15152   2 
   0   7  11 82.4448 3.10629   5 
   0   7  11 76.0097 3.63740   4 
  -1  -7 -11 26.6001 1.75197   3 
  -1  -7 -11 26.0401 1.73781   2 
  -1  -7 -11 27.9247 1.67630   6 
   1   7  11 24.8128 2.12194   4 
   1   7  11 28.9629 1.67065   5 
  -2  -7 -11 130.772 4.31577   6 
  -2  -7 -11 124.030 4.35068   2 
   2   7  11 117.208 4.85877   4 
  -3  -7 -11 0.06099 0.60486   2 
   3   7  11 -0.7505 0.90402   4 
  -4  -7 -11 213.435 6.56456   2 
   4   7  11 204.375 7.22145   4 
  -5  -7 -11 2.68141 0.79522   2 
   5   7  11 1.50419 1.09412   4 
  -6  -7 -11 97.9817 3.72028   2 
  -6  -7 -11 96.8075 3.39878   1 
   6   7  11 92.7193 4.38737   4 
  -7  -7 -11 1.72277 0.86595   2 
   7   7  11 2.57857 1.28494   4 
  -8  -7 -11 80.6847 3.16950   1 
  -8  -7 -11 81.8565 3.34364   2 
   8   7  11 71.7962 4.02603   4 
  -9  -7 -11 33.1704 1.98066   1 
   9   7  11 30.3848 2.75167   4 
 -10  -7 -11 5.91362 1.04967   1 
  -6   8  11 4.07905 1.12943   5 
  -6   8  11 2.30033 1.24296   4 
   5  -8 -11 18.5698 1.52406   6 
   5  -8 -11 18.5681 1.91505   3 
  -5   8  11 17.3691 1.93171   4 
  -5   8  11 15.7841 1.61894   5 
   4  -8 -11 24.0237 1.66806   6 
   4  -8 -11 28.1721 2.25858   3 
  -4   8  11 23.5836 2.20688   4 
  -4   8  11 26.8698 2.00074   5 
   3  -8 -11 83.5468 3.41201   2 
   3  -8 -11 90.2551 3.91929   3 
   3  -8 -11 86.6200 3.35479   6 
  -3   8  11 86.4342 3.57717   5 
   2  -8 -11 5.76977 1.14927   3 
   2  -8 -11 5.33233 1.01364   2 
   2  -8 -11 7.04170 0.95672   6 
  -2   8  11 6.59070 1.06022   5 
  -2   8  11 4.62331 1.27180   4 
   1  -8 -11 115.646 4.12175   6 
   1  -8 -11 118.104 4.27303   2 
   1  -8 -11 122.225 4.59246   3 
  -1   8  11 111.865 4.83405   4 
  -1   8  11 127.968 4.32081   5 
   0  -8 -11 44.6367 2.16797   6 
   0  -8 -11 46.1337 2.45024   3 
   0  -8 -11 44.5991 2.28132   2 
   0   8  11 43.4441 2.76861   4 
  -1  -8 -11 96.2314 3.70051   2 
  -1  -8 -11 95.9499 3.57405   6 
  -1  -8 -11 102.672 3.85241   3 
   1   8  11 94.7654 4.27934   4 
  -2  -8 -11 15.8909 1.30130   6 
  -2  -8 -11 11.4302 1.24576   2 
  -2  -8 -11 13.9388 1.29861   3 
   2   8  11 14.3462 1.73060   4 
  -3  -8 -11 64.9349 2.88696   2 
  -3  -8 -11 68.1056 2.81118   6 
   3   8  11 65.4604 3.44593   4 
  -4  -8 -11 12.9442 1.27839   2 
   4   8  11 11.1751 1.65044   4 
  -5  -8 -11 119.297 4.26016   2 
   5   8  11 109.293 4.84633   4 
  -6  -8 -11 16.0227 1.43633   2 
   6   8  11 13.0655 1.78559   4 
  -7  -8 -11 139.069 4.76760   2 
   7   8  11 122.060 5.42804   4 
  -8  -8 -11 4.53173 0.89661   1 
  -8  -8 -11 2.98046 0.91805   2 
   8   8  11 2.35389 1.33951   4 
  -9  -8 -11 62.8539 2.84250   1 
   9   8  11 59.5768 3.68341   4 
 -10  -8 -11 22.1719 1.77754   1 
  -5   9  11 -1.0209 0.81706   5 
   4  -9 -11 93.7731 3.58974   6 
   4  -9 -11 100.652 4.38332   3 
  -4   9  11 84.5030 4.35630   4 
  -4   9  11 93.0235 3.91938   5 
   3  -9 -11 -0.3162 0.52359   6 
   3  -9 -11 -0.6580 0.81617   3 
  -3   9  11 -0.2740 0.92924   4 
   2  -9 -11 35.4209 2.10077   2 
   2  -9 -11 37.7134 1.98683   6 
   2  -9 -11 39.7721 2.48262   3 
  -2   9  11 36.0637 2.65696   4 
   1  -9 -11 36.2115 2.09178   2 
   1  -9 -11 36.3244 1.95146   6 
   1  -9 -11 35.9187 2.31608   3 
  -1   9  11 36.3297 2.60022   4 
   0  -9 -11 52.7663 2.38174   6 
   0  -9 -11 49.6178 2.50463   2 
   0  -9 -11 51.4610 2.74197   3 
   0   9  11 47.7820 2.98803   4 
  -1  -9 -11 5.43562 1.05201   3 
  -1  -9 -11 4.77057 0.86088   6 
  -1  -9 -11 5.90800 1.04636   2 
   1   9  11 6.24743 1.36795   4 
  -2  -9 -11 131.322 4.66047   3 
  -2  -9 -11 129.388 4.58048   2 
  -2  -9 -11 124.098 4.35288   6 
   2   9  11 120.437 5.13123   4 
  -3  -9 -11 11.2167 1.13323   6 
  -3  -9 -11 10.5292 1.22911   3 
  -3  -9 -11 8.49899 1.16322   2 
   3   9  11 9.32147 1.57505   4 
  -4  -9 -11 77.0138 3.04334   6 
  -4  -9 -11 70.4421 3.12222   2 
   4   9  11 67.2618 3.66803   4 
  -5  -9 -11 43.3539 2.31279   2 
   5   9  11 35.0362 2.72252   4 
  -6  -9 -11 8.22767 1.17402   2 
   6   9  11 8.30568 1.59138   4 
  -7  -9 -11 3.03810 0.98009   2 
   7   9  11 2.39947 1.32033   4 
  -8  -9 -11 73.4687 3.26506   2 
   8   9  11 67.6827 3.90703   4 
  -9  -9 -11 11.2168 1.36443   2 
  -9  -9 -11 11.3175 1.27762   1 
   9   9  11 12.0569 1.96618   4 
 -10  -9 -11 45.5921 2.47945   1 
   3 -10 -11 49.5110 2.34401   6 
   3 -10 -11 50.7689 2.98799   3 
  -3  10  11 44.0056 3.09612   4 
   2 -10 -11 0.43062 0.55610   6 
   2 -10 -11 0.91777 0.73061   2 
   2 -10 -11 0.49073 0.82766   3 
  -2  10  11 -0.8239 0.85188   4 
   1 -10 -11 48.2812 2.58501   2 
   1 -10 -11 57.1394 2.49378   6 
   1 -10 -11 55.3141 2.98553   3 
  -1  10  11 50.2344 3.20149   4 
   0 -10 -11 11.9250 1.29237   2 
   0 -10 -11 14.8237 1.54317   3 
   0 -10 -11 14.5941 1.24096   6 
   0  10  11 14.2829 1.82408   4 
  -1 -10 -11 112.089 3.93587   6 
  -1 -10 -11 105.422 4.09392   2 
  -1 -10 -11 108.332 4.34224   3 
   1  10  11 104.122 4.73115   4 
  -2 -10 -11 3.29191 0.95517   2 
  -2 -10 -11 5.60698 0.90995   6 
  -2 -10 -11 4.06378 1.00312   3 
   2  10  11 3.68651 1.34834   4 
  -3 -10 -11 101.735 4.07984   2 
  -3 -10 -11 112.307 3.97198   6 
  -3 -10 -11 114.399 4.29751   3 
   3  10  11 99.4101 4.69093   4 
  -4 -10 -11 43.9451 2.23713   6 
  -4 -10 -11 43.3727 2.42042   2 
  -4 -10 -11 42.9365 2.40936   3 
   4  10  11 45.6228 2.51454   3 
   4  10  11 35.2869 2.81282   4 
  -5 -10 -11 29.2424 1.82140   6 
  -5 -10 -11 30.3293 2.05063   2 
   5  10  11 25.4369 2.45031   4 
  -6 -10 -11 13.8222 1.42842   2 
   6  10  11 11.0178 1.78018   4 
  -7 -10 -11 41.3374 2.40584   2 
   7  10  11 33.7024 2.80206   4 
  -8 -10 -11 10.8350 1.38966   2 
   8  10  11 10.2496 1.83364   4 
  -9 -10 -11 50.2729 2.74251   2 
   9  10  11 44.1738 3.29413   4 
   2 -11 -11 35.3399 1.93492   6 
   2 -11 -11 28.6863 2.31367   3 
  -2  11  11 33.2561 2.70845   4 
   1 -11 -11 1.14997 0.79074   2 
   1 -11 -11 0.57062 0.84236   3 
   1 -11 -11 0.06138 0.56017   6 
  -1  11  11 1.00260 1.12629   4 
   0 -11 -11 92.8809 4.03645   3 
   0 -11 -11 86.3816 3.67295   2 
   0 -11 -11 88.3729 3.40121   6 
   0  11  11 79.9626 4.25693   4 
  -1 -11 -11 -0.1380 0.59180   6 
  -1 -11 -11 0.89157 0.80258   2 
  -1 -11 -11 0.07919 0.79575   3 
   1  11  11 0.16876 1.11938   4 
  -2 -11 -11 131.684 4.98116   3 
  -2 -11 -11 126.675 4.43779   6 
  -2 -11 -11 130.782 4.81762   2 
   2  11  11 118.968 5.34046   4 
  -3 -11 -11 3.65977 1.10527   2 
  -3 -11 -11 4.38482 0.86695   6 
  -3 -11 -11 4.16719 1.04153   3 
   3  11  11 4.32183 1.51255   4 
  -4 -11 -11 80.5037 3.58167   3 
  -4 -11 -11 78.4368 3.56460   2 
  -4 -11 -11 81.9927 3.29888   6 
   4  11  11 73.7687 4.04105   4 
   4  11  11 83.7595 3.67591   3 
  -5 -11 -11 5.81883 1.20190   2 
  -5 -11 -11 4.69619 0.92043   6 
   5  11  11 6.30638 1.22103   3 
   5  11  11 3.79875 1.41165   4 
  -6 -11 -11 138.417 5.08345   2 
   6  11  11 129.099 5.66191   4 
  -7 -11 -11 2.99020 1.06034   2 
   7  11  11 2.15429 1.37525   4 
  -8 -11 -11 67.6538 3.26262   2 
   8  11  11 63.4356 3.85668   4 
  -9 -11 -11 5.64456 1.16098   2 
   1 -12 -11 4.63548 0.99107   2 
   0 -12 -11 54.0595 3.08986   3 
   0 -12 -11 48.8589 2.68149   2 
   0 -12 -11 51.2339 2.43550   6 
  -1 -12 -11 37.9730 2.48072   3 
  -1 -12 -11 34.1788 2.24135   2 
  -1 -12 -11 33.1027 1.91648   6 
   1  12  11 32.7389 2.72759   4 
  -2 -12 -11 0.39068 0.85019   3 
  -2 -12 -11 0.01774 0.77902   2 
  -2 -12 -11 0.46322 0.59752   6 
   2  12  11 0.47525 1.23050   4 
  -3 -12 -11 120.623 4.32757   6 
  -3 -12 -11 115.957 4.66174   2 
  -3 -12 -11 126.076 4.92465   3 
   3  12  11 116.892 5.35004   4 
  -4 -12 -11 24.9659 2.07619   2 
  -4 -12 -11 26.2309 1.77931   6 
  -4 -12 -11 27.3804 2.17090   3 
   4  12  11 29.9776 2.26242   3 
   4  12  11 27.4404 2.63025   4 
  -5 -12 -11 35.7288 2.40444   2 
  -5 -12 -11 37.4940 2.12903   6 
   5  12  11 39.5207 2.54703   3 
   5  12  11 35.0829 2.88581   4 
  -6 -12 -11 -0.2655 0.82318   2 
  -6 -12 -11 1.05859 0.73002   6 
   6  12  11 -0.6788 1.15693   4 
  -7 -12 -11 81.9939 3.68302   2 
   7  12  11 74.4616 4.25240   4 
  -8 -12 -11 -0.8372 0.78090   2 
  -2 -13 -11 40.3619 2.55981   2 
  -2 -13 -11 48.6967 2.91478   3 
  -3 -13 -11 1.06218 0.64862   6 
  -3 -13 -11 0.15849 0.84492   3 
  -3 -13 -11 0.30577 0.88935   2 
   3  13  11 0.69083 0.97290   3 
  -4 -13 -11 54.9875 2.99230   2 
  -4 -13 -11 56.1284 2.61638   6 
  -4 -13 -11 51.7634 3.05120   3 
   4  13  11 47.4279 3.42380   4 
   4  13  11 56.3352 3.13917   3 
  -5 -13 -11 25.9439 2.09758   2 
  -5 -13 -11 22.3125 1.68344   6 
   5  13  11 23.7671 2.11807   3 
   5  13  11 21.6144 2.34679   4 
   6  13  11 41.7307 2.75791   3 
  -7 -13 -11 1.75037 0.81545   6 
  -4  -7  12 1.69526 0.90040   5 
  -3  -7  12 11.6868 1.42975   5 
  -7  -6  12 7.77583 1.30678   1 
  -7  -6  12 9.12302 1.17339   6 
  -7  -6  12 8.34337 1.24833   5 
  -6  -6  12 36.5589 2.37042   5 
  -6  -6  12 43.3216 2.47997   1 
  -6  -6  12 41.7285 2.25814   6 
   5   6 -12 10.7661 1.54607   2 
  -5  -6  12 13.7968 1.26480   6 
  -5  -6  12 14.8262 1.49452   1 
  -5  -6  12 12.1838 1.45089   5 
   4   6 -12 99.3773 4.34320   2 
  -4  -6  12 93.9050 4.04221   5 
  -4  -6  12 102.991 4.16241   1 
  -4  -6  12 99.8929 3.72017   6 
   3   6 -12 6.00756 1.24404   2 
  -3  -6  12 4.26580 1.07079   5 
  -3  -6  12 7.04807 1.20874   1 
  -3  -6  12 6.86563 0.93096   6 
   2   6 -12 78.0781 3.67583   2 
  -2  -6  12 76.5800 3.47504   1 
  -2  -6  12 69.3233 3.37284   5 
   1   6 -12 4.70107 1.15061   1 
   1   6 -12 4.69770 1.13900   2 
  -1  -6  12 4.47957 1.08902   1 
  -1  -6  12 2.82097 0.67561   6 
  -1  -6  12 2.76381 0.94972   5 
   0   6 -12 119.547 4.82356   2 
  -1   6 -12 4.13598 1.09192   2 
   8   5 -12 1.42028 0.97279   2 
  -8  -5  12 2.87885 0.92590   5 
   7   5 -12 52.2029 2.98131   2 
  -7  -5  12 57.4445 2.88415   1 
  -7  -5  12 51.5362 2.80628   5 
  -7  -5  12 58.1626 2.81215   6 
   6   5 -12 26.5486 2.14200   2 
  -6  -5  12 27.8278 2.02719   5 
  -6  -5  12 33.0485 1.98629   6 
  -6  -5  12 32.1275 2.11214   1 
   5   5 -12 29.3564 2.23343   2 
  -5  -5  12 30.2576 1.87450   6 
  -5  -5  12 26.6135 2.03262   5 
  -5  -5  12 32.2750 2.08893   1 
   4   5 -12 6.02031 1.24115   2 
  -4  -5  12 5.44024 1.12793   5 
  -4  -5  12 6.13688 0.95202   6 
  -4  -5  12 9.41246 1.26271   1 
   3   5 -12 148.232 5.66703   2 
  -3  -5  12 162.731 5.13126   6 
  -3  -5  12 161.219 5.50866   1 
  -3  -5  12 145.035 5.46867   5 
   2   5 -12 2.24664 0.96723   2 
  -2  -5  12 1.61440 0.83039   5 
  -2  -5  12 2.24881 0.90153   1 
  -2  -5  12 3.06243 0.72502   6 
   1   5 -12 87.4703 3.79880   1 
   1   5 -12 83.8381 3.81077   2 
  -1  -5  12 85.3037 3.21035   6 
  -1  -5  12 81.7775 3.68128   5 
  -1  -5  12 89.8080 3.72246   1 
   0   5 -12 0.11479 0.83616   1 
   0   5 -12 -0.3163 0.73480   2 
   0  -5  12 -0.0993 0.72060   5 
   0  -5  12 0.20883 0.48838   6 
  -1   5 -12 86.8746 3.78390   2 
  -1   5 -12 90.8066 3.91708   1 
   1  -5  12 79.4756 3.68736   5 
   1  -5  12 83.0477 3.11581   6 
  -2   5 -12 3.50164 1.05441   2 
   8   4 -12 33.1682 2.26130   2 
  -8  -4  12 33.1742 2.27911   5 
   7   4 -12 4.79860 1.07878   2 
  -7  -4  12 3.23413 0.97636   5 
   6   4 -12 51.4230 2.88611   2 
  -6  -4  12 53.4376 2.58549   6 
  -6  -4  12 53.8848 2.65955   1 
  -6  -4  12 48.8678 2.68828   5 
   5   4 -12 9.14142 1.38095   2 
  -5  -4  12 9.86861 1.16258   6 
  -5  -4  12 10.5711 1.32203   5 
  -5  -4  12 11.1046 1.25427   1 
   4   4 -12 33.1889 2.26640   2 
  -4  -4  12 30.7833 2.09788   5 
  -4  -4  12 31.9451 1.83380   6 
  -4  -4  12 33.2521 2.04863   1 
   3   4 -12 13.4824 1.50813   2 
  -3  -4  12 16.0394 1.43697   1 
  -3  -4  12 15.1616 1.27798   6 
  -3  -4  12 13.6810 1.45874   5 
   2   4 -12 84.9541 3.76388   2 
  -2  -4  12 81.2026 3.61707   5 
  -2  -4  12 89.3746 3.30918   6 
  -2  -4  12 88.7552 3.58583   1 
   1   4 -12 14.8781 1.51965   2 
   1   4 -12 18.7477 1.64149   1 
  -1  -4  12 15.3426 1.46146   1 
  -1  -4  12 19.7844 1.37528   6 
  -1  -4  12 14.2852 1.46657   5 
   0   4 -12 57.4122 2.90162   1 
   0   4 -12 57.8348 2.92589   2 
   0  -4  12 58.7598 2.45165   6 
   0  -4  12 55.1213 2.87573   5 
  -1   4 -12 14.4649 1.51625   2 
  -1   4 -12 14.8462 1.52976   1 
   1  -4  12 13.8121 1.14879   6 
   1  -4  12 14.6206 1.49984   5 
  -2   4 -12 74.3032 3.49370   1 
  -2   4 -12 77.1770 3.44860   2 
   2  -4  12 76.8385 2.92455   6 
   2  -4  12 74.6368 3.45789   5 
   2  -4  12 75.8203 2.91860   6 
  -3   4 -12 18.2082 1.72141   1 
   3  -4  12 14.1685 1.54721   5 
   8   3 -12 12.7963 1.47168   2 
  -8  -3  12 12.5786 1.43167   5 
   7   3 -12 33.6452 2.24936   2 
  -7  -3  12 36.2526 2.29847   5 
   6   3 -12 14.4502 1.48630   2 
  -6  -3  12 11.7335 1.36628   5 
   5   3 -12 16.8133 1.58131   2 
  -5  -3  12 12.5945 1.42855   5 
  -5  -3  12 15.0040 1.32097   6 
  -5  -3  12 18.0975 1.50278   1 
   4   3 -12 28.8617 2.06114   2 
  -4  -3  12 31.0499 1.81057   6 
  -4  -3  12 31.2876 1.91418   1 
  -4  -3  12 28.4747 2.01021   5 
   3   3 -12 67.1089 3.15717   2 
  -3  -3  12 63.7959 3.03108   5 
  -3  -3  12 63.4063 2.85578   1 
  -3  -3  12 66.1311 2.75886   6 
   2   3 -12 11.8129 1.33196   2 
  -2  -3  12 12.2501 1.11473   6 
  -2  -3  12 9.62958 1.26578   5 
  -2  -3  12 12.0214 1.23088   1 
   1   3 -12 30.4938 2.07146   2 
   1   3 -12 33.3940 2.09530   1 
  -1  -3  12 28.9971 2.00501   5 
  -1  -3  12 34.1771 1.79496   6 
  -1  -3  12 32.6339 1.98996   1 
   0   3 -12 1.42038 0.77740   2 
   0   3 -12 2.03922 0.81406   1 
   0  -3  12 2.14621 0.83526   5 
   0  -3  12 0.61815 0.50885   6 
  -1   3 -12 134.350 4.80580   1 
  -1   3 -12 128.538 4.74875   2 
   1  -3  12 126.836 4.27413   6 
   1  -3  12 119.695 4.69572   5 
  -2   3 -12 15.1937 1.50729   1 
  -2   3 -12 12.9569 1.40314   2 
   2  -3  12 12.7763 1.12137   6 
   2  -3  12 15.2116 1.50808   5 
   2  -3  12 14.9654 1.19661   6 
  -3   3 -12 120.458 4.66527   1 
  -3   3 -12 119.922 4.51529   2 
   3  -3  12 117.873 4.63779   5 
   3  -3  12 118.239 4.05284   6 
  -4   3 -12 11.4626 1.43443   1 
   4  -3  12 7.83012 0.94616   6 
   4  -3  12 6.19491 1.19687   5 
   9   2 -12 7.39652 1.51278   3 
   8   2 -12 13.8998 1.48096   2 
   8   2 -12 17.9330 1.87052   3 
  -8  -2  12 17.8900 1.68337   5 
   7   2 -12 4.42554 1.03420   2 
  -7  -2  12 4.74685 1.08464   5 
   6   2 -12 55.3858 2.83207   2 
  -6  -2  12 55.0093 2.83130   5 
   5   2 -12 0.77833 0.76408   2 
  -5  -2  12 1.03472 0.77412   5 
   4   2 -12 62.6215 3.03554   2 
  -4  -2  12 57.1102 2.90696   5 
  -4  -2  12 67.9472 2.80612   1 
  -4  -2  12 69.2408 2.82157   6 
   3   2 -12 14.8050 1.47950   2 
  -3  -2  12 18.3467 1.39031   6 
  -3  -2  12 18.1527 1.43607   1 
  -3  -2  12 16.2905 1.51243   5 
   2   2 -12 144.655 5.26949   2 
  -2  -2  12 161.619 5.07159   1 
  -2  -2  12 149.890 4.90273   6 
  -2  -2  12 141.617 5.19410   5 
   1   2 -12 9.52969 1.20488   2 
   1   2 -12 10.8518 1.21967   1 
  -1  -2  12 8.71262 1.22158   5 
  -1  -2  12 9.28689 1.11708   1 
  -1  -2  12 9.02808 0.99178   6 
   0   2 -12 173.855 5.90043   2 
   0   2 -12 181.415 5.85273   1 
   0  -2  12 179.635 5.54902   6 
   0  -2  12 165.357 5.85909   5 
  -1   2 -12 1.76722 0.78642   2 
  -1   2 -12 2.31993 0.82188   1 
   1  -2  12 1.09592 0.76103   5 
   1  -2  12 2.31378 0.66893   6 
  -2   2 -12 161.492 5.55990   1 
  -2   2 -12 161.440 5.50650   2 
   2  -2  12 156.215 5.56584   5 
   2  -2  12 160.496 5.12529   6 
  -3   2 -12 1.80754 0.86762   1 
  -3   2 -12 2.80120 0.86247   2 
   3  -2  12 2.55058 0.68411   6 
   3  -2  12 0.54756 0.76270   5 
   3  -2  12 1.70220 0.65797   6 
  -4   2 -12 158.018 5.62532   1 
   4  -2  12 153.650 5.04667   6 
   4  -2  12 159.797 5.65675   5 
  -5   2 -12 1.16664 0.85150   1 
   5  -2  12 -0.6538 0.49014   6 
   5  -2  12 0.30529 0.77978   5 
   9   1 -12 43.5566 2.91123   3 
   8   1 -12 19.1274 1.89740   3 
  -8  -1  12 16.7844 1.61770   5 
   7   1 -12 25.6160 1.91301   2 
   7   1 -12 24.7045 2.10495   3 
  -7  -1  12 29.1630 2.07431   5 
   6   1 -12 22.7127 1.76937   2 
  -6  -1  12 19.8132 1.74135   5 
   5   1 -12 72.5461 3.19117   2 
  -5  -1  12 65.1944 3.09941   5 
   4   1 -12 0.54767 0.70262   2 
  -4  -1  12 -1.0077 0.67518   5 
   3   1 -12 117.515 4.51704   2 
  -3  -1  12 128.450 4.29983   6 
  -3  -1  12 126.148 4.22441   1 
  -3  -1  12 120.022 4.50815   5 
   2   1 -12 1.99840 0.77852   2 
   2   1 -12 0.68743 0.72195   1 
  -2  -1  12 1.59100 0.63847   6 
  -2  -1  12 1.54121 0.79550   5 
  -2  -1  12 0.82292 0.67861   1 
   1   1 -12 158.159 5.14361   1 
   1   1 -12 151.584 5.32627   2 
  -1  -1  12 161.373 5.10054   1 
  -1  -1  12 157.727 5.03153   6 
  -1  -1  12 146.112 5.28069   5 
   0   1 -12 4.69064 0.95280   2 
   0   1 -12 3.03237 0.84243   1 
   0  -1  12 2.06948 0.85520   5 
   0  -1  12 4.76985 0.81550   6 
  -1   1 -12 132.197 4.77943   2 
  -1   1 -12 136.130 4.73395   1 
   1  -1  12 138.904 4.51664   6 
   1  -1  12 132.801 4.82511   5 
  -2   1 -12 109.792 4.09116   1 
  -2   1 -12 108.285 4.06510   2 
   2  -1  12 101.141 4.06674   5 
   2  -1  12 105.150 3.74424   6 
  -3   1 -12 64.7748 2.93540   2 
  -3   1 -12 59.7526 2.85754   1 
   3  -1  12 60.5061 2.90878   5 
   3  -1  12 63.1112 2.61433   6 
   3  -1  12 61.3908 2.59655   6 
  -4   1 -12 40.3894 2.26629   2 
  -4   1 -12 36.2331 2.25177   1 
   4  -1  12 38.6242 1.96551   6 
   4  -1  12 37.0992 2.29811   5 
  -5   1 -12 67.9544 3.21775   1 
   5  -1  12 68.2543 3.23111   5 
   5  -1  12 66.1697 2.79219   6 
  -6   1 -12 -0.6401 0.67665   1 
   6  -1  12 0.34852 0.54059   6 
   6  -1  12 -0.1969 0.73838   5 
   9   0 -12 28.0069 2.43167   3 
   8   0 -12 1.22111 1.11420   3 
  -8   0  12 1.97734 0.94020   5 
   7   0 -12 26.0458 2.15566   3 
   7   0 -12 22.4916 1.75892   2 
  -7   0  12 20.3115 1.81058   5 
   6   0 -12 60.1123 2.94517   2 
   6   0 -12 69.4201 3.18115   3 
  -6   0  12 62.6735 3.08265   5 
   5   0 -12 10.3311 1.27099   2 
  -5   0  12 10.6085 1.28541   5 
   4   0 -12 125.494 4.57917   2 
  -4   0  12 122.551 4.55511   5 
   3   0 -12 19.3522 1.61344   2 
  -3   0  12 20.1894 1.69068   5 
   2   0 -12 114.813 4.31670   2 
   2   0 -12 119.926 4.04205   1 
  -2   0  12 123.809 3.98788   1 
  -2   0  12 118.950 4.06563   6 
  -2   0  12 103.033 4.17294   5 
   1   0 -12 30.9155 1.97560   2 
   1   0 -12 29.1805 1.77144   1 
  -1   0  12 29.6401 1.98871   5 
  -1   0  12 32.9038 1.77343   6 
   0   0 -12 221.173 7.20619   2 
   0   0 -12 237.644 7.05579   1 
   0   0  12 245.996 7.03755   6 
   0   0  12 225.758 7.23549   5 
  -1   0 -12 4.97872 0.94036   2 
  -1   0 -12 3.81796 0.83344   1 
   1   0  12 4.84828 0.80922   6 
   1   0  12 4.87434 0.96783   5 
  -2   0 -12 68.2062 2.98990   1 
  -2   0 -12 72.6524 3.10331   2 
   2   0  12 74.2129 2.89203   6 
   2   0  12 72.9369 3.13152   5 
  -3   0 -12 76.0072 3.27559   1 
  -3   0 -12 81.7867 3.35771   2 
   3   0  12 85.9931 3.14970   6 
   3   0  12 77.4491 3.06374   6 
   3   0  12 77.8660 3.35624   5 
  -4   0 -12 47.7238 2.45190   2 
  -4   0 -12 48.1514 2.49311   1 
   4   0  12 49.3297 2.53591   5 
   4   0  12 46.6044 2.74103   4 
   4   0  12 43.7303 2.17536   6 
  -5   0 -12 100.681 3.98275   1 
   5   0  12 102.486 4.03515   5 
   5   0  12 96.8006 4.28119   4 
   5   0  12 97.4696 3.64453   6 
  -6   0 -12 22.9470 1.86854   1 
   6   0  12 28.0084 2.01856   5 
   6   0  12 26.5494 1.69188   6 
   6   0  12 24.4433 2.29741   4 
   7   0  12 15.6284 1.57454   5 
   7   0  12 12.8489 1.26044   6 
   7   0  12 11.6180 1.73875   4 
   8  -1 -12 4.69591 1.31927   3 
  -8   1  12 3.36111 1.03954   5 
   7  -1 -12 104.626 4.32374   3 
  -7   1  12 93.0813 4.06489   5 
   6  -1 -12 22.2834 1.95853   3 
   6  -1 -12 17.9619 1.61991   2 
  -6   1  12 17.5189 1.61526   5 
   5  -1 -12 82.8169 3.41051   3 
   5  -1 -12 75.5620 3.26801   2 
  -5   1  12 70.0060 3.29055   5 
   4  -1 -12 9.44512 1.16650   2 
  -4   1  12 8.92451 1.18753   5 
   3  -1 -12 87.3518 3.49073   2 
  -3   1  12 81.7898 3.45535   5 
   2  -1 -12 21.2032 1.67157   2 
  -2   1  12 22.4767 1.69356   5 
   1  -1 -12 229.528 7.28279   2 
   1  -1 -12 238.690 6.94169   1 
  -1   1  12 227.052 7.28148   5 
  -1   1  12 247.212 7.10955   6 
   0  -1 -12 11.2589 1.08241   1 
   0  -1 -12 13.2545 1.26772   2 
   0   1  12 9.01700 1.23199   5 
   0   1  12 14.5847 1.18189   6 
  -1  -1 -12 216.074 6.59097   1 
  -1  -1 -12 212.216 6.79440   2 
   1   1  12 229.453 6.63892   6 
   1   1  12 211.999 6.82659   5 
  -2  -1 -12 13.9442 1.22081   1 
  -2  -1 -12 10.5591 1.18290   2 
   2   1  12 13.1683 1.27950   5 
   2   1  12 12.4520 1.33866   4 
   2   1  12 12.8457 1.13198   6 
  -3  -1 -12 53.1323 2.54622   2 
  -3  -1 -12 53.2430 2.50264   1 
   3   1  12 52.0218 2.82067   4 
   3   1  12 51.4797 2.34386   6 
   3   1  12 54.9306 2.39961   6 
   3   1  12 49.3545 2.52226   5 
  -4  -1 -12 0.56422 0.71971   2 
  -4  -1 -12 -0.0269 0.66465   1 
   4   1  12 1.80891 0.80941   5 
   4   1  12 0.76543 0.64808   6 
  -5  -1 -12 118.112 4.29128   2 
  -5  -1 -12 114.845 4.35343   1 
   5   1  12 119.826 4.42692   5 
   5   1  12 116.697 4.84355   4 
   5   1  12 121.224 4.16611   6 
  -6  -1 -12 0.54153 0.70757   1 
   6   1  12 -0.7509 0.70842   5 
   6   1  12 0.75872 0.97426   4 
   6   1  12 -1.0613 0.47633   6 
  -7  -1 -12 62.0461 3.02026   1 
   7   1  12 64.9181 2.81979   6 
   7   1  12 63.0125 3.07431   5 
   7   1  12 62.3307 3.58222   4 
   8   1  12 -0.5003 1.08413   4 
   8   1  12 -1.0198 0.78844   5 
   8  -2 -12 80.8943 3.83944   3 
  -8   2  12 63.4707 3.29781   5 
   7  -2 -12 2.66828 1.11918   3 
  -7   2  12 3.48557 1.04700   5 
   6  -2 -12 131.267 4.77278   2 
   6  -2 -12 142.303 5.17036   3 
  -6   2  12 132.353 5.03014   5 
   5  -2 -12 44.0163 2.35476   2 
   5  -2 -12 52.3669 2.68133   3 
  -5   2  12 41.5165 2.44371   5 
   4  -2 -12 85.6881 3.47528   3 
   4  -2 -12 81.3624 3.35697   2 
  -4   2  12 79.1159 3.44623   5 
   3  -2 -12 5.52573 1.01452   2 
  -3   2  12 2.56969 0.82702   5 
   2  -2 -12 133.226 4.67815   2 
  -2   2  12 131.805 4.68861   5 
   1  -2 -12 26.1260 1.78972   2 
  -1   2  12 23.7742 1.72115   5 
   0  -2 -12 69.9131 2.70124   1 
   0  -2 -12 68.1134 2.96872   2 
   0   2  12 69.2475 3.01316   5 
   0   2  12 74.2523 2.88079   6 
   0   2  12 72.1478 3.15675   4 
  -1  -2 -12 0.64637 0.70002   2 
  -1  -2 -12 1.37508 0.63094   1 
   1   2  12 0.61673 0.60300   6 
   1   2  12 1.10069 0.82805   4 
   1   2  12 0.61218 0.71614   5 
  -2  -2 -12 34.0867 1.88446   1 
  -2  -2 -12 36.4448 2.03873   2 
   2   2  12 37.7389 1.92532   6 
   2   2  12 35.9113 2.24807   4 
   2   2  12 38.1149 2.07074   5 
  -3  -2 -12 35.6571 1.92838   1 
  -3  -2 -12 36.5879 2.05678   2 
   3   2  12 33.0948 1.98578   5 
   3   2  12 35.9811 1.91159   6 
   3   2  12 32.8297 2.25621   4 
   3   2  12 36.4643 1.92942   6 
  -4  -2 -12 164.338 5.36693   1 
  -4  -2 -12 158.845 5.38213   2 
   4   2  12 160.107 5.92190   4 
   4   2  12 170.208 5.31982   6 
   4   2  12 162.009 5.44970   5 
  -5  -2 -12 0.91543 0.76600   2 
  -5  -2 -12 1.64184 0.71620   1 
   5   2  12 0.73424 0.72500   5 
   5   2  12 0.86588 1.04998   4 
   5   2  12 1.43312 0.68854   6 
  -6  -2 -12 129.709 4.64828   1 
   6   2  12 123.432 5.20379   4 
   6   2  12 128.319 4.45978   6 
   6   2  12 130.854 4.69942   5 
  -7  -2 -12 6.77880 1.13608   1 
   7   2  12 8.58530 1.54174   4 
   7   2  12 7.75038 1.20459   5 
   7   2  12 9.14472 1.10252   6 
  -8  -2 -12 60.4779 2.93479   1 
   8   2  12 60.0693 3.57971   4 
   8   2  12 56.2611 2.73656   6 
   8   2  12 58.6680 3.02172   5 
   8  -3 -12 15.3281 1.86002   3 
   7  -3 -12 52.5439 3.05790   3 
  -7   3  12 43.4318 2.66611   5 
   6  -3 -12 8.64853 1.39858   3 
  -6   3  12 10.9813 1.40235   5 
   5  -3 -12 78.5592 3.47562   3 
   5  -3 -12 72.0750 3.13639   2 
  -5   3  12 73.8346 3.34971   5 
   4  -3 -12 24.0759 1.73683   2 
   4  -3 -12 24.9818 1.85313   3 
  -4   3  12 24.6086 1.85239   5 
   3  -3 -12 102.890 3.84100   3 
   3  -3 -12 99.7079 3.81811   2 
  -3   3  12 100.262 3.91154   5 
   2  -3 -12 7.84950 1.07559   2 
  -2   3  12 5.73579 0.98703   5 
   1  -3 -12 113.906 4.19995   2 
  -1   3  12 115.408 4.19828   5 
  -1   3  12 119.832 4.44553   4 
   0  -3 -12 1.08091 0.75698   2 
   0   3  12 1.19379 0.73241   5 
   0   3  12 -0.2015 0.73776   4 
  -1  -3 -12 23.0109 1.64274   2 
   1   3  12 22.3538 1.64259   5 
   1   3  12 23.0501 1.88339   4 
  -2  -3 -12 77.3148 2.88292   1 
  -2  -3 -12 74.9566 3.11170   2 
   2   3  12 73.7905 3.44513   4 
   2   3  12 76.4023 3.11168   5 
  -3  -3 -12 7.90749 0.94779   1 
  -3  -3 -12 8.30567 1.04153   2 
   3   3  12 8.44844 1.29205   4 
   3   3  12 8.63195 1.07152   5 
   3   3  12 8.58422 1.00688   6 
   3   3  12 8.02003 1.02672   6 
  -4  -3 -12 2.82888 0.85064   2 
  -4  -3 -12 1.85552 0.70478   1 
   4   3  12 2.54877 0.82144   5 
   4   3  12 1.97143 0.68255   6 
   4   3  12 1.76107 1.03927   4 
  -5  -3 -12 213.813 6.62144   2 
  -5  -3 -12 208.642 6.53932   1 
   5   3  12 196.395 7.20961   4 
   5   3  12 205.807 6.56578   5 
   5   3  12 223.145 6.57695   6 
  -6  -3 -12 21.9609 1.73318   2 
  -6  -3 -12 23.3207 1.67810   1 
   6   3  12 25.2472 1.66118   6 
   6   3  12 17.8663 2.00094   4 
   6   3  12 25.0605 1.78140   5 
  -7  -3 -12 52.4399 2.61517   1 
   7   3  12 49.6085 3.25163   4 
   7   3  12 55.3573 2.57508   6 
   7   3  12 54.3179 2.70545   5 
  -8  -3 -12 14.5907 1.42559   1 
   8   3  12 13.9863 1.34618   6 
   8   3  12 15.2776 1.48869   5 
   8   3  12 12.9899 1.91103   4 
   9   3  12 15.8226 1.48261   6 
   7  -4 -12 29.4398 2.32813   3 
  -7   4  12 27.4151 2.16411   5 
   6  -4 -12 84.3477 3.86809   3 
  -6   4  12 80.0566 3.65229   5 
   5  -4 -12 -1.4270 0.61683   2 
   5  -4 -12 -0.5436 0.83859   3 
  -5   4  12 0.76391 0.76879   5 
   4  -4 -12 71.7280 3.12681   2 
   4  -4 -12 80.6239 3.43648   3 
  -4   4  12 73.9157 3.31618   5 
   3  -4 -12 13.2289 1.28028   2 
   3  -4 -12 12.2906 1.31153   3 
  -3   4  12 12.5946 1.45465   4 
  -3   4  12 12.8418 1.33811   5 
   2  -4 -12 118.602 4.36438   2 
  -2   4  12 124.249 4.71699   4 
  -2   4  12 127.132 4.48579   5 
   1  -4 -12 0.65400 0.69939   2 
  -1   4  12 0.37650 0.68110   5 
  -1   4  12 0.16223 0.85810   4 
   0  -4 -12 226.428 7.07867   2 
   0   4  12 231.001 7.03792   5 
   0   4  12 231.429 7.47792   4 
  -1  -4 -12 2.99857 0.83719   2 
   1   4  12 2.42788 0.84387   5 
   1   4  12 1.76825 1.07393   4 
  -2  -4 -12 120.067 4.41962   2 
   2   4  12 127.249 4.94741   4 
   2   4  12 135.492 4.47583   5 
  -3  -4 -12 30.6708 1.69423   1 
  -3  -4 -12 31.7877 1.92552   2 
   3   4  12 32.2928 1.88067   5 
   3   4  12 30.4641 2.29868   4 
  -4  -4 -12 33.4483 1.98167   2 
  -4  -4 -12 35.9514 1.86598   1 
   4   4  12 36.5305 1.98875   5 
   4   4  12 32.1223 2.38125   4 
  -5  -4 -12 12.0168 1.25155   2 
  -5  -4 -12 13.3258 1.21371   1 
   5   4  12 11.7563 1.73553   4 
   5   4  12 13.4292 1.26306   5 
  -6  -4 -12 199.362 6.33948   1 
  -6  -4 -12 207.503 6.47553   2 
   6   4  12 190.582 7.18903   4 
   6   4  12 212.672 6.45765   5 
  -7  -4 -12 23.2179 1.69612   1 
   7   4  12 20.1867 2.15891   4 
  -8  -4 -12 62.3421 2.89829   1 
   8   4  12 58.8375 3.65438   4 
  -9  -4 -12 9.85812 1.26900   1 
   7  -5 -12 19.2921 1.98250   3 
   6  -5 -12 0.71485 0.93570   3 
  -6   5  12 -0.7003 0.75799   5 
   5  -5 -12 152.158 5.54780   3 
  -5   5  12 144.767 5.34133   5 
   4  -5 -12 -0.9459 0.62476   2 
   4  -5 -12 -0.2931 0.85651   3 
  -4   5  12 1.41694 0.92772   4 
  -4   5  12 0.23317 0.71657   5 
   3  -5 -12 90.2206 3.68510   3 
   3  -5 -12 85.5890 3.43331   2 
  -3   5  12 86.0740 3.86803   4 
  -3   5  12 86.4160 3.56407   5 
   2  -5 -12 9.80310 1.20784   3 
   2  -5 -12 9.31195 1.15648   2 
  -2   5  12 10.6023 1.20878   5 
  -2   5  12 9.99716 1.40109   4 
   1  -5 -12 94.1111 3.65421   2 
  -1   5  12 98.3936 4.12379   4 
  -1   5  12 95.7627 3.64362   5 
   0  -5 -12 0.07429 0.61860   2 
   0   5  12 -0.1932 0.66034   5 
   0   5  12 -0.8454 0.87933   4 
  -1  -5 -12 209.321 6.71205   2 
   1   5  12 214.120 7.23715   4 
   1   5  12 225.385 6.67218   5 
  -2  -5 -12 4.71193 0.91797   2 
   2   5  12 3.50719 1.16716   4 
   2   5  12 3.93990 0.95576   5 
  -3  -5 -12 90.1452 3.54626   2 
   3   5  12 94.4499 3.48074   5 
   3   5  12 90.5202 4.08952   4 
  -4  -5 -12 39.1172 2.13414   2 
  -4  -5 -12 36.3703 1.81482   1 
   4   5  12 39.1099 2.03861   5 
   4   5  12 34.1198 2.51699   4 
  -5  -5 -12 63.0951 2.61373   1 
  -5  -5 -12 64.4082 2.85454   2 
   5   5  12 58.3082 3.33048   4 
   5   5  12 67.5079 2.77773   5 
  -6  -5 -12 21.9009 1.59887   1 
  -6  -5 -12 20.9528 1.69596   2 
   6   5  12 18.3258 1.99922   4 
  -7  -5 -12 86.3973 3.40483   2 
  -7  -5 -12 85.9930 3.34860   1 
   7   5  12 72.9822 4.01862   4 
  -8  -5 -12 0.22314 0.69727   1 
   8   5  12 -0.4046 1.13065   4 
  -9  -5 -12 39.7802 2.27600   1 
   9   5  12 35.2209 2.96695   4 
   6  -6 -12 30.9362 2.43713   3 
  -6   6  12 27.9957 2.14588   5 
   5  -6 -12 1.23313 0.96566   3 
  -5   6  12 1.35420 0.87763   4 
  -5   6  12 0.48956 0.82615   5 
   4  -6 -12 53.2285 2.88560   3 
   4  -6 -12 50.6337 2.51015   2 
  -4   6  12 50.9704 2.97366   4 
  -4   6  12 50.0784 2.68390   5 
   3  -6 -12 20.9466 1.67413   2 
   3  -6 -12 20.2764 1.86228   3 
  -3   6  12 22.3463 1.79441   5 
  -3   6  12 24.4634 2.11682   4 
   2  -6 -12 146.970 5.17909   3 
   2  -6 -12 146.149 4.98088   2 
  -2   6  12 147.979 5.05740   5 
  -2   6  12 140.950 5.46531   4 
   1  -6 -12 2.61249 0.85492   3 
   1  -6 -12 2.34603 0.86769   2 
  -1   6  12 3.20060 1.13601   4 
  -1   6  12 1.11230 0.79248   5 
   0  -6 -12 149.744 5.03647   2 
   0   6  12 148.350 4.93139   5 
   0   6  12 143.510 5.53441   4 
  -1  -6 -12 55.7826 2.66065   2 
   1   6  12 60.1094 2.60569   5 
   1   6  12 56.7642 3.14201   4 
  -2  -6 -12 56.2409 2.63110   2 
   2   6  12 52.0220 3.04401   4 
   2   6  12 58.8853 2.54200   5 
  -3  -6 -12 26.2877 1.77075   2 
   3   6  12 25.3867 1.67080   5 
   3   6  12 24.9323 2.19453   4 
  -4  -6 -12 23.3842 1.71408   2 
   4   6  12 23.1411 2.17543   4 
  -5  -6 -12 24.9715 1.75800   2 
   5   6  12 26.7082 2.33862   4 
  -6  -6 -12 134.147 4.42731   1 
  -6  -6 -12 136.683 4.69462   2 
   6   6  12 121.417 5.35488   4 
  -7  -6 -12 13.0202 1.22573   1 
  -7  -6 -12 12.6491 1.30537   2 
   7   6  12 9.37900 1.70987   4 
  -8  -6 -12 41.2641 2.19310   1 
   8   6  12 36.9912 2.94762   4 
  -9  -6 -12 7.13213 1.09372   1 
   9   6  12 5.77751 1.63960   4 
   6  -7 -12 0.47990 0.65320   6 
  -6   7  12 0.71497 0.98004   4 
   5  -7 -12 77.4367 3.35918   6 
   5  -7 -12 85.1063 3.93738   3 
  -5   7  12 86.8133 3.75288   5 
  -5   7  12 74.3049 3.94878   4 
   4  -7 -12 -0.1577 0.64483   6 
   4  -7 -12 -0.9074 0.78040   3 
  -4   7  12 0.26801 0.74835   5 
  -4   7  12 0.65775 0.96911   4 
   3  -7 -12 24.0723 1.72599   2 
   3  -7 -12 24.5290 1.67655   6 
   3  -7 -12 25.3071 2.09077   3 
  -3   7  12 25.9674 2.19955   4 
  -3   7  12 25.8197 1.92536   5 
   2  -7 -12 21.6930 1.63509   2 
   2  -7 -12 20.5725 1.82359   3 
   2  -7 -12 21.9625 1.57210   6 
  -2   7  12 21.0652 1.71889   5 
  -2   7  12 24.2159 2.20018   4 
   1  -7 -12 88.7755 3.43599   6 
   1  -7 -12 87.0232 3.46899   2 
   1  -7 -12 86.7266 3.68127   3 
  -1   7  12 84.9141 4.01336   4 
  -1   7  12 92.7740 3.52958   5 
   0  -7 -12 19.8174 1.59390   2 
   0  -7 -12 19.9052 1.63995   3 
   0   7  12 16.6076 1.85444   4 
   0   7  12 19.0632 1.53350   5 
  -1  -7 -12 138.562 4.82832   2 
   1   7  12 144.091 4.69334   5 
   1   7  12 135.676 5.41735   4 
  -2  -7 -12 31.6905 1.94977   2 
   2   7  12 29.1895 2.45191   4 
  -3  -7 -12 126.666 4.49327   2 
   3   7  12 124.322 5.12651   4 
  -4  -7 -12 6.81071 1.04428   2 
   4   7  12 5.51443 1.35517   4 
  -5  -7 -12 31.1638 1.96094   2 
   5   7  12 28.1673 2.38661   4 
  -6  -7 -12 -0.6554 0.63569   2 
   6   7  12 -0.4459 1.03881   4 
  -7  -7 -12 80.5316 3.18009   1 
  -7  -7 -12 89.6499 3.53622   2 
   7   7  12 76.7814 4.16500   4 
  -8  -7 -12 -0.0310 0.61237   1 
  -8  -7 -12 -1.3500 0.67860   2 
   8   7  12 -1.1473 0.99570   4 
   9   7  12 43.6925 3.33686   4 
   5  -8 -12 9.03528 1.14509   6 
  -5   8  12 5.69141 1.23393   5 
  -5   8  12 6.76877 1.42358   4 
   4  -8 -12 26.3391 2.21301   3 
   4  -8 -12 27.4678 1.81486   6 
  -4   8  12 23.5143 2.02715   5 
  -4   8  12 23.6593 2.30413   4 
   3  -8 -12 60.3596 2.79306   2 
   3  -8 -12 64.7816 3.27490   3 
   3  -8 -12 57.1932 2.71105   6 
  -3   8  12 59.0148 2.92944   5 
  -3   8  12 61.1397 3.43060   4 
   2  -8 -12 44.9279 2.35715   2 
   2  -8 -12 45.7830 2.67395   3 
   2  -8 -12 40.6886 2.19773   6 
  -2   8  12 45.0583 2.44807   5 
  -2   8  12 44.0440 2.88840   4 
   1  -8 -12 0.06859 0.78644   3 
   1  -8 -12 1.32064 0.74452   2 
   1  -8 -12 0.66572 0.60403   6 
  -1   8  12 1.30057 1.07209   4 
   0  -8 -12 124.639 4.56861   2 
   0  -8 -12 130.225 4.76542   3 
   0  -8 -12 130.295 4.50411   6 
   0   8  12 128.044 5.25206   4 
  -1  -8 -12 19.0864 1.53328   6 
  -1  -8 -12 23.7835 1.71500   2 
  -1  -8 -12 23.3769 1.75104   3 
   1   8  12 21.2765 2.13992   4 
  -2  -8 -12 32.1798 2.02637   2 
   2   8  12 29.6753 2.44079   4 
  -3  -8 -12 39.7954 2.22454   2 
   3   8  12 33.8302 2.63553   4 
  -4  -8 -12 73.1463 3.14307   2 
   4   8  12 65.7472 3.63629   4 
  -5  -8 -12 1.66300 0.79142   2 
   5   8  12 -0.6944 1.04659   4 
  -6  -8 -12 186.545 6.06026   2 
   6   8  12 172.992 6.82386   4 
  -7  -8 -12 10.4453 1.30206   2 
   7   8  12 9.20001 1.79440   4 
  -8  -8 -12 78.0058 3.36742   2 
   8   8  12 68.5773 4.07585   4 
  -9  -8 -12 2.78787 0.86895   1 
 -10  -8 -12 14.0640 1.40253   1 
   4  -9 -12 8.05297 1.10722   6 
  -4   9  12 10.1850 1.66544   4 
   3  -9 -12 24.2027 2.15573   3 
   3  -9 -12 27.2012 1.77554   6 
  -3   9  12 30.7972 2.56579   4 
   2  -9 -12 27.0002 1.75492   6 
   2  -9 -12 27.5345 2.18593   3 
   2  -9 -12 24.9265 1.80494   2 
  -2   9  12 28.1896 2.41742   4 
   1  -9 -12 41.1435 2.25292   2 
   1  -9 -12 39.9344 2.13729   6 
   1  -9 -12 40.1639 2.44074   3 
  -1   9  12 33.7044 2.66145   4 
   0  -9 -12 3.25960 0.95973   2 
   0  -9 -12 2.73353 0.77948   6 
   0  -9 -12 1.96594 0.90298   3 
   0   9  12 2.13574 1.12750   4 
  -1  -9 -12 94.7651 3.65647   6 
  -1  -9 -12 94.9063 3.80921   2 
   1   9  12 96.5893 4.50056   4 
  -2  -9 -12 35.2907 2.01610   6 
  -2  -9 -12 35.4218 2.19314   2 
   2   9  12 36.6261 2.71126   4 
  -3  -9 -12 57.3847 2.80878   2 
   3   9  12 54.3911 3.29904   4 
  -4  -9 -12 21.7678 1.75429   2 
   4   9  12 14.4592 1.94135   4 
  -5  -9 -12 51.5965 2.64268   2 
   5   9  12 44.9068 3.10275   4 
  -6  -9 -12 1.01441 0.80505   2 
   6   9  12 -0.4828 1.14739   4 
  -7  -9 -12 92.8318 3.79708   2 
   7   9  12 82.1803 4.43413   4 
  -8  -9 -12 3.72752 1.06106   2 
   8   9  12 0.74534 1.21124   4 
   3 -10 -12 0.59319 0.54799   6 
   2 -10 -12 66.1768 3.38139   3 
   2 -10 -12 61.5205 2.98948   2 
   2 -10 -12 65.3233 2.88852   6 
  -2  10  12 63.4980 3.72275   4 
   1 -10 -12 -1.7424 0.70628   3 
   1 -10 -12 -0.4149 0.68777   2 
   1 -10 -12 0.20418 0.58862   6 
  -1  10  12 0.79360 1.07800   4 
   0 -10 -12 33.6234 1.93062   6 
   0 -10 -12 32.1350 2.24147   3 
   0 -10 -12 29.1297 2.03112   2 
   0  10  12 29.3580 2.52301   4 
  -1 -10 -12 6.43549 0.98238   6 
  -1 -10 -12 4.65087 1.08017   3 
  -1 -10 -12 4.85992 1.05405   2 
   1  10  12 4.14198 1.42068   4 
  -2 -10 -12 95.2425 3.66612   6 
  -2 -10 -12 94.3690 3.87917   2 
   2  10  12 91.6701 4.53345   4 
  -3 -10 -12 9.01986 1.11155   6 
  -3 -10 -12 7.02568 1.20714   2 
   3  10  12 8.03050 1.69378   4 
  -4 -10 -12 68.0653 3.15553   2 
   4  10  12 62.5592 3.71970   4 
  -5 -10 -12 5.66635 1.13325   2 
   5  10  12 3.47473 1.38216   4 
  -6 -10 -12 56.5417 2.91157   2 
   6  10  12 54.1680 3.52852   4 
  -7 -10 -12 14.3174 1.49678   2 
   7  10  12 6.89441 1.64502   4 
  -8 -10 -12 6.07319 1.19862   2 
   8  10  12 4.92242 1.57011   4 
  -9 -10 -12 13.5856 1.52245   2 
   1 -11 -12 18.4524 1.69185   2 
   1 -11 -12 22.1919 1.58354   6 
   1 -11 -12 22.9697 1.98744   3 
   0 -11 -12 0.24909 0.79380   3 
   0 -11 -12 0.16865 0.62350   6 
   0 -11 -12 -0.1633 0.71511   2 
   0  11  12 0.24106 1.06952   4 
  -1 -11 -12 98.2758 3.73526   6 
  -1 -11 -12 98.2354 4.20280   3 
  -1 -11 -12 91.6201 3.91188   2 
   1  11  12 90.2886 4.57382   4 
  -2 -11 -12 0.07216 0.59008   6 
  -2 -11 -12 0.15273 0.80697   2 
  -2 -11 -12 -0.2874 0.76055   3 
   2  11  12 1.24348 1.25432   4 
  -3 -11 -12 116.392 4.51981   2 
  -3 -11 -12 114.421 4.20111   6 
   3  11  12 104.303 5.05215   4 
  -4 -11 -12 16.0755 1.41581   6 
  -4 -11 -12 16.6637 1.66464   2 
   4  11  12 16.0580 2.09740   4 
  -5 -11 -12 71.2220 3.33987   2 
   5  11  12 62.0288 3.77961   4 
  -6 -11 -12 3.15401 1.04708   2 
   6  11  12 2.53923 1.37093   4 
  -7 -11 -12 45.5527 2.66900   2 
   7  11  12 39.2996 3.12339   4 
  -8 -11 -12 7.31468 1.30280   2 
   0 -12 -12 9.25813 1.29854   2 
  -1 -12 -12 2.52657 0.94657   2 
  -1 -12 -12 3.60364 0.83663   6 
  -1 -12 -12 4.23123 1.09904   3 
  -2 -12 -12 102.082 3.82917   6 
  -2 -12 -12 95.6989 4.11568   2 
   2  12  12 94.6639 4.86865   4 
  -3 -12 -12 0.38293 0.84961   3 
  -3 -12 -12 0.47510 0.63716   6 
  -3 -12 -12 1.04768 0.95061   2 
   3  12  12 -0.4963 1.11434   4 
  -4 -12 -12 35.5175 2.16650   6 
  -4 -12 -12 40.4780 2.53357   2 
   4  12  12 37.6052 3.01734   4 
  -5 -12 -12 22.1487 1.97627   2 
   5  12  12 13.3642 2.04567   4 
  -3 -13 -12 41.7321 2.72999   3 
   3  13  12 40.7619 2.80491   3 
  -4 -13 -12 4.35437 1.17705   3 
   4  13  12 7.27314 1.43084   3 
  -6  -5  13 49.8763 2.72101   1 
  -6  -5  13 48.1267 2.53121   6 
  -5  -5  13 37.9040 2.47410   5 
  -5  -5  13 45.8470 2.57170   1 
  -5  -5  13 42.8122 2.28158   6 
  -4  -5  13 40.9996 2.40757   1 
  -4  -5  13 34.7252 2.38053   5 
  -4  -5  13 36.4060 2.07323   6 
  -3  -5  13 6.77670 1.00640   6 
  -3  -5  13 6.19547 1.12924   1 
  -3  -5  13 3.94724 1.15785   5 
   2   5 -13 102.898 4.47330   2 
   2   5 -13 107.923 4.44086   1 
  -2  -5  13 113.453 4.37746   1 
  -2  -5  13 106.943 3.89177   6 
  -2  -5  13 97.2196 4.28410   5 
   1   5 -13 0.97319 0.89391   1 
  -1  -5  13 0.44173 0.82381   1 
   6   4 -13 0.55395 0.86722   2 
  -6  -4  13 -0.6704 0.78940   5 
  -6  -4  13 0.14386 0.72341   6 
   5   4 -13 23.6416 2.04850   2 
  -5  -4  13 19.1354 1.75359   5 
  -5  -4  13 21.3861 1.63749   6 
  -5  -4  13 22.3720 1.84404   1 
   4   4 -13 69.7203 3.49379   2 
  -4  -4  13 74.3059 3.16885   6 
  -4  -4  13 80.7352 3.42945   1 
   3   4 -13 44.5809 2.70066   2 
  -3  -4  13 50.3841 2.60062   1 
  -3  -4  13 46.4545 2.29739   6 
  -3  -4  13 40.5848 2.53506   5 
   2   4 -13 0.19334 0.74761   2 
   2   4 -13 0.71206 0.88641   1 
  -2  -4  13 -0.3497 0.51516   6 
  -2  -4  13 0.26864 0.77475   1 
  -2  -4  13 -0.7064 0.72548   5 
   1   4 -13 65.6678 3.26535   2 
   1   4 -13 63.9973 3.16518   1 
  -1  -4  13 58.7252 3.09001   5 
  -1  -4  13 64.1561 2.75556   6 
  -1  -4  13 67.6346 3.17114   1 
   0   4 -13 4.37993 1.17745   1 
   0   4 -13 5.95442 1.19868   2 
   0  -4  13 5.07969 0.81596   6 
   0  -4  13 4.42747 1.09916   5 
  -1   4 -13 58.4794 3.04642   1 
  -1   4 -13 58.1152 3.02455   2 
   1  -4  13 54.6431 2.47303   6 
  -2   4 -13 13.5773 1.50516   2 
   7   3 -13 -0.6909 0.77371   2 
  -7  -3  13 0.04471 0.74495   5 
  -6  -3  13 42.9554 2.55461   5 
   5   3 -13 25.4670 2.06938   2 
  -5  -3  13 25.0782 1.97817   5 
  -5  -3  13 30.9601 1.90473   6 
   4   3 -13 21.7712 1.95297   2 
  -4  -3  13 22.9499 1.64086   6 
  -4  -3  13 23.7755 1.75747   1 
  -4  -3  13 21.2930 1.82877   5 
   3   3 -13 0.80341 0.78830   2 
  -3  -3  13 0.62584 0.58603   6 
  -3  -3  13 -0.7829 0.72239   5 
  -3  -3  13 1.38146 0.76024   1 
   2   3 -13 58.9501 3.11692   2 
   2   3 -13 65.0451 3.02782   1 
  -2  -3  13 63.4153 2.92593   1 
  -2  -3  13 62.1334 3.10562   5 
  -2  -3  13 64.1065 2.77312   6 
   1   3 -13 5.16719 1.08593   2 
   1   3 -13 5.98001 1.10832   1 
  -1  -3  13 6.02567 1.11256   1 
  -1  -3  13 5.96690 1.15654   5 
  -1  -3  13 4.98059 0.84634   6 
   0   3 -13 55.1449 2.83663   1 
   0   3 -13 53.6940 2.86895   2 
   0  -3  13 53.6973 2.42824   6 
   0  -3  13 50.8583 2.78132   5 
  -1   3 -13 23.0699 1.90492   2 
  -1   3 -13 23.1679 1.87632   1 
   1  -3  13 21.0433 1.47031   6 
   1  -3  13 22.5483 1.87536   5 
  -2   3 -13 90.7597 3.82364   2 
  -2   3 -13 85.5850 3.79174   1 
   2  -3  13 87.3849 3.31537   6 
   2  -3  13 84.2191 3.27780   6 
   2  -3  13 83.4659 3.78576   5 
   8   2 -13 0.44272 0.88519   2 
   7   2 -13 44.0366 2.60681   2 
  -7  -2  13 43.8917 2.64368   5 
   6   2 -13 -0.9872 0.73199   2 
  -6  -2  13 -0.1842 0.71385   5 
   5   2 -13 43.6215 2.57768   2 
  -5  -2  13 46.0594 2.62388   5 
   4   2 -13 54.4651 2.88005   2 
  -4  -2  13 55.7358 2.58791   6 
  -4  -2  13 48.7199 2.73048   5 
   3   2 -13 26.6136 2.03344   2 
  -3  -2  13 29.9165 1.85239   1 
  -3  -2  13 28.8057 1.76882   6 
  -3  -2  13 24.6362 1.94814   5 
   2   2 -13 0.73163 0.72424   2 
   2   2 -13 1.48545 0.74726   1 
  -2  -2  13 1.19808 0.73522   1 
  -2  -2  13 0.26786 0.58028   6 
  -2  -2  13 -0.3775 0.73273   5 
   1   2 -13 47.4454 2.51182   1 
   1   2 -13 44.7212 2.59788   2 
  -1  -2  13 46.6958 2.59297   5 
  -1  -2  13 49.6353 2.47920   1 
  -1  -2  13 48.5867 2.30293   6 
   0   2 -13 7.51497 1.13150   1 
   0   2 -13 7.97605 1.19177   2 
   0  -2  13 9.52001 1.05437   6 
   0  -2  13 8.78857 1.21126   5 
  -1   2 -13 66.4490 3.14160   2 
  -1   2 -13 68.4533 3.15259   1 
   1  -2  13 67.1196 2.80709   6 
   1  -2  13 63.7596 3.15278   5 
  -2   2 -13 12.1367 1.38152   2 
  -2   2 -13 9.64479 1.34424   1 
   2  -2  13 10.0014 1.08117   6 
   2  -2  13 9.75680 1.33082   5 
   2  -2  13 10.0333 1.07029   6 
  -3   2 -13 123.873 4.80692   1 
  -3   2 -13 123.030 4.74070   2 
   3  -2  13 130.835 4.90101   5 
   3  -2  13 123.628 4.33527   6 
   7   1 -13 0.89499 0.79293   2 
  -7  -1  13 3.15909 0.97269   5 
   6   1 -13 16.7642 1.60385   2 
  -6  -1  13 18.0613 1.65872   5 
   5   1 -13 15.2641 1.51142   2 
  -5  -1  13 13.7219 1.48102   5 
   4   1 -13 25.7782 1.96404   2 
  -4  -1  13 23.5082 1.88237   5 
   3   1 -13 1.05321 0.80941   2 
  -3  -1  13 0.72895 0.80075   5 
  -3  -1  13 1.37176 0.67419   6 
   2   1 -13 148.131 5.32998   2 
   2   1 -13 150.387 5.07029   1 
  -2  -1  13 135.033 5.21991   5 
  -2  -1  13 149.959 5.01943   6 
  -2  -1  13 156.673 5.00473   1 
   1   1 -13 2.81741 0.90855   2 
   1   1 -13 2.87767 0.83153   1 
  -1  -1  13 3.05804 0.74698   6 
  -1  -1  13 1.12331 0.84126   5 
   0   1 -13 116.936 4.54010   2 
   0   1 -13 121.904 4.41841   1 
   0  -1  13 121.213 4.25826   6 
   0  -1  13 122.264 4.60769   5 
  -1   1 -13 20.0676 1.71820   2 
  -1   1 -13 20.4615 1.62786   1 
   1  -1  13 17.4058 1.58746   5 
   1  -1  13 19.0404 1.43545   6 
  -2   1 -13 105.001 4.09495   1 
  -2   1 -13 107.225 4.19089   2 
   2  -1  13 103.973 3.80823   6 
   2  -1  13 99.3473 4.12537   5 
  -3   1 -13 24.9392 1.91683   2 
  -3   1 -13 25.8369 1.92289   1 
   3  -1  13 20.7519 1.85433   5 
   3  -1  13 25.5508 1.63689   6 
   3  -1  13 26.6854 1.68056   6 
  -4   1 -13 108.604 4.38346   1 
  -4   1 -13 116.377 4.37162   2 
   4  -1  13 109.647 3.99855   6 
   4  -1  13 108.258 4.43521   5 
   5  -1  13 1.26154 0.63439   6 
   7   0 -13 40.4385 2.42482   2 
  -7   0  13 39.6580 2.49718   5 
   6   0 -13 13.2160 1.46161   2 
  -6   0  13 13.8317 1.50453   5 
   5   0 -13 59.3320 2.92881   2 
  -5   0  13 53.2619 2.83770   5 
   4   0 -13 29.5949 1.99070   2 
  -4   0  13 21.2513 1.78625   5 
   3   0 -13 62.7243 2.98558   2 
  -3   0  13 58.8798 2.93793   5 
   2   0 -13 -0.1253 0.71445   2 
  -2   0  13 -1.0841 0.50557   6 
  -2   0  13 -1.5790 0.67385   5 
   1   0 -13 190.897 5.99323   1 
   1   0 -13 186.680 6.27318   2 
  -1   0  13 180.801 6.25304   5 
  -1   0  13 195.094 6.02617   6 
   0   0 -13 1.14159 0.72797   2 
   0   0 -13 0.16228 0.63934   1 
   0   0  13 -0.4403 0.71279   5 
   0   0  13 -0.1911 0.57938   6 
  -1   0 -13 112.391 4.10770   1 
  -1   0 -13 109.221 4.20759   2 
   1   0  13 103.645 4.17604   5 
   1   0  13 112.285 3.98460   6 
  -2   0 -13 13.1214 1.32255   1 
  -2   0 -13 14.2866 1.41931   2 
   2   0  13 14.5757 1.26433   6 
   2   0  13 15.5202 1.46364   5 
  -3   0 -13 163.817 5.62949   1 
  -3   0 -13 165.035 5.69198   2 
   3   0  13 160.920 5.73959   5 
   3   0  13 168.851 5.43594   6 
   3   0  13 170.024 5.45707   6 
  -4   0 -13 48.2731 2.61564   1 
  -4   0 -13 50.3037 2.61159   2 
   4   0  13 47.4390 2.34178   6 
   4   0  13 50.1468 2.68137   5 
  -5   0 -13 22.9504 1.88122   1 
   5   0  13 25.2817 1.69354   6 
   5   0  13 26.7878 2.02206   5 
   6   0  13 11.2671 1.21935   6 
   8  -1 -13 14.6311 1.78458   3 
   7  -1 -13 24.9845 2.21344   3 
  -7   1  13 18.7317 1.74997   5 
   6  -1 -13 12.8699 1.39408   2 
  -6   1  13 10.9428 1.41494   5 
   5  -1 -13 10.1073 1.28698   2 
  -5   1  13 12.8721 1.44162   5 
   4  -1 -13 74.1955 3.27313   2 
  -4   1  13 69.6026 3.26033   5 
   3  -1 -13 41.8406 2.36610   2 
  -3   1  13 37.8794 2.31064   5 
   2  -1 -13 116.204 4.38785   2 
  -2   1  13 114.840 4.39337   5 
   1  -1 -13 7.78273 1.17042   2 
  -1   1  13 6.24648 1.17498   5 
   0  -1 -13 147.373 5.28322   2 
   0  -1 -13 153.590 5.02148   1 
   0   1  13 150.994 5.31446   5 
   0   1  13 158.688 5.12965   6 
  -1  -1 -13 3.39759 0.90508   2 
  -1  -1 -13 3.17997 0.81248   1 
   1   1  13 3.38078 0.82068   6 
   1   1  13 3.60627 0.99111   5 
  -2  -1 -13 77.9963 3.15650   1 
  -2  -1 -13 70.3048 3.17763   2 
   2   1  13 73.1806 3.22325   5 
   2   1  13 73.9310 3.03458   6 
  -3  -1 -13 2.23279 0.79934   1 
  -3  -1 -13 1.47102 0.80138   2 
   3   1  13 1.90198 0.72334   6 
   3   1  13 1.30443 0.68801   6 
   3   1  13 1.12845 0.79879   5 
  -4  -1 -13 117.344 4.33357   2 
  -4  -1 -13 112.134 4.26495   1 
   4   1  13 112.502 4.35911   5 
   4   1  13 111.717 4.10292   6 
  -5  -1 -13 21.9571 1.76163   2 
  -5  -1 -13 21.7134 1.75270   1 
   5   1  13 16.6555 1.59628   5 
   5   1  13 20.7849 2.06450   4 
   5   1  13 20.7917 1.56511   6 
  -6  -1 -13 12.1403 1.41466   1 
   6   1  13 12.6980 1.73041   4 
   6   1  13 12.8945 1.50946   5 
   6   1  13 14.8191 1.36684   6 
   7   1  13 30.9827 2.62082   4 
   7  -2 -13 84.5424 3.94766   3 
  -7   2  13 71.9718 3.57325   5 
   6  -2 -13 1.00403 0.98401   3 
   6  -2 -13 0.53860 0.80626   2 
  -6   2  13 1.47200 0.86426   5 
   5  -2 -13 116.694 4.34313   2 
  -5   2  13 109.701 4.47113   5 
   4  -2 -13 9.67855 1.24322   2 
  -4   2  13 11.7598 1.36011   5 
   3  -2 -13 40.7423 2.33033   2 
  -3   2  13 43.1754 2.42542   5 
   2  -2 -13 60.6366 2.85494   2 
  -2   2  13 58.2814 2.86798   5 
   1  -2 -13 112.508 4.31905   2 
  -1   2  13 119.625 4.39555   5 
   0  -2 -13 -0.6371 0.62414   2 
   0   2  13 -1.5026 0.69930   5 
  -1  -2 -13 122.332 4.46911   2 
  -1  -2 -13 124.964 4.20718   1 
   1   2  13 120.389 4.48757   5 
  -2  -2 -13 2.27777 0.82786   2 
  -2  -2 -13 2.50750 0.75629   1 
   2   2  13 3.87726 0.84448   6 
   2   2  13 1.47973 0.85325   5 
  -3  -2 -13 94.0111 3.67468   1 
  -3  -2 -13 97.7754 3.85072   2 
   3   2  13 94.4179 4.13110   4 
   3   2  13 98.8495 3.86565   5 
   3   2  13 102.893 3.75126   6 
   3   2  13 104.761 3.76080   6 
  -4  -2 -13 3.86552 0.93504   2 
  -4  -2 -13 5.30842 0.94003   1 
   4   2  13 3.62403 0.86360   6 
   4   2  13 2.63167 0.91837   5 
   4   2  13 3.08462 1.18712   4 
  -5  -2 -13 63.2738 2.93842   2 
  -5  -2 -13 64.6450 2.94642   1 
   5   2  13 64.2555 2.99963   5 
   5   2  13 59.3685 3.37398   4 
   5   2  13 63.9180 2.82653   6 
  -6  -2 -13 2.46171 0.86580   1 
   6   2  13 1.24697 0.75733   6 
   6   2  13 0.20883 0.88929   5 
   6   2  13 -0.1974 1.02426   4 
  -7  -2 -13 70.6991 3.27996   1 
   7   2  13 71.4309 3.35804   5 
   7   2  13 72.0959 3.90994   4 
   7   2  13 72.4807 3.13740   6 
   7  -3 -13 2.26643 1.10877   3 
   6  -3 -13 91.2815 4.01479   3 
  -6   3  13 82.4240 3.80356   5 
   5  -3 -13 -0.0102 0.72061   2 
   5  -3 -13 -0.0106 0.84528   3 
  -5   3  13 -0.1180 0.78846   5 
   4  -3 -13 103.180 4.02831   2 
  -4   3  13 103.960 4.17792   5 
   3  -3 -13 38.3504 2.19573   2 
  -3   3  13 38.6296 2.28217   5 
   2  -3 -13 54.7825 2.72088   2 
  -2   3  13 57.0173 2.78390   5 
   1  -3 -13 2.21457 0.85701   2 
  -1   3  13 0.37431 0.84040   5 
   0  -3 -13 245.574 7.68485   2 
   0   3  13 250.620 7.70968   5 
  -1  -3 -13 1.26881 0.73727   2 
   1   3  13 0.44868 0.93257   4 
   1   3  13 1.50679 0.88087   5 
  -2  -3 -13 5.20073 0.97045   2 
   2   3  13 4.09759 0.97875   5 
   2   3  13 1.96053 1.01359   4 
  -3  -3 -13 41.5968 2.10884   1 
  -3  -3 -13 43.3638 2.34952   2 
   3   3  13 45.3421 2.35078   5 
  -4  -3 -13 56.2200 2.75206   2 
  -4  -3 -13 55.9175 2.59391   1 
   4   3  13 63.5334 2.81995   5 
   4   3  13 55.6293 3.18218   4 
  -5  -3 -13 1.81061 0.83837   2 
  -5  -3 -13 2.61389 0.79906   1 
   5   3  13 3.27605 0.94166   5 
   5   3  13 1.56740 1.06220   4 
  -6  -3 -13 112.337 4.26895   1 
  -6  -3 -13 118.567 4.33390   2 
   6   3  13 118.011 4.39059   5 
   6   3  13 108.923 5.00023   4 
  -7  -3 -13 -0.4559 0.62079   1 
   7   3  13 0.30243 1.08005   4 
   7   3  13 0.25247 0.80445   5 
   7  -4 -13 4.48272 1.25339   3 
   6  -4 -13 18.9173 1.87661   3 
  -6   4  13 17.4992 1.75458   5 
   5  -4 -13 52.6203 2.96296   3 
   5  -4 -13 53.7588 2.63639   2 
  -5   4  13 54.0845 2.87321   5 
   4  -4 -13 2.76036 0.88319   2 
   4  -4 -13 3.57797 0.98667   3 
  -4   4  13 2.62056 0.97250   5 
   3  -4 -13 63.8618 2.93271   2 
  -3   4  13 62.4543 2.99723   5 
   2  -4 -13 34.8619 2.14369   2 
  -2   4  13 37.5195 2.21830   5 
   1  -4 -13 88.9199 3.68359   2 
  -1   4  13 92.7767 3.72365   5 
  -1   4  13 99.0320 4.09032   4 
   0  -4 -13 -0.1367 0.74252   2 
   0   4  13 0.20702 0.77323   5 
   0   4  13 -0.2459 0.86999   4 
  -1  -4 -13 138.016 4.91001   2 
   1   4  13 137.629 5.29393   4 
   1   4  13 142.909 4.90474   5 
  -2  -4 -13 5.21930 0.99490   2 
   2   4  13 4.14063 0.98212   5 
  -3  -4 -13 10.7083 1.23565   2 
   3   4  13 11.1944 1.25989   5 
   3   4  13 10.2777 1.53134   4 
  -4  -4 -13 65.9133 2.76017   1 
  -4  -4 -13 70.5696 3.04095   2 
   4   4  13 69.5826 2.99253   5 
   4   4  13 59.9086 3.42924   4 
  -5  -4 -13 57.6805 2.62828   1 
  -5  -4 -13 59.4090 2.81547   2 
   5   4  13 61.1623 2.80318   5 
   5   4  13 57.5989 3.31925   4 
  -6  -4 -13 18.0280 1.63814   2 
  -6  -4 -13 15.8577 1.38916   1 
   6   4  13 16.7355 1.49919   5 
   6   4  13 13.8918 1.87531   4 
  -7  -4 -13 84.6630 3.43118   1 
   7   4  13 72.3684 4.06095   4 
  -8  -4 -13 7.52590 1.20553   1 
   6  -5 -13 7.63574 1.40350   3 
  -6   5  13 7.13382 1.28179   5 
   5  -5 -13 5.42214 1.30764   3 
  -5   5  13 5.54134 1.15956   5 
   4  -5 -13 93.5053 4.00823   3 
   4  -5 -13 90.9738 3.66513   2 
  -4   5  13 92.6503 3.91092   5 
   3  -5 -13 -0.5160 0.66897   2 
  -3   5  13 0.74318 0.80251   5 
   2  -5 -13 54.7626 2.65209   2 
  -2   5  13 55.5603 3.06921   4 
  -2   5  13 54.1023 2.72027   5 
   1  -5 -13 36.6843 2.14232   2 
  -1   5  13 36.6616 2.20310   5 
  -1   5  13 36.5302 2.52797   4 
   0  -5 -13 185.103 6.11991   2 
   0   5  13 188.727 6.09304   5 
  -1  -5 -13 -0.0864 0.72301   2 
   1   5  13 -2.1264 0.69559   5 
   1   5  13 -2.6831 0.87972   4 
  -2  -5 -13 169.282 5.74266   2 
   2   5  13 164.360 6.26087   4 
   2   5  13 185.082 5.74260   5 
  -3  -5 -13 -0.0843 0.65362   2 
   3   5  13 0.83082 0.77988   5 
   3   5  13 1.53184 1.03210   4 
  -4  -5 -13 58.5352 2.80264   2 
   4   5  13 61.3724 2.73664   5 
   4   5  13 57.8133 3.33574   4 
  -5  -5 -13 10.5841 1.25909   2 
   5   5  13 9.98330 1.60356   4 
  -6  -5 -13 61.4003 2.74567   1 
  -6  -5 -13 63.9029 2.96040   2 
  -7  -5 -13 15.1722 1.42202   2 
  -7  -5 -13 11.9496 1.31585   1 
   7   5  13 8.83605 1.68937   4 
   8   5  13 51.1866 3.44609   4 
   5  -6 -13 74.3439 3.64431   3 
  -5   6  13 67.4106 3.36711   5 
   4  -6 -13 -1.3566 0.66270   2 
   4  -6 -13 0.04161 0.86489   3 
  -4   6  13 1.59043 0.92403   5 
   3  -6 -13 83.3822 3.46889   2 
   3  -6 -13 91.1443 3.83311   3 
  -3   6  13 80.0340 3.92350   4 
  -3   6  13 85.3627 3.64427   5 
   2  -6 -13 -1.0991 0.65233   2 
  -2   6  13 -0.2779 0.70598   5 
  -2   6  13 -1.0221 0.89611   4 
   1  -6 -13 137.920 4.91674   2 
  -1   6  13 140.552 5.49196   4 
  -1   6  13 140.818 4.91811   5 
   0  -6 -13 4.98674 1.01282   2 
   0   6  13 5.63649 1.04870   5 
   0   6  13 4.75379 1.30738   4 
  -1  -6 -13 129.407 4.73922   2 
   1   6  13 137.606 4.66269   5 
   1   6  13 131.359 5.31309   4 
  -2  -6 -13 5.61624 1.06400   2 
   2   6  13 3.70663 0.94788   5 
   2   6  13 2.16050 1.24961   4 
  -3  -6 -13 130.977 4.71052   2 
   3   6  13 130.713 5.36172   4 
  -4  -6 -13 27.4151 1.88031   2 
   4   6  13 25.4790 2.35821   4 
  -5  -6 -13 57.7766 2.73796   2 
   5   6  13 52.2553 3.26345   4 
  -6  -6 -13 2.11867 0.88961   2 
   6   6  13 0.69427 1.15483   4 
  -7  -6 -13 71.4788 3.13598   2 
   7   6  13 59.9600 3.69387   4 
  -8  -6 -13 12.1810 1.27848   1 
   8   6  13 8.45944 1.74624   4 
   5  -7 -13 1.33667 0.94818   3 
  -5   7  13 1.86286 0.90148   5 
   4  -7 -13 74.0727 3.60065   3 
  -4   7  13 66.9103 3.32779   5 
  -4   7  13 66.6161 3.65004   4 
   3  -7 -13 3.19298 0.89584   2 
   3  -7 -13 2.50360 0.99316   3 
  -3   7  13 1.33733 0.84728   5 
  -3   7  13 2.22212 1.12290   4 
   2  -7 -13 31.7560 2.02081   2 
   2  -7 -13 34.6776 2.31570   3 
  -2   7  13 33.5621 2.49116   4 
  -2   7  13 37.2814 2.22025   5 
   1  -7 -13 31.4977 2.02414   2 
  -1   7  13 31.4786 2.49064   4 
  -1   7  13 32.8704 2.06870   5 
   0  -7 -13 131.146 4.83294   2 
   0   7  13 135.295 5.48966   4 
   0   7  13 142.889 4.82324   5 
  -1  -7 -13 7.23647 1.12818   2 
   1   7  13 4.70334 1.37232   4 
  -2  -7 -13 87.4454 3.53049   2 
   2   7  13 78.2188 3.99654   4 
  -3  -7 -13 11.1191 1.28053   2 
   3   7  13 10.3039 1.65009   4 
  -4  -7 -13 5.21650 1.02371   2 
   4   7  13 6.30249 1.45684   4 
  -5  -7 -13 30.3777 2.01288   2 
   5   7  13 28.6274 2.56168   4 
  -6  -7 -13 35.2869 2.19934   2 
   6   7  13 33.2890 2.73223   4 
  -7  -7 -13 10.5811 1.31174   2 
   7   7  13 8.78329 1.77000   4 
   8   7  13 35.2604 2.94804   4 
  -9  -7 -13 6.58354 1.06348   1 
   4  -8 -13 2.90046 0.86937   6 
   4  -8 -13 2.04465 0.98923   3 
  -4   8  13 0.74621 0.87627   5 
  -4   8  13 1.52675 1.06986   4 
   3  -8 -13 44.7803 2.41941   2 
   3  -8 -13 43.8577 2.34789   6 
   3  -8 -13 41.9569 2.73041   3 
  -3   8  13 43.3932 3.01221   4 
  -3   8  13 44.4163 2.58905   5 
   2  -8 -13 12.0211 1.32641   2 
   2  -8 -13 12.8142 1.51491   3 
  -2   8  13 13.4980 1.38300   5 
  -2   8  13 12.6597 1.73796   4 
   1  -8 -13 31.8320 2.22039   3 
   1  -8 -13 32.8163 2.05658   2 
  -1   8  13 33.8727 2.58811   4 
   0  -8 -13 6.78415 1.09414   2 
   0   8  13 6.25550 1.45152   4 
  -1  -8 -13 76.8134 3.33719   2 
   1   8  13 74.6021 3.89440   4 
  -2  -8 -13 31.3773 2.07486   2 
   2   8  13 29.6388 2.53262   4 
  -3  -8 -13 98.9695 3.91404   2 
   3   8  13 93.1903 4.50787   4 
  -4  -8 -13 19.9145 1.70115   2 
   4   8  13 13.5575 1.91869   4 
  -5  -8 -13 28.2879 1.99881   2 
   5   8  13 28.5195 2.54597   4 
  -6  -8 -13 2.74743 0.96567   2 
   6   8  13 0.70453 1.20539   4 
  -7  -8 -13 104.061 4.12557   2 
   7   8  13 90.3039 4.71452   4 
  -8  -8 -13 1.46843 0.90545   2 
   3  -9 -13 7.09968 1.29876   3 
   3  -9 -13 4.56608 0.94310   6 
  -3   9  13 5.27414 1.43566   4 
   2  -9 -13 14.9311 1.47719   2 
   2  -9 -13 15.0504 1.69873   3 
   2  -9 -13 20.1194 1.57715   6 
  -2   9  13 19.1320 2.05526   4 
   1  -9 -13 47.8880 2.41018   6 
   1  -9 -13 41.5842 2.41051   2 
   1  -9 -13 45.0603 2.65984   3 
  -1   9  13 42.1740 2.95787   4 
   0  -9 -13 28.4868 2.03158   2 
   0  -9 -13 32.2501 1.96931   6 
   0   9  13 31.4216 2.60940   4 
  -1  -9 -13 5.26350 1.07509   2 
   1   9  13 2.31889 1.32492   4 
  -2  -9 -13 103.348 4.12848   2 
   2   9  13 101.101 4.75521   4 
  -3  -9 -13 8.01500 1.25854   2 
   3   9  13 7.75770 1.58305   4 
  -4  -9 -13 13.8321 1.47774   2 
   4   9  13 13.8456 1.91163   4 
  -5  -9 -13 25.8039 1.96909   2 
   5   9  13 22.1897 2.35278   4 
  -6  -9 -13 69.7364 3.20592   2 
   6   9  13 55.6069 3.65850   4 
  -7  -9 -13 4.04359 1.08020   2 
   7   9  13 1.41925 1.39029   4 
  -8  -9 -13 132.138 5.00425   2 
   2 -10 -13 0.46322 0.56393   6 
   2 -10 -13 0.31688 0.75896   2 
   2 -10 -13 1.09949 0.87637   3 
   1 -10 -13 30.5027 2.26923   3 
   1 -10 -13 28.8171 1.87548   6 
   1 -10 -13 30.8008 2.07045   2 
  -1  10  13 25.6597 2.47310   4 
   0 -10 -13 2.59985 0.97899   3 
   0 -10 -13 4.47500 0.90994   6 
   0 -10 -13 2.29664 0.90217   2 
   0  10  13 2.57461 1.28849   4 
  -1 -10 -13 39.2089 2.22019   6 
  -1 -10 -13 38.9136 2.36257   2 
   1  10  13 41.8141 3.02928   4 
  -2 -10 -13 10.4203 1.35572   2 
   2  10  13 6.53302 1.57375   4 
  -3 -10 -13 43.8268 2.53860   2 
   3  10  13 43.4238 3.11453   4 
  -4 -10 -13 17.5723 1.63605   2 
   4  10  13 17.9901 2.16333   4 
  -5 -10 -13 29.6147 2.14163   2 
   5  10  13 29.1359 2.71110   4 
  -6 -10 -13 5.67469 1.18478   2 
   6  10  13 6.00797 1.65642   4 
  -7 -10 -13 59.3416 3.08465   2 
   0 -11 -13 31.2673 1.96369   6 
   0 -11 -13 26.8594 2.07979   2 
   0 -11 -13 35.0078 2.41131   3 
  -1 -11 -13 3.33964 1.02247   3 
  -1 -11 -13 1.63598 0.77825   6 
  -1 -11 -13 0.90544 0.93721   2 
  -2 -11 -13 51.8466 2.88375   2 
  -2 -11 -13 59.5312 2.77919   6 
   2  11  13 55.8733 3.60474   4 
  -3 -11 -13 9.30485 1.40599   2 
   3  11  13 7.32694 1.83511   4 
  -4 -11 -13 62.4446 3.16574   2 
   4  11  13 59.4698 3.79024   4 
  -5 -11 -13 1.55124 0.99147   2 
   5  11  13 -0.1883 1.30106   4 
  -2 -12 -13 0.89302 0.65289   6 
  -3 -12 -13 74.0994 3.26521   6 
  -4  -4  14 80.1504 3.53574   1 
  -4  -4  14 75.3927 3.28055   6 
   3   4 -14 17.0626 1.74711   1 
  -3  -4  14 20.9478 1.78720   1 
   2   4 -14 28.3324 2.17060   1 
  -2  -4  14 26.9689 2.05608   1 
  -4  -3  14 4.56972 0.91493   6 
   3   3 -14 33.9609 2.27153   1 
   3   3 -14 35.1783 2.39065   2 
  -3  -3  14 36.7559 2.24153   1 
  -3  -3  14 28.8716 2.20622   5 
  -3  -3  14 32.1623 2.00847   6 
   2   3 -14 33.5922 2.25918   1 
   2   3 -14 30.2548 2.27352   2 
  -2  -3  14 35.0355 2.20547   1 
  -2  -3  14 25.3482 2.11565   5 
  -2  -3  14 30.2327 1.87003   6 
   1   3 -14 25.5953 1.95736   1 
   1   3 -14 21.9924 1.98446   2 
  -1  -3  14 21.1701 1.56541   6 
   0   3 -14 4.86978 1.12316   2 
   0   3 -14 3.36850 0.97714   1 
   0  -3  14 4.56999 0.86211   6 
   5   2 -14 9.60025 1.39896   2 
  -5  -2  14 9.11472 1.36316   5 
   4   2 -14 22.2580 2.00523   2 
  -4  -2  14 22.2759 1.92505   5 
   3   2 -14 13.3650 1.52272   2 
  -3  -2  14 7.26009 1.25653   5 
  -3  -2  14 12.1432 1.27014   6 
   2   2 -14 21.9373 1.94154   2 
   2   2 -14 27.4356 1.92369   1 
  -2  -2  14 21.7317 1.88109   5 
  -2  -2  14 28.7628 1.95521   1 
  -2  -2  14 23.5671 1.71959   6 
   1   2 -14 2.95187 0.93630   1 
   1   2 -14 2.95593 0.96659   2 
  -1  -2  14 0.46629 0.81320   5 
  -1  -2  14 3.89152 0.85804   6 
   0   2 -14 65.0472 3.21190   2 
   0   2 -14 64.0770 3.08487   1 
   0  -2  14 54.7968 3.02909   5 
   0  -2  14 65.7837 2.83887   6 
  -1   2 -14 12.5878 1.45832   2 
  -1   2 -14 12.7664 1.44649   1 
   1  -2  14 12.2560 1.21149   6 
   1  -2  14 12.7160 1.49497   5 
  -2   2 -14 59.5148 3.04894   2 
  -2   2 -14 53.9469 2.92800   1 
   2  -2  14 53.4791 2.55717   6 
   2  -2  14 56.7651 2.59782   6 
  -3   2 -14 25.1442 1.99902   2 
   6   1 -14 -0.6051 0.79530   2 
   5   1 -14 35.2800 2.39234   2 
  -5  -1  14 35.6568 2.35400   5 
   4   1 -14 8.93683 1.35158   2 
  -4  -1  14 8.01838 1.29541   5 
   3   1 -14 92.2386 3.99556   2 
  -3  -1  14 88.4256 3.91662   5 
   2   1 -14 10.3618 1.36518   2 
  -2  -1  14 8.57996 1.31438   5 
  -2  -1  14 9.54671 1.13718   6 
   1   1 -14 34.2951 2.12869   1 
   1   1 -14 34.5136 2.30982   2 
  -1  -1  14 38.3433 2.12013   6 
  -1  -1  14 35.6816 2.30746   5 
   0   1 -14 0.92665 0.75816   1 
   0   1 -14 0.22916 0.74975   2 
   0  -1  14 1.39667 0.67857   6 
   0  -1  14 -0.0766 0.75937   5 
  -1   1 -14 60.2467 3.10935   2 
  -1   1 -14 64.8264 3.04316   1 
   1  -1  14 62.3847 3.12033   5 
   1  -1  14 64.3785 2.83251   6 
  -2   1 -14 12.1540 1.39230   1 
  -2   1 -14 12.5720 1.45418   2 
   2  -1  14 12.1543 1.23260   6 
   2  -1  14 10.5721 1.45388   5 
   2  -1  14 13.3749 1.24364   6 
  -3   1 -14 101.262 4.18080   2 
  -3   1 -14 93.2581 4.06956   1 
   3  -1  14 106.248 3.89450   6 
   3  -1  14 103.054 3.86504   6 
   7   0 -14 -0.2343 0.85413   2 
   6   0 -14 81.9633 3.73397   2 
   5   0 -14 6.69248 1.20573   2 
  -5   0  14 5.61714 1.15732   5 
   4   0 -14 8.07887 1.28657   2 
  -4   0  14 9.82250 1.35606   5 
   3   0 -14 51.6274 2.86927   2 
  -3   0  14 54.0318 2.88922   5 
   2   0 -14 66.9162 3.20685   2 
  -2   0  14 59.5781 3.09651   5 
   1   0 -14 0.62008 0.80298   2 
  -1   0  14 0.59178 0.63006   6 
  -1   0  14 0.00066 0.81416   5 
   0   0 -14 124.391 4.48332   1 
   0   0 -14 120.992 4.70332   2 
   0   0  14 129.011 4.49342   6 
   0   0  14 120.020 4.75027   5 
  -1   0 -14 6.67213 1.17365   2 
  -1   0 -14 7.26499 1.07268   1 
   1   0  14 7.70791 1.25604   5 
   1   0  14 7.42585 1.05897   6 
  -2   0 -14 100.706 4.09526   2 
  -2   0 -14 97.0456 3.93260   1 
   2   0  14 98.1419 4.09081   5 
   2   0  14 97.5402 3.78478   6 
  -3   0 -14 11.2905 1.40448   2 
  -3   0 -14 11.5874 1.34732   1 
   3   0  14 12.4762 1.27112   6 
   3   0  14 11.6649 1.45228   5 
   3   0  14 9.77701 1.15735   6 
  -4   0 -14 47.4675 2.63712   1 
  -4   0 -14 48.5501 2.67444   2 
   4   0  14 44.9203 2.34287   6 
   4   0  14 45.5065 2.67129   5 
   6  -1 -14 14.6513 1.56117   2 
   5  -1 -14 20.1503 1.81536   2 
  -5   1  14 20.9636 1.84582   5 
   4  -1 -14 37.9028 2.39247   2 
  -4   1  14 35.3489 2.33527   5 
   3  -1 -14 80.9156 3.59666   2 
  -3   1  14 76.8361 3.57049   5 
   2  -1 -14 12.7174 1.44473   2 
  -2   1  14 12.2275 1.50556   5 
   1  -1 -14 90.1674 3.86382   2 
  -1   1  14 96.3711 3.98661   5 
   0  -1 -14 0.17381 0.73197   2 
   0   1  14 -0.9852 0.76780   5 
  -1  -1 -14 86.6287 3.44848   1 
  -1  -1 -14 84.8886 3.68218   2 
   1   1  14 85.8587 3.72516   5 
   1   1  14 90.8151 3.53024   6 
  -2  -1 -14 6.90954 1.03373   1 
  -2  -1 -14 7.89537 1.19558   2 
   2   1  14 8.29005 1.09317   6 
   2   1  14 4.67741 1.12090   5 
  -3  -1 -14 163.684 5.68116   1 
  -3  -1 -14 169.040 5.84917   2 
   3   1  14 168.962 5.61476   6 
   3   1  14 167.770 5.87692   5 
   3   1  14 166.262 5.58887   6 
  -4  -1 -14 0.79497 0.82736   2 
  -4  -1 -14 0.95848 0.79027   1 
   4   1  14 1.11674 0.73266   6 
   4   1  14 1.00693 0.90085   5 
  -5  -1 -14 85.7890 3.70420   1 
   5   1  14 85.0767 3.79958   5 
   5   1  14 89.2264 3.55319   6 
   6  -2 -14 28.3956 2.06410   2 
   5  -2 -14 9.43641 1.31040   2 
  -5   2  14 8.61560 1.27826   5 
   4  -2 -14 50.2896 2.70565   2 
  -4   2  14 50.7792 2.79105   5 
   3  -2 -14 34.8050 2.21116   2 
  -3   2  14 30.2080 2.17206   5 
   2  -2 -14 86.6634 3.70137   2 
  -2   2  14 84.3458 3.70238   5 
   1  -2 -14 6.66587 1.16205   2 
  -1   2  14 4.30177 1.10585   5 
   0  -2 -14 99.9579 4.01138   2 
   0   2  14 98.9284 4.03482   5 
  -1  -2 -14 6.96081 1.15687   2 
   1   2  14 3.97518 1.06045   5 
  -2  -2 -14 58.2159 2.86414   2 
   2   2  14 58.8243 2.89271   5 
  -3  -2 -14 5.08505 0.93642   1 
  -3  -2 -14 5.99441 1.07391   2 
   3   2  14 5.31146 1.11487   5 
  -4  -2 -14 128.779 4.79160   2 
  -4  -2 -14 115.991 4.54716   1 
   4   2  14 131.467 4.85294   5 
   4   2  14 137.204 4.69358   6 
  -5  -2 -14 3.87158 1.07831   2 
  -5  -2 -14 5.28105 1.04336   1 
   5   2  14 5.49678 0.99413   6 
   5   2  14 5.70228 1.14478   5 
  -6  -2 -14 28.4963 2.05211   1 
   6   2  14 32.8460 2.23902   5 
   6   2  14 32.2357 2.00581   6 
   5  -3 -14 74.7177 3.36730   2 
  -5   3  14 69.7804 3.47191   5 
   4  -3 -14 0.40153 0.79778   2 
  -4   3  14 0.22668 0.74261   5 
   3  -3 -14 93.5701 3.83947   2 
  -3   3  14 87.7230 3.84512   5 
   2  -3 -14 21.9893 1.83071   2 
  -2   3  14 20.4872 1.81272   5 
   1  -3 -14 57.7251 2.88988   2 
  -1   3  14 58.8299 2.90002   5 
   0  -3 -14 15.0890 1.46634   2 
   0   3  14 12.7227 1.42963   5 
  -1  -3 -14 54.6697 2.73662   2 
   1   3  14 52.5409 2.73168   5 
  -2  -3 -14 12.1558 1.35250   2 
   2   3  14 10.3353 1.31217   5 
  -3  -3 -14 77.9673 3.42590   2 
   3   3  14 78.3298 3.40739   5 
  -4  -3 -14 1.44007 0.70813   1 
  -4  -3 -14 0.67580 0.84856   2 
   4   3  14 2.17076 0.94993   5 
   4   3  14 1.08842 0.98292   4 
  -5  -3 -14 57.6811 2.88844   2 
  -5  -3 -14 57.3666 2.75601   1 
   5   3  14 55.0428 3.33992   4 
   5   3  14 60.4865 2.94630   5 
  -6  -3 -14 13.6423 1.40716   1 
   6   3  14 15.0911 1.95261   4 
   6   3  14 12.6446 1.46626   5 
   5  -4 -14 -0.3322 0.75431   2 
  -5   4  14 0.47765 0.83204   5 
   4  -4 -14 58.9693 2.90388   2 
  -4   4  14 55.8179 2.98188   5 
   3  -4 -14 -0.6298 0.75502   2 
  -3   4  14 0.11520 0.79087   5 
   2  -4 -14 57.1369 2.84276   2 
  -2   4  14 53.3410 2.81142   5 
   1  -4 -14 9.09703 1.28966   2 
  -1   4  14 10.1933 1.33631   5 
   0  -4 -14 90.8365 3.83006   2 
   0   4  14 97.0022 3.87873   5 
  -1  -4 -14 -0.6764 0.68873   2 
   1   4  14 -0.9534 0.79286   5 
  -2  -4 -14 75.0988 3.35288   2 
   2   4  14 74.1012 3.76085   4 
   2   4  14 79.6547 3.37372   5 
  -3  -4 -14 3.51230 0.95092   2 
   3   4  14 3.65633 1.20641   4 
   3   4  14 3.28559 0.99839   5 
  -4  -4 -14 50.7539 2.66432   2 
   4   4  14 54.6557 2.71637   5 
   4   4  14 49.5953 3.11068   4 
  -5  -4 -14 54.7074 2.77595   2 
   5   4  14 56.6796 2.79383   5 
   5   4  14 51.0160 3.25940   4 
  -6  -4 -14 13.8638 1.47747   2 
  -6  -4 -14 12.4741 1.31776   1 
   6   4  14 13.5653 1.86694   4 
  -7  -4 -14 0.31900 0.69932   1 
   4  -5 -14 29.0088 2.00749   2 
  -4   5  14 29.0180 2.17313   5 
   3  -5 -14 34.7992 2.17282   2 
  -3   5  14 35.0721 2.28650   5 
   2  -5 -14 -0.4912 0.72455   2 
  -2   5  14 0.30709 0.77027   5 
   1  -5 -14 114.402 4.39188   2 
  -1   5  14 113.756 4.38626   5 
   0  -5 -14 11.5334 1.37544   2 
   0   5  14 12.7335 1.68138   4 
   0   5  14 12.9651 1.38992   5 
  -1  -5 -14 75.6449 3.35450   2 
   1   5  14 72.6065 3.76486   4 
   1   5  14 80.4811 3.36919   5 
  -2  -5 -14 3.38436 0.92336   2 
   2   5  14 3.39867 1.02154   5 
   2   5  14 2.51945 1.20653   4 
  -3  -5 -14 97.7762 3.95866   2 
   3   5  14 101.149 3.91187   5 
   3   5  14 97.3297 4.51865   4 
  -4  -5 -14 0.53179 0.77131   2 
   4   5  14 0.59297 1.04997   4 
  -5  -5 -14 100.327 3.92401   2 
   5   5  14 84.6959 4.45587   4 
  -6  -5 -14 44.7506 2.52754   2 
   6   5  14 39.4383 2.99781   4 
  -7  -5 -14 21.5151 1.70605   1 
   7   5  14 20.9231 2.30837   4 
   5  -6 -14 7.33610 1.35802   3 
   4  -6 -14 0.97348 0.85022   2 
  -4   6  14 3.73229 1.02769   5 
   3  -6 -14 0.16632 0.80678   2 
  -3   6  14 0.82501 0.88139   5 
   2  -6 -14 88.0675 3.75925   2 
  -2   6  14 96.1290 3.86364   5 
   1  -6 -14 -0.0594 0.71586   2 
  -1   6  14 0.84368 0.86583   5 
  -1   6  14 0.35256 1.01480   4 
   0  -6 -14 94.4451 3.90264   2 
   0   6  14 100.576 3.90783   5 
   0   6  14 93.5175 4.37383   4 
  -1  -6 -14 43.0888 2.45625   2 
   1   6  14 42.5535 2.43169   5 
   1   6  14 43.2012 2.90529   4 
  -2  -6 -14 95.9786 3.91698   2 
   2   6  14 89.8643 4.38068   4 
   2   6  14 102.289 3.86937   5 
  -3  -6 -14 3.37796 0.98138   2 
   3   6  14 4.74543 1.34843   4 
  -4  -6 -14 128.917 4.74619   2 
   4   6  14 122.875 5.41370   4 
  -5  -6 -14 1.35867 0.80254   2 
   5   6  14 1.50056 1.22507   4 
  -6  -6 -14 51.8941 2.72475   2 
   6   6  14 46.6966 3.28914   4 
  -7  -6 -14 8.26678 1.18353   2 
   4  -7 -14 16.9901 1.77814   3 
  -4   7  14 17.9223 1.70950   5 
   3  -7 -14 31.5880 2.08439   2 
  -3   7  14 34.7422 2.28385   5 
   2  -7 -14 -0.6749 0.65241   2 
  -2   7  14 -1.0055 0.92154   4 
  -2   7  14 0.37601 0.79493   5 
   1  -7 -14 98.8340 4.04439   2 
  -1   7  14 104.868 4.05513   5 
  -1   7  14 99.2127 4.62818   4 
   0  -7 -14 0.33037 0.80230   2 
   0   7  14 -1.0946 0.99086   4 
  -1  -7 -14 108.856 4.32556   2 
   1   7  14 114.909 4.99586   4 
  -2  -7 -14 4.04466 1.02738   2 
   2   7  14 1.29964 1.17469   4 
  -3  -7 -14 84.9765 3.56103   2 
   3   7  14 76.0433 4.10739   4 
  -4  -7 -14 17.2495 1.58418   2 
   4   7  14 16.9124 2.04731   4 
  -5  -7 -14 96.5053 3.92809   2 
   5   7  14 90.6521 4.62570   4 
  -6  -7 -14 10.0631 1.33116   2 
   6   7  14 9.13566 1.67629   4 
  -7  -7 -14 27.1659 2.03419   2 
   3  -8 -14 5.99446 1.22856   3 
   3  -8 -14 4.25857 1.00787   2 
  -3   8  14 1.91128 1.21539   4 
   2  -8 -14 64.4733 3.00958   2 
  -2   8  14 58.5045 3.53678   4 
   1  -8 -14 -0.5075 0.69415   2 
  -1   8  14 -0.4279 1.10057   4 
   0  -8 -14 58.6795 2.92634   2 
   0   8  14 59.4833 3.53738   4 
  -1  -8 -14 42.2646 2.45946   2 
   1   8  14 40.7827 2.95262   4 
  -2  -8 -14 66.9985 3.15955   2 
   2   8  14 64.0761 3.72238   4 
  -3  -8 -14 3.69764 0.98535   2 
   3   8  14 4.14953 1.43777   4 
  -4  -8 -14 29.1425 2.05922   2 
   4   8  14 27.1988 2.55193   4 
  -5  -8 -14 1.90760 0.86275   2 
   5   8  14 0.35380 1.12475   4 
  -6  -8 -14 36.7976 2.35719   2 
   6   8  14 32.1130 2.84028   4 
  -7  -8 -14 13.7913 1.54280   2 
   2  -9 -14 0.93560 0.85826   2 
   1  -9 -14 33.2377 2.21663   2 
  -1   9  14 32.1242 2.73788   4 
   0  -9 -14 9.37297 1.30074   2 
   0   9  14 10.7082 1.77619   4 
  -1  -9 -14 29.4408 2.12378   2 
   1   9  14 27.9596 2.53239   4 
  -2  -9 -14 5.78358 1.15087   2 
   2   9  14 4.53047 1.39923   4 
  -3  -9 -14 52.8230 2.81347   2 
   3   9  14 50.3976 3.34892   4 
  -4  -9 -14 28.7968 2.10329   2 
   4   9  14 24.6637 2.48491   4 
  -5  -9 -14 38.7336 2.44514   2 
   5   9  14 35.5821 2.90982   4 
  -6  -9 -14 0.81256 0.89392   2 
   1  10  14 12.1306 1.86817   4 
   2  10  14 17.8024 2.16818   4 
   3  10  14 -0.5451 1.07791   4 
  -2  -2  15 6.18065 1.03497   6 
   1   2 -15 24.0677 1.94656   1 
  -1  -2  15 25.1140 1.76304   6 
   0   2 -15 16.7017 1.60506   1 
  -1  -1  15 12.3342 1.30918   6 
   0   1 -15 19.1990 1.69354   1 
   0  -1  15 21.2674 1.63443   6 
  -1   1 -15 21.4055 1.76946   1 
   1  -1  15 18.6415 1.54995   6 
   3   0 -15 56.2490 3.10451   2 
   2   0 -15 7.57788 1.27070   2 
  -2   0  15 6.67776 1.34493   5 
   1   0 -15 90.8618 4.00486   2 
  -1   0  15 87.1771 3.95723   5 
   0   0 -15 2.87581 1.00386   2 
   0   0  15 1.30879 0.97487   5 
   0   0  15 4.55291 0.95637   6 
  -1   0 -15 59.4512 3.12084   2 
   1   0  15 60.3871 2.81617   6 
  -2   0 -15 5.71562 1.05865   1 
   2   0  15 8.40642 1.09927   6 
   2   0  15 5.04429 1.00518   6 
  -3   0 -15 63.8847 3.13814   1 
   4  -1 -15 55.4313 3.12775   2 
   3  -1 -15 18.1768 1.75549   2 
  -3   1  15 19.0035 1.76475   5 
   2  -1 -15 31.1081 2.27472   2 
  -2   1  15 30.2285 2.24926   5 
   1  -1 -15 25.9194 2.05484   2 
  -1   1  15 25.0830 2.08919   5 
   0  -1 -15 67.8733 3.25612   2 
   0   1  15 60.7289 3.20972   5 
  -1  -1 -15 9.16382 1.33317   2 
   1   1  15 10.7637 1.44338   5 
  -2  -1 -15 116.574 4.66353   2 
   2   1  15 122.180 4.76243   5 
  -3  -1 -15 1.72573 0.91048   2 
  -3  -1 -15 1.81025 0.83520   1 
   3   1  15 2.20745 0.82167   6 
   3   1  15 1.75366 0.81378   6 
   4  -2 -15 56.1517 3.02490   2 
   3  -2 -15 9.44258 1.36776   2 
  -3   2  15 8.75735 1.37325   5 
   2  -2 -15 39.0429 2.49087   2 
  -2   2  15 38.4388 2.51385   5 
   1  -2 -15 103.774 4.27031   2 
  -1   2  15 101.196 4.27829   5 
   0  -2 -15 3.77547 1.05019   2 
   0   2  15 0.88430 0.96284   5 
  -1  -2 -15 38.1474 2.34871   2 
   1   2  15 33.7714 2.30307   5 
  -2  -2 -15 2.57576 0.92688   2 
   2   2  15 3.53240 1.02195   5 
  -3  -2 -15 89.3093 3.83581   2 
   3   2  15 87.9451 3.85760   5 
  -4  -2 -15 2.32405 1.00086   2 
  -4  -2 -15 1.59290 0.75897   1 
   4   2  15 1.99110 0.97275   5 
   5  -3 -15 -0.8557 0.82815   2 
   4  -3 -15 46.0355 2.72628   2 
   3  -3 -15 9.80862 1.35493   2 
  -3   3  15 9.97705 1.40014   5 
   2  -3 -15 86.1644 3.84122   2 
  -2   3  15 90.2023 3.91576   5 
   1  -3 -15 3.64471 1.09618   2 
  -1   3  15 2.12497 1.01958   5 
   0  -3 -15 76.8045 3.51786   2 
   0   3  15 78.8258 3.56986   5 
  -1  -3 -15 11.0532 1.41773   2 
   1   3  15 15.8559 1.59287   5 
  -2  -3 -15 40.8014 2.45525   2 
   2   3  15 41.6295 2.51035   5 
  -3  -3 -15 -0.7756 0.71666   2 
   3   3  15 -0.4541 0.78227   5 
  -4  -3 -15 91.1059 3.84681   2 
   4   3  15 86.4523 3.80389   5 
  -5  -3 -15 2.33441 0.89679   2 
   5   3  15 3.64244 0.99869   5 
   4  -4 -15 3.89472 1.03292   2 
   3  -4 -15 66.0022 3.22762   2 
  -3   4  15 65.2157 3.28960   5 
   2  -4 -15 2.30678 0.93779   2 
  -2   4  15 3.24672 1.04892   5 
   1  -4 -15 104.004 4.29459   2 
  -1   4  15 108.133 4.34990   5 
   0  -4 -15 3.45134 1.02374   2 
   0   4  15 2.10975 1.02851   5 
  -1  -4 -15 20.2703 1.77296   2 
   1   4  15 17.7103 1.68048   5 
  -2  -4 -15 20.6329 1.79746   2 
   2   4  15 18.8648 1.69036   5 
  -3  -4 -15 74.7871 3.42782   2 
   3   4  15 78.2371 3.47104   5 
  -4  -4 -15 0.57841 0.85691   2 
  -5  -4 -15 33.5287 2.25243   2 
   5   4  15 28.7697 2.56477   4 
   4  -5 -15 16.7616 1.59842   2 
   3  -5 -15 10.5870 1.44195   2 
  -3   5  15 11.3325 1.41973   5 
   2  -5 -15 33.8903 2.27446   2 
  -2   5  15 37.4436 2.36343   5 
   1  -5 -15 0.75643 0.85917   2 
  -1   5  15 1.61854 0.90920   5 
   0  -5 -15 57.6818 3.01769   2 
   0   5  15 65.7039 3.12878   5 
  -1  -5 -15 9.63358 1.31414   2 
   1   5  15 9.48865 1.36935   5 
  -2  -5 -15 41.0266 2.51724   2 
   2   5  15 46.2754 2.57517   5 
  -3  -5 -15 1.98633 0.93522   2 
   3   5  15 1.67978 0.95170   5 
   3   5  15 0.61957 1.09654   4 
  -4  -5 -15 92.1997 3.88213   2 
   4   5  15 86.3752 4.41514   4 
  -5  -5 -15 5.64763 1.17242   2 
   5   5  15 6.20797 1.49191   4 
   3  -6 -15 1.55064 0.91563   2 
  -3   6  15 3.75601 1.02339   5 
   2  -6 -15 26.3826 2.03697   2 
  -2   6  15 29.8819 2.15460   5 
   1  -6 -15 57.3198 2.95155   2 
  -1   6  15 58.1088 2.95745   5 
   0  -6 -15 1.12840 0.86691   2 
   0   6  15 0.61588 0.86195   5 
  -1  -6 -15 88.9783 3.84146   2 
   1   6  15 85.0947 4.28695   4 
   1   6  15 97.2432 3.88554   5 
  -2  -6 -15 10.0628 1.34437   2 
   2   6  15 10.1142 1.66287   4 
  -3  -6 -15 54.9890 2.87176   2 
   3   6  15 50.2463 3.30400   4 
  -4  -6 -15 -0.6577 0.76953   2 
   4   6  15 -0.9651 1.05872   4 
  -5  -6 -15 131.300 4.83262   2 
   5   6  15 114.427 5.44953   4 
  -2   7  15 14.8641 1.50207   5 
   1  -7 -15 -1.0212 0.79045   2 
   0  -7 -15 92.9133 3.99535   2 
   0   7  15 94.2791 4.54908   4 
  -1  -7 -15 -0.6382 0.79396   2 
   1   7  15 -1.2282 1.07483   4 
  -2  -7 -15 83.9844 3.66064   2 
   2   7  15 77.9290 4.17045   4 
  -3  -7 -15 16.9544 1.60392   2 
   3   7  15 15.8235 2.00181   4 
  -4  -7 -15 50.5003 2.75761   2 
   4   7  15 48.3516 3.32399   4 
   5   7  15 0.00199 1.24009   4 
  -1   8  15 36.3063 2.85532   4 
   0   8  15 -0.0315 1.09924   4 
   1   8  15 47.5640 3.23361   4 
   2   8  15 0.49950 1.13632   4 
   3   8  15 52.0291 3.44358   4 
   4   8  15 3.50521 1.49404   4 
   0   4  16 74.9452 3.56547   5 
   1   4  16 11.9132 1.50238   5 
   2   4  16 37.2624 2.43027   5 
   3   4  16 3.43984 1.04023   5 
  -1   5  16 110.467 4.54108   5 
   0   5  16 -0.7787 0.80708   5 
   1   5  16 32.8090 2.27475   5 
   2   5  16 11.2728 1.43165   5 
   0   6  16 27.2199 2.05211   5 
   2   7  16 -0.9283 1.07459   4 
   0   0   0    0.00    0.00   0 
  
 _exptl_absorpt_process_details 'SADABS 2014/4' 
 _exptl_absorpt_correction_type   multiscan 
 _exptl_absorpt_correction_T_max  0.7462 
 _exptl_absorpt_correction_T_min  0.6376 
 _exptl_special_details 
) 
 The following wavelength and cell were deduced by SADABS from the 
 direction cosines etc. They are given here for emergency use only: 
 CELL 0.71093    9.984   10.926   11.373   75.423   88.584   66.350 
) 
  
;
_shelx_hkl_checksum              94472
loop_
_space_group_symop_operation_xyz
'x, y, z'
'-x, -y, -z'
loop_
_atom_site_label
_atom_site_type_symbol
_atom_site_fract_x
_atom_site_fract_y
_atom_site_fract_z
_atom_site_U_iso_or_equiv
_atom_site_adp_type
_atom_site_occupancy
_atom_site_site_symmetry_order
_atom_site_calc_flag
_atom_site_refinement_flags_posn
_atom_site_refinement_flags_adp
_atom_site_refinement_flags_occupancy
_atom_site_disorder_assembly
_atom_site_disorder_group
Fe1 Fe 0.500000 0.500000 0.500000 0.01431(6) Uani 1 2 d S . P . .
N1 N 0.41901(13) 0.45965(11) 0.66053(10) 0.0168(2) Uani 1 1 d . . . . .
N2 N 0.57676(13) 0.29872(11) 0.50438(10) 0.0177(2) Uani 1 1 d . . . . .
N3 N 0.68427(14) 0.46817(12) 0.58660(11) 0.0187(2) Uani 1 1 d . . . . .
N4 N 0.88067(16) 0.37079(15) 0.71513(13) 0.0292(3) Uani 1 1 d . . . . .
H4 H 0.942(3) 0.314(3) 0.772(2) 0.048(7) Uiso 1 1 d . . . . .
C1 C 0.34643(17) 0.55264(14) 0.72702(12) 0.0203(3) Uani 1 1 d . . . . .
C2 C 0.30888(18) 0.48336(15) 0.84089(13) 0.0237(3) Uani 1 1 d D . . . .
C3 C 0.35980(16) 0.34655(14) 0.84305(13) 0.0199(2) Uani 1 1 d . . . . .
C4 C 0.42851(15) 0.33304(13) 0.73095(12) 0.0177(2) Uani 1 1 d . . . . .
C5 C 0.49669(16) 0.20847(13) 0.69974(12) 0.0192(2) Uani 1 1 d . . . . .
H5 H 0.495208 0.127843 0.755113 0.023 Uiso 1 1 calc R U . . .
C6 C 0.56647(16) 0.19257(13) 0.59458(13) 0.0191(2) Uani 1 1 d . . . . .
C7 C 0.63677(18) 0.06167(14) 0.56365(14) 0.0233(3) Uani 1 1 d . . . . .
C8 C 0.68733(19) 0.09066(15) 0.45183(15) 0.0275(3) Uani 1 1 d D . . . .
C9 C 0.65051(18) 0.23833(14) 0.41658(13) 0.0229(3) Uani 1 1 d . . . . .
C10 C 0.68602(19) 0.30699(15) 0.30882(14) 0.0254(3) Uani 1 1 d . . . . .
H10 H 0.736862 0.253388 0.255009 0.030 Uiso 1 1 calc R U . . .
C11 C 0.2163(3) 0.5576(3) 0.9306(2) 0.0237(6) Uani 0.708(5) 1 d D . P A 1
H11A H 0.164067 0.502895 0.976556 0.028 Uiso 0.708(5) 1 calc R U P A 1
H11B H 0.142128 0.649238 0.885477 0.028 Uiso 0.708(5) 1 calc R U P A 1
C12 C 0.3149(3) 0.5762(3) 1.0193(2) 0.0387(7) Uani 0.708(5) 1 d D . P A 1
H12A H 0.381051 0.485262 1.070063 0.058 Uiso 0.708(5) 1 d R U P A 1
H12B H 0.253909 0.631774 1.071591 0.058 Uiso 0.708(5) 1 d R U P A 1
H12C H 0.372728 0.623410 0.973311 0.058 Uiso 0.708(5) 1 d R U P A 1
C11' C 0.2664(5) 0.5359(7) 0.9540(4) 0.0179(13) Uani 0.292(5) 1 d D . P A 2
H11C H 0.291565 0.615691 0.950062 0.021 Uiso 0.292(5) 1 calc R U P A 2
H11D H 0.317763 0.461922 1.028628 0.021 Uiso 0.292(5) 1 calc R U P A 2
C12' C 0.1000(4) 0.5796(6) 0.9538(5) 0.0262(13) Uani 0.292(5) 1 d D . P A 2
H12D H 0.050454 0.660940 0.885196 0.039 Uiso 0.292(5) 1 d R U P A 2
H12E H 0.067320 0.602463 1.030547 0.039 Uiso 0.292(5) 1 d R U P A 2
H12F H 0.075802 0.503442 0.945600 0.039 Uiso 0.292(5) 1 d R U P A 2
C13 C 0.35227(19) 0.22990(16) 0.94233(14) 0.0259(3) Uani 1 1 d . . . . .
H13A H 0.342125 0.160884 0.905284 0.031 Uiso 1 1 calc R U . . .
H13B H 0.264067 0.266256 0.986232 0.031 Uiso 1 1 calc R U . . .
C14 C 0.4880(2) 0.15879(18) 1.03338(15) 0.0349(4) Uani 1 1 d . . . . .
H14A H 0.575831 0.123742 0.990208 0.052 Uiso 1 1 d R U . . .
H14B H 0.479848 0.081512 1.094694 0.052 Uiso 1 1 d R U . . .
H14C H 0.495482 0.225474 1.073683 0.052 Uiso 1 1 d R U . . .
C15 C 0.6531(2) -0.07685(14) 0.64345(15) 0.0278(3) Uani 1 1 d . . . . .
H15A H 0.669801 -0.141692 0.592109 0.033 Uiso 1 1 calc R U . . .
H15B H 0.560688 -0.066753 0.682212 0.033 Uiso 1 1 calc R U . . .
C16 C 0.7802(2) -0.13842(17) 0.74316(18) 0.0363(4) Uani 1 1 d . . . . .
H16A H 0.871788 -0.147053 0.705417 0.054 Uiso 1 1 d R U . . .
H16B H 0.788729 -0.230048 0.790364 0.054 Uiso 1 1 d R U . . .
H16C H 0.761285 -0.077523 0.797436 0.054 Uiso 1 1 d R U . . .
C17 C 0.7609(2) -0.00761(19) 0.37401(19) 0.0243(4) Uani 0.818(5) 1 d D . P B 1
H17A H 0.730231 0.041460 0.286761 0.029 Uiso 0.818(5) 1 calc R U P B 1
H17B H 0.730224 -0.085632 0.394554 0.029 Uiso 0.818(5) 1 calc R U P B 1
C18 C 0.9282(2) -0.0634(3) 0.3960(2) 0.0399(6) Uani 0.818(5) 1 d D . P B 1
H18A H 0.957770 0.014303 0.379275 0.060 Uiso 0.818(5) 1 d R U P B 1
H18B H 0.974861 -0.122536 0.341790 0.060 Uiso 0.818(5) 1 d R U P B 1
H18C H 0.958862 -0.117518 0.481115 0.060 Uiso 0.818(5) 1 d R U P B 1
C17' C 0.8179(6) -0.0137(7) 0.4052(7) 0.0203(18) Uani 0.182(5) 1 d D U P B 2
H17C H 0.880166 0.031195 0.361296 0.024 Uiso 0.182(5) 1 calc R U P B 2
H17D H 0.878825 -0.092157 0.473718 0.024 Uiso 0.182(5) 1 calc R U P B 2
C18' C 0.7483(9) -0.0635(9) 0.3186(7) 0.029(2) Uani 0.182(5) 1 d D . P B 2
H18D H 0.676432 -0.095327 0.360446 0.043 Uiso 0.182(5) 1 d R U P B 2
H18E H 0.825109 -0.140006 0.293986 0.043 Uiso 0.182(5) 1 d R U P B 2
H18F H 0.699167 0.012862 0.246157 0.043 Uiso 0.182(5) 1 d R U P B 2
C19 C 0.76126(18) 0.35851(16) 0.67638(14) 0.0260(3) Uani 1 1 d . . . . .
H19 H 0.735992 0.282231 0.708783 0.031 Uiso 1 1 calc R U . . .
C20 C 0.75909(19) 0.55325(16) 0.56819(15) 0.0280(3) Uani 1 1 d . . . . .
H20 H 0.729319 0.640048 0.509033 0.034 Uiso 1 1 calc R U . . .
C21 C 0.8818(2) 0.49409(17) 0.64748(16) 0.0309(3) Uani 1 1 d . . . . .
C22 C 1.0006(2) 0.5385(2) 0.6662(2) 0.0499(6) Uani 1 1 d . . . . .
H22A H 0.985778 0.624167 0.603832 0.075 Uiso 1 1 d R U . . .
H22B H 1.095811 0.465896 0.659770 0.075 Uiso 1 1 d R U . . .
H22C H 0.998438 0.554661 0.747324 0.075 Uiso 1 1 d R U . . .
Sb1 Sb 0.000000 0.000000 0.000000 0.01947(5) Uani 1 2 d S . P . .
F1 F 0.05685(11) 0.14413(10) -0.07794(9) 0.0312(2) Uani 1 1 d . . . . .
F2 F 0.16996(12) -0.08500(11) 0.10787(10) 0.0366(2) Uani 1 1 d . . . . .
F3 F -0.09917(14) 0.10109(13) 0.10842(11) 0.0429(3) Uani 1 1 d . . . . .
loop_
_atom_site_aniso_label
_atom_site_aniso_U_11
_atom_site_aniso_U_22
_atom_site_aniso_U_33
_atom_site_aniso_U_23
_atom_site_aniso_U_13
_atom_site_aniso_U_12
Fe1 0.02001(13) 0.00827(11) 0.01085(11) -0.00105(8) -0.00069(9) -0.00268(9)
N1 0.0231(5) 0.0108(5) 0.0129(5) -0.0020(4) 0.0006(4) -0.0039(4)
N2 0.0254(6) 0.0095(4) 0.0142(5) -0.0019(4) 0.0007(4) -0.0037(4)
N3 0.0240(5) 0.0130(5) 0.0150(5) -0.0020(4) -0.0018(4) -0.0041(4)
N4 0.0301(7) 0.0237(6) 0.0243(6) 0.0001(5) -0.0101(5) -0.0045(5)
C1 0.0289(7) 0.0163(6) 0.0147(6) -0.0045(5) 0.0045(5) -0.0083(5)
C2 0.0359(8) 0.0201(6) 0.0178(6) -0.0059(5) 0.0074(6) -0.0138(6)
C3 0.0260(6) 0.0176(6) 0.0160(6) -0.0025(5) 0.0021(5) -0.0098(5)
C4 0.0206(6) 0.0144(5) 0.0146(5) -0.0006(4) -0.0004(4) -0.0056(5)
C5 0.0253(6) 0.0114(5) 0.0170(6) 0.0005(4) -0.0004(5) -0.0059(5)
C6 0.0253(6) 0.0102(5) 0.0178(6) -0.0017(4) -0.0012(5) -0.0042(5)
C7 0.0328(7) 0.0107(5) 0.0224(6) -0.0032(5) 0.0029(5) -0.0056(5)
C8 0.0400(9) 0.0118(6) 0.0270(7) -0.0060(5) 0.0083(6) -0.0068(6)
C9 0.0343(7) 0.0114(6) 0.0191(6) -0.0043(5) 0.0038(5) -0.0054(5)
C10 0.0397(8) 0.0148(6) 0.0203(6) -0.0076(5) 0.0087(6) -0.0082(6)
C11 0.0277(15) 0.0239(14) 0.0206(12) -0.0072(11) 0.0065(10) -0.0109(12)
C12 0.0452(15) 0.0462(15) 0.0279(12) -0.0207(11) 0.0042(10) -0.0154(12)
C11' 0.025(3) 0.014(3) 0.011(2) -0.0006(19) 0.001(2) -0.006(2)
C12' 0.015(2) 0.032(3) 0.032(3) -0.017(2) 0.0031(18) -0.0060(19)
C13 0.0373(8) 0.0205(6) 0.0214(7) -0.0027(5) 0.0080(6) -0.0154(6)
C14 0.0512(11) 0.0271(8) 0.0219(7) 0.0049(6) -0.0003(7) -0.0181(8)
C15 0.0410(9) 0.0105(6) 0.0280(7) -0.0037(5) 0.0082(6) -0.0077(6)
C16 0.0349(9) 0.0192(7) 0.0398(9) 0.0064(6) 0.0036(7) -0.0044(6)
C17 0.0289(10) 0.0171(8) 0.0293(10) -0.0124(7) 0.0028(8) -0.0082(7)
C18 0.0276(11) 0.0350(12) 0.0498(14) -0.0188(10) 0.0072(9) -0.0010(9)
C17' 0.034(4) 0.013(3) 0.016(3) -0.004(2) 0.004(2) -0.011(2)
C18' 0.024(4) 0.035(5) 0.030(4) -0.012(3) 0.003(3) -0.012(3)
C19 0.0295(7) 0.0195(6) 0.0205(6) 0.0019(5) -0.0048(5) -0.0053(6)
C20 0.0327(8) 0.0169(6) 0.0306(8) 0.0004(5) -0.0114(6) -0.0095(6)
C21 0.0338(8) 0.0212(7) 0.0331(8) -0.0038(6) -0.0115(7) -0.0076(6)
C22 0.0438(11) 0.0360(10) 0.0667(14) -0.0049(9) -0.0269(10) -0.0165(9)
Sb1 0.02247(7) 0.01317(6) 0.01609(7) -0.00071(4) -0.00218(4) -0.00219(5)
F1 0.0329(5) 0.0227(4) 0.0318(5) 0.0048(4) -0.0059(4) -0.0115(4)
F2 0.0333(5) 0.0309(5) 0.0346(5) 0.0086(4) -0.0163(4) -0.0114(4)
F3 0.0507(7) 0.0402(6) 0.0429(6) -0.0250(5) 0.0179(5) -0.0161(5)
loop_
_atom_type_symbol
_atom_type_description
_atom_type_scat_dispersion_real
_atom_type_scat_dispersion_imag
_atom_type_scat_source
C C 0.0033 0.0016 'International Tables Vol C Tables 4.2.6.8 and 6.1.1.4'
H H 0.0000 0.0000 'International Tables Vol C Tables 4.2.6.8 and 6.1.1.4'
N N 0.0061 0.0033 'International Tables Vol C Tables 4.2.6.8 and 6.1.1.4'
F F 0.0171 0.0103 'International Tables Vol C Tables 4.2.6.8 and 6.1.1.4'
Fe Fe 0.3463 0.8444 'International Tables Vol C Tables 4.2.6.8 and 6.1.1.4'
Sb Sb -0.5866 1.5461 'International Tables Vol C Tables 4.2.6.8 and 6.1.1.4'
loop_
_geom_angle_atom_site_label_1
_geom_angle_atom_site_label_2
_geom_angle_atom_site_label_3
_geom_angle
_geom_angle_site_symmetry_1
_geom_angle_site_symmetry_3
_geom_angle_publ_flag
N3 Fe1 N3 180.0 2_666 . ?
N3 Fe1 N1 89.33(5) 2_666 2_666 ?
N3 Fe1 N1 90.67(5) . 2_666 ?
N3 Fe1 N1 90.67(5) 2_666 . ?
N3 Fe1 N1 89.33(5) . . ?
N1 Fe1 N1 180.00(7) 2_666 . ?
N3 Fe1 N2 90.47(5) 2_666 2_666 ?
N3 Fe1 N2 89.53(5) . 2_666 ?
N1 Fe1 N2 89.54(5) 2_666 2_666 ?
N1 Fe1 N2 90.46(5) . 2_666 ?
N3 Fe1 N2 89.53(5) 2_666 . ?
N3 Fe1 N2 90.47(5) . . ?
N1 Fe1 N2 90.46(5) 2_666 . ?
N1 Fe1 N2 89.54(5) . . ?
N2 Fe1 N2 180.00(2) 2_666 . ?
C1 N1 C4 105.29(11) . . ?
C1 N1 Fe1 126.90(9) . . ?
C4 N1 Fe1 127.76(9) . . ?
C9 N2 C6 105.51(11) . . ?
C9 N2 Fe1 126.68(9) . . ?
C6 N2 Fe1 127.81(9) . . ?
C19 N3 C20 106.11(13) . . ?
C19 N3 Fe1 125.77(11) . . ?
C20 N3 Fe1 128.11(10) . . ?
C19 N4 C21 108.85(13) . . ?
C19 N4 H4 125.0(18) . . ?
C21 N4 H4 126.2(18) . . ?
N1 C1 C10 125.15(13) . 2_666 ?
N1 C1 C2 110.67(12) . . ?
C10 C1 C2 124.18(13) 2_666 . ?
C3 C2 C1 106.62(12) . . ?
C3 C2 C11' 123.2(3) . . ?
C1 C2 C11' 127.7(3) . . ?
C3 C2 C11 128.88(18) . . ?
C1 C2 C11 124.21(17) . . ?
C2 C3 C4 106.55(12) . . ?
C2 C3 C13 127.97(13) . . ?
C4 C3 C13 125.45(13) . . ?
N1 C4 C5 124.90(12) . . ?
N1 C4 C3 110.86(12) . . ?
C5 C4 C3 124.24(12) . . ?
C6 C5 C4 125.21(12) . . ?
C6 C5 H5 117.4 . . ?
C4 C5 H5 117.4 . . ?
N2 C6 C5 124.76(12) . . ?
N2 C6 C7 110.88(12) . . ?
C5 C6 C7 124.35(12) . . ?
C8 C7 C6 106.21(12) . . ?
C8 C7 C15 128.28(13) . . ?
C6 C7 C15 125.48(13) . . ?
C7 C8 C9 106.75(12) . . ?
C7 C8 C17 127.94(14) . . ?
C9 C8 C17 125.24(15) . . ?
C7 C8 C17' 124.3(3) . . ?
C9 C8 C17' 122.8(3) . . ?
N2 C9 C10 125.39(13) . . ?
N2 C9 C8 110.64(12) . . ?
C10 C9 C8 123.97(13) . . ?
C9 C10 C1 125.39(14) . 2_666 ?
C9 C10 H10 117.3 . . ?
C1 C10 H10 117.3 2_666 . ?
C2 C11 C12 109.81(19) . . ?
C2 C11 H11A 109.7 . . ?
C12 C11 H11A 109.7 . . ?
C2 C11 H11B 109.7 . . ?
C12 C11 H11B 109.7 . . ?
H11A C11 H11B 108.2 . . ?
C11 C12 H12A 109.5 . . ?
C11 C12 H12B 109.4 . . ?
H12A C12 H12B 109.5 . . ?
C11 C12 H12C 109.5 . . ?
H12A C12 H12C 109.5 . . ?
H12B C12 H12C 109.5 . . ?
C2 C11' C12' 105.3(3) . . ?
C2 C11' H11C 110.7 . . ?
C12' C11' H11C 110.7 . . ?
C2 C11' H11D 110.7 . . ?
C12' C11' H11D 110.7 . . ?
H11C C11' H11D 108.8 . . ?
C11' C12' H12D 109.4 . . ?
C11' C12' H12E 109.4 . . ?
H12D C12' H12E 109.5 . . ?
C11' C12' H12F 109.6 . . ?
H12D C12' H12F 109.5 . . ?
H12E C12' H12F 109.5 . . ?
C3 C13 C14 112.35(13) . . ?
C3 C13 H13A 109.1 . . ?
C14 C13 H13A 109.1 . . ?
C3 C13 H13B 109.1 . . ?
C14 C13 H13B 109.1 . . ?
H13A C13 H13B 107.9 . . ?
C13 C14 H14A 109.5 . . ?
C13 C14 H14B 109.5 . . ?
H14A C14 H14B 109.5 . . ?
C13 C14 H14C 109.5 . . ?
H14A C14 H14C 109.5 . . ?
H14B C14 H14C 109.5 . . ?
C7 C15 C16 112.68(14) . . ?
C7 C15 H15A 109.1 . . ?
C16 C15 H15A 109.1 . . ?
C7 C15 H15B 109.1 . . ?
C16 C15 H15B 109.1 . . ?
H15A C15 H15B 107.8 . . ?
C15 C16 H16A 109.5 . . ?
C15 C16 H16B 109.5 . . ?
H16A C16 H16B 109.5 . . ?
C15 C16 H16C 109.5 . . ?
H16A C16 H16C 109.5 . . ?
H16B C16 H16C 109.5 . . ?
C8 C17 C18 110.15(16) . . ?
C8 C17 H17A 109.6 . . ?
C18 C17 H17A 109.6 . . ?
C8 C17 H17B 109.6 . . ?
C18 C17 H17B 109.6 . . ?
H17A C17 H17B 108.1 . . ?
C17 C18 H18A 109.4 . . ?
C17 C18 H18B 109.6 . . ?
H18A C18 H18B 109.5 . . ?
C17 C18 H18C 109.4 . . ?
H18A C18 H18C 109.5 . . ?
H18B C18 H18C 109.5 . . ?
C18' C17' C8 104.8(4) . . ?
C18' C17' H17C 110.8 . . ?
C8 C17' H17C 110.8 . . ?
C18' C17' H17D 110.8 . . ?
C8 C17' H17D 110.8 . . ?
H17C C17' H17D 108.9 . . ?
C17' C18' H18D 109.6 . . ?
C17' C18' H18E 109.3 . . ?
H18D C18' H18E 109.5 . . ?
C17' C18' H18F 109.6 . . ?
H18D C18' H18F 109.5 . . ?
H18E C18' H18F 109.5 . . ?
N3 C19 N4 110.14(14) . . ?
N3 C19 H19 124.9 . . ?
N4 C19 H19 124.9 . . ?
C21 C20 N3 109.94(14) . . ?
C21 C20 H20 125.0 . . ?
N3 C20 H20 125.0 . . ?
C20 C21 N4 104.96(15) . . ?
C20 C21 C22 132.52(16) . . ?
N4 C21 C22 122.51(15) . . ?
C21 C22 H22A 109.5 . . ?
C21 C22 H22B 109.5 . . ?
H22A C22 H22B 109.5 . . ?
C21 C22 H22C 109.5 . . ?
H22A C22 H22C 109.5 . . ?
H22B C22 H22C 109.5 . . ?
F3 Sb1 F3 180.0 2 . ?
F3 Sb1 F2 90.02(6) 2 2 ?
F3 Sb1 F2 89.98(6) . 2 ?
F3 Sb1 F2 89.98(6) 2 . ?
F3 Sb1 F2 90.02(6) . . ?
F2 Sb1 F2 180.0 2 . ?
F3 Sb1 F1 89.94(5) 2 . ?
F3 Sb1 F1 90.06(5) . . ?
F2 Sb1 F1 89.13(5) 2 . ?
F2 Sb1 F1 90.87(5) . . ?
F3 Sb1 F1 90.06(5) 2 2 ?
F3 Sb1 F1 89.94(5) . 2 ?
F2 Sb1 F1 90.87(5) 2 2 ?
F2 Sb1 F1 89.13(5) . 2 ?
F1 Sb1 F1 180.0 . 2 ?
loop_
_geom_bond_atom_site_label_1
_geom_bond_atom_site_label_2
_geom_bond_distance
_geom_bond_site_symmetry_2
_geom_bond_publ_flag
Fe1 N3 1.9688(12) 2_666 ?
Fe1 N3 1.9688(12) . ?
Fe1 N1 1.9956(12) 2_666 ?
Fe1 N1 1.9957(12) . ?
Fe1 N2 2.0065(11) 2_666 ?
Fe1 N2 2.0065(11) . ?
N1 C1 1.3785(17) . ?
N1 C4 1.3797(16) . ?
N2 C9 1.3714(18) . ?
N2 C6 1.3772(17) . ?
N3 C19 1.3238(18) . ?
N3 C20 1.384(2) . ?
N4 C19 1.347(2) . ?
N4 C21 1.377(2) . ?
N4 H4 0.83(3) . ?
C1 C10 1.3846(19) 2_666 ?
C1 C2 1.4481(19) . ?
C2 C3 1.367(2) . ?
C2 C11' 1.521(3) . ?
C2 C11 1.524(2) . ?
C3 C4 1.4444(19) . ?
C3 C13 1.5000(19) . ?
C4 C5 1.3902(18) . ?
C5 C6 1.382(2) . ?
C5 H5 0.9500 . ?
C6 C7 1.4494(19) . ?
C7 C8 1.365(2) . ?
C7 C15 1.5023(19) . ?
C8 C9 1.4512(19) . ?
C8 C17 1.514(2) . ?
C8 C17' 1.537(3) . ?
C9 C10 1.384(2) . ?
C10 H10 0.9500 . ?
C11 C12 1.529(3) . ?
C11 H11A 0.9900 . ?
C11 H11B 0.9900 . ?
C12 H12A 0.9800 . ?
C12 H12B 0.9800 . ?
C12 H12C 0.9800 . ?
C11' C12' 1.533(4) . ?
C11' H11C 0.9900 . ?
C11' H11D 0.9900 . ?
C12' H12D 0.9800 . ?
C12' H12E 0.9800 . ?
C12' H12F 0.9800 . ?
C13 C14 1.527(2) . ?
C13 H13A 0.9900 . ?
C13 H13B 0.9900 . ?
C14 H14A 0.9800 . ?
C14 H14B 0.9800 . ?
C14 H14C 0.9800 . ?
C15 C16 1.532(3) . ?
C15 H15A 0.9900 . ?
C15 H15B 0.9900 . ?
C16 H16A 0.9800 . ?
C16 H16B 0.9800 . ?
C16 H16C 0.9800 . ?
C17 C18 1.533(3) . ?
C17 H17A 0.9900 . ?
C17 H17B 0.9900 . ?
C18 H18A 0.9800 . ?
C18 H18B 0.9800 . ?
C18 H18C 0.9800 . ?
C17' C18' 1.534(4) . ?
C17' H17C 0.9900 . ?
C17' H17D 0.9900 . ?
C18' H18D 0.9800 . ?
C18' H18E 0.9800 . ?
C18' H18F 0.9800 . ?
C19 H19 0.9500 . ?
C20 C21 1.362(2) . ?
C20 H20 0.9500 . ?
C21 C22 1.487(3) . ?
C22 H22A 0.9800 . ?
C22 H22B 0.9800 . ?
C22 H22C 0.9800 . ?
Sb1 F3 1.8630(11) 2 ?
Sb1 F3 1.8630(11) . ?
Sb1 F2 1.8735(10) 2 ?
Sb1 F2 1.8736(10) . ?
Sb1 F1 1.8901(10) . ?
Sb1 F1 1.8902(10) 2 ?
loop_
_geom_hbond_atom_site_label_D
_geom_hbond_atom_site_label_H
_geom_hbond_atom_site_label_A
_geom_hbond_distance_DH
_geom_hbond_distance_HA
_geom_hbond_distance_DA
_geom_hbond_angle_DHA
_geom_hbond_site_symmetry_A
_geom_hbond_publ_flag
N4 H4 F1 0.83(3) 2.11(3) 2.9219(16) 165(3) 1_656 yes
C19 H19 F2 0.95 2.47 3.1873(18) 132.7 2_656 yes
loop_
_geom_torsion_atom_site_label_1
_geom_torsion_atom_site_label_2
_geom_torsion_atom_site_label_3
_geom_torsion_atom_site_label_4
_geom_torsion
_geom_torsion_site_symmetry_1
_geom_torsion_site_symmetry_2
_geom_torsion_site_symmetry_3
_geom_torsion_site_symmetry_4
_geom_torsion_publ_flag
C4 N1 C1 C10 179.32(15) . . . 2_666 ?
Fe1 N1 C1 C10 1.7(2) . . . 2_666 ?
C4 N1 C1 C2 -0.35(16) . . . . ?
Fe1 N1 C1 C2 -177.99(10) . . . . ?
N1 C1 C2 C3 0.07(18) . . . . ?
C10 C1 C2 C3 -179.60(16) 2_666 . . . ?
N1 C1 C2 C11' 162.4(2) . . . . ?
C10 C1 C2 C11' -17.3(3) 2_666 . . . ?
N1 C1 C2 C11 -174.28(17) . . . . ?
C10 C1 C2 C11 6.0(3) 2_666 . . . ?
C1 C2 C3 C4 0.22(17) . . . . ?
C11' C2 C3 C4 -163.1(2) . . . . ?
C11 C2 C3 C4 174.23(18) . . . . ?
C1 C2 C3 C13 178.37(15) . . . . ?
C11' C2 C3 C13 15.1(3) . . . . ?
C11 C2 C3 C13 -7.6(3) . . . . ?
C1 N1 C4 C5 -178.62(14) . . . . ?
Fe1 N1 C4 C5 -1.0(2) . . . . ?
C1 N1 C4 C3 0.49(16) . . . . ?
Fe1 N1 C4 C3 178.10(10) . . . . ?
C2 C3 C4 N1 -0.46(17) . . . . ?
C13 C3 C4 N1 -178.66(14) . . . . ?
C2 C3 C4 C5 178.66(14) . . . . ?
C13 C3 C4 C5 0.5(2) . . . . ?
N1 C4 C5 C6 0.8(2) . . . . ?
C3 C4 C5 C6 -178.18(14) . . . . ?
C9 N2 C6 C5 -178.48(14) . . . . ?
Fe1 N2 C6 C5 1.2(2) . . . . ?
C9 N2 C6 C7 0.61(17) . . . . ?
Fe1 N2 C6 C7 -179.67(10) . . . . ?
C4 C5 C6 N2 -0.9(2) . . . . ?
C4 C5 C6 C7 -179.91(14) . . . . ?
N2 C6 C7 C8 -1.22(18) . . . . ?
C5 C6 C7 C8 177.88(15) . . . . ?
N2 C6 C7 C15 176.82(15) . . . . ?
C5 C6 C7 C15 -4.1(3) . . . . ?
C6 C7 C8 C9 1.25(19) . . . . ?
C15 C7 C8 C9 -176.71(17) . . . . ?
C6 C7 C8 C17 -175.86(17) . . . . ?
C15 C7 C8 C17 6.2(3) . . . . ?
C6 C7 C8 C17' 154.0(3) . . . . ?
C15 C7 C8 C17' -24.0(4) . . . . ?
C6 N2 C9 C10 -179.74(16) . . . . ?
Fe1 N2 C9 C10 0.5(2) . . . . ?
C6 N2 C9 C8 0.19(18) . . . . ?
Fe1 N2 C9 C8 -179.53(11) . . . . ?
C7 C8 C9 N2 -1.0(2) . . . . ?
C17 C8 C9 N2 176.26(16) . . . . ?
C17' C8 C9 N2 -154.2(3) . . . . ?
C7 C8 C9 C10 178.98(16) . . . . ?
C17 C8 C9 C10 -3.8(3) . . . . ?
C17' C8 C9 C10 25.8(4) . . . . ?
N2 C9 C10 C1 0.5(3) . . . 2_666 ?
C8 C9 C10 C1 -179.46(17) . . . 2_666 ?
C3 C2 C11 C12 99.3(3) . . . . ?
C1 C2 C11 C12 -87.6(3) . . . . ?
C3 C2 C11' C12' -95.5(4) . . . . ?
C1 C2 C11' C12' 104.9(4) . . . . ?
C2 C3 C13 C14 -91.4(2) . . . . ?
C4 C3 C13 C14 86.41(19) . . . . ?
C8 C7 C15 C16 97.9(2) . . . . ?
C6 C7 C15 C16 -79.7(2) . . . . ?
C7 C8 C17 C18 -95.3(2) . . . . ?
C9 C8 C17 C18 88.1(2) . . . . ?
C7 C8 C17' C18' 101.5(6) . . . . ?
C9 C8 C17' C18' -110.0(5) . . . . ?
C20 N3 C19 N4 0.02(19) . . . . ?
Fe1 N3 C19 N4 -179.61(10) . . . . ?
C21 N4 C19 N3 -0.1(2) . . . . ?
C19 N3 C20 C21 0.02(19) . . . . ?
Fe1 N3 C20 C21 179.64(12) . . . . ?
N3 C20 C21 N4 -0.1(2) . . . . ?
N3 C20 C21 C22 179.0(2) . . . . ?
C19 N4 C21 C20 0.1(2) . . . . ?
C19 N4 C21 C22 -179.14(19) . . . . ?
