#------------------------------------------------------------------------------
#$Date: 2021-10-03 23:33:33 +0300 (Sun, 03 Oct 2021) $
#$Revision: 269497 $
#$URL: file:///home/coder/svn-repositories/cod/cif/4/51/90/4519075.cif $
#------------------------------------------------------------------------------
#
# This file is available in the Crystallography Open Database (COD),
# http://www.crystallography.net/
#
# All data on this site have been placed in the public domain by the
# contributors.
#
data_4519075
loop_
_publ_author_name
'Khade, Rahul L.'
'Abucayon, Erwin G.'
'Powell, Douglas R.'
'Richter-Addo, George B.'
'Zhang, Yong'
_publ_section_title
;
 Insights into the Observed trans-Bond Length Variations upon NO Binding
 to Ferric and Ferrous Porphyrins with Neutral Axial Ligands
;
_journal_issue                   38
_journal_name_full               'ACS Omega'
_journal_page_first              24777
_journal_page_last               24787
_journal_paper_doi               10.1021/acsomega.1c03610
_journal_volume                  6
_journal_year                    2021
_chemical_formula_moiety         'C40 H50 Fe N6, F6 Sb'
_chemical_formula_sum            'C40 H50 F6 Fe N6 Sb'
_chemical_formula_weight         906.46
_space_group_crystal_system      triclinic
_space_group_IT_number           2
_space_group_name_Hall           '-P 1'
_space_group_name_H-M_alt        'P -1'
_atom_sites_solution_hydrogens   mixed
_atom_sites_solution_primary     direct
_atom_sites_solution_secondary   difmap
_audit_creation_method           SHELXL-2018/3
_cell_angle_alpha                66.470(7)
_cell_angle_beta                 82.509(8)
_cell_angle_gamma                78.860(7)
_cell_formula_units_Z            2
_cell_length_a                   11.502(4)
_cell_length_b                   13.713(4)
_cell_length_c                   13.952(4)
_cell_measurement_reflns_used    1002
_cell_measurement_temperature    100(2)
_cell_measurement_theta_max      17.01
_cell_measurement_theta_min      2.24
_cell_volume                     1976.1(11)
_computing_cell_refinement       'SAINT (Bruker, 2007)'
_computing_data_collection       'APEX2 (Bruker, 2007)'
_computing_data_reduction        'SAINT (Bruker, 2007)'
_computing_molecular_graphics    'Mercury (CCDC, 2018)'
_computing_publication_material  'SHELXL-2018/3 (Sheldrick, 2015b)'
_computing_structure_refinement  'SHELXL-2018/3 (Sheldrick, 2015b)'
_computing_structure_solution    'SHELXT (Sheldrick, 2015a)'
_diffrn_ambient_temperature      100(2)
_diffrn_measured_fraction_theta_full 0.965
_diffrn_measured_fraction_theta_max 0.965
_diffrn_measurement_device_type  'Bruker APEX CCD'
_diffrn_measurement_method       '\f and \w scans'
_diffrn_radiation_type           MoK\a
_diffrn_radiation_wavelength     0.71073
_diffrn_reflns_av_R_equivalents  0.0467
_diffrn_reflns_av_unetI/netI     0.1303
_diffrn_reflns_Laue_measured_fraction_full 0.965
_diffrn_reflns_Laue_measured_fraction_max 0.965
_diffrn_reflns_limit_h_max       12
_diffrn_reflns_limit_h_min       -11
_diffrn_reflns_limit_k_max       14
_diffrn_reflns_limit_k_min       -12
_diffrn_reflns_limit_l_max       14
_diffrn_reflns_limit_l_min       0
_diffrn_reflns_number            9547
_diffrn_reflns_point_group_measured_fraction_full 0.965
_diffrn_reflns_point_group_measured_fraction_max 0.965
_diffrn_reflns_theta_full        22.208
_diffrn_reflns_theta_max         22.208
_diffrn_reflns_theta_min         1.595
_exptl_absorpt_coefficient_mu    1.116
_exptl_absorpt_correction_T_max  0.745
_exptl_absorpt_correction_T_min  0.625
_exptl_absorpt_correction_type   multi-scan
_exptl_absorpt_process_details   'TWINABS 2012/1'
_exptl_crystal_colour            purple
_exptl_crystal_density_diffrn    1.523
_exptl_crystal_description       block
_exptl_crystal_F_000             926
_exptl_crystal_size_max          0.180
_exptl_crystal_size_mid          0.160
_exptl_crystal_size_min          0.110
_refine_diff_density_max         1.272
_refine_diff_density_min         -0.798
_refine_diff_density_rms         0.149
_refine_ls_extinction_method     none
_refine_ls_goodness_of_fit_ref   1.012
_refine_ls_hydrogen_treatment    mixed
_refine_ls_matrix_type           full
_refine_ls_number_parameters     549
_refine_ls_number_reflns         9547
_refine_ls_number_restraints     632
_refine_ls_restrained_S_all      1.026
_refine_ls_R_factor_all          0.1506
_refine_ls_R_factor_gt           0.0732
_refine_ls_shift/su_max          0.000
_refine_ls_shift/su_mean         0.000
_refine_ls_structure_factor_coef Fsqd
_refine_ls_weighting_details
'w=1/[\s^2^(Fo^2^)+(0.0650P)^2^+5.6000P] where P=(Fo^2^+2Fc^2^)/3'
_refine_ls_weighting_scheme      calc
_refine_ls_wR_factor_gt          0.1527
_refine_ls_wR_factor_ref         0.1872
_reflns_Friedel_coverage         0.000
_reflns_number_gt                5321
_reflns_number_total             9547
_reflns_threshold_expression     'I > 2\s(I)'
_cod_data_source_file            ao1c03610_si_002.cif
_cod_data_source_block           15043a
_cod_database_code               4519075
_shelx_space_group_comment
; 
The symmetry employed for this shelxl refinement is uniquely defined 
by the following loop, which should always be used as a source of 
symmetry information in preference to the above space-group names. 
They are only intended as comments. 
;
_shelx_estimated_absorpt_t_min   0.824
_shelx_estimated_absorpt_t_max   0.887
_shelx_res_file
; 
  
TITL 15043a in P-1 
    15043a.res 
    created by SHELXL-2018/3 at 21:38:16 on 02-Sep-2020 
CELL 0.71073  11.502  13.713  13.952  66.470  82.509  78.860 
ZERR    2.00   0.004   0.004   0.004   0.007   0.008   0.007 
LATT  1 
SFAC C  H   N  F  FE SB 
UNIT 80 100 12 12 2  2 
  
TEMP -173.15 
SIZE 0.11 0.16 0.18 
ACTA 
CONF 
WPDB -1 
EQIV $1 x-1, y, z 
EQIV $2 -x+2, -y, -z+2 
HTAB N6 F1 
HTAB C20 F3_$1 
HTAB C37 F5_$2 
HTAB C40 F2 
HTAB C40 F3' 
HTAB 
  
OMIT   1   0   0  ! low resolution, Fo^2 < Fc^2 
omit  -1   0   7  ! (Fo^2-Fc^2)/esd > 10 
omit   3   9   1 
SHEL 20.0 0.94    ! data in higher resolution shells had delta/esd < 2 
  
L.S. 8 4 
BOND $H 
FMAP 2 
PLAN 20 
  
eadp sb1 sb1' 
rigu 0.004 sb1 > f6 
rigu 0.004 sb1' > f6' 
simu 0.008 sb1 f1 f2 f3 f4 f5 f6 f1' > f6' 
sadi 0.004 sb1 f1 sb1 f2 sb1 f3 sb1 f4 sb1 f5 sb1 f6 
sadi 0.004 sb1' f1' sb1' f2' sb1' f3' sb1' f4' sb1' f5' sb1' f6' sb1 f1 
sadi 0.008 f1 f2 f1 f3 f1 f5 f1 f6 f2 f3 f2 f4 
sadi 0.008 f2 f6 f3 f4 f3 f5 f4 f5 f4 f6 f5 f6 f1 f2 
sadi 0.008 f1' f2' f1' f3' f1' f5' f1' f6' f2' f3' f2' f4' f1 f2 
sadi 0.008 f2' f6' f3' f4' f3' f5' f4' f5' f4' f6' f5' f6' f1 f2 
isor 0.004 c31 c32 c39 f6 
rigu 0.004 c13 c31 c32 
  
dfix 0.80 0.02 n6 h6 
sadi 0.012 C37 h6 c39 h6 
flat 0.020 n5 n6 c37 c38 c39 h6 
  
WGHT    0.065000    5.600000 
BASF   0.31251 
FVAR       0.29655   0.75009 
FE1   5    0.572560    0.373833    0.681706    11.00000    0.03470    0.03126 = 
         0.02792   -0.01668   -0.00162   -0.00224 
N1    3    0.454436    0.433137    0.771780    11.00000    0.03176    0.02383 = 
         0.02566   -0.01276   -0.00572   -0.00124 
N2    3    0.595830    0.523926    0.588907    11.00000    0.03774    0.02707 = 
         0.02133   -0.01199   -0.00016   -0.00049 
N3    3    0.651676    0.323990    0.568105    11.00000    0.02897    0.04549 = 
         0.02460   -0.01716    0.00128   -0.00179 
N4    3    0.512741    0.233248    0.753328    11.00000    0.04444    0.02794 = 
         0.03171   -0.01776    0.00040   -0.00788 
N5    3    0.719311    0.334819    0.766689    11.00000    0.02760    0.04538 = 
         0.03472   -0.02268   -0.00064    0.00008 
N6    3    0.865559    0.241869    0.868806    11.00000    0.05329    0.09403 = 
         0.05897   -0.01012   -0.01735    0.00308 
H6    2    0.905585    0.190394    0.906962    11.00000   -1.20000 
C1    1    0.379092    0.378124    0.855150    11.00000    0.02132    0.03332 = 
         0.03019   -0.01540   -0.00473   -0.00138 
C2    1    0.315840    0.447203    0.906144    11.00000    0.02965    0.03422 = 
         0.01694   -0.01152   -0.00281    0.00564 
C3    1    0.353522    0.544667    0.856669    11.00000    0.02517    0.02439 = 
         0.02247   -0.01085   -0.00825    0.00328 
C4    1    0.438626    0.534367    0.773060    11.00000    0.03006    0.02342 = 
         0.02537   -0.01406   -0.01639    0.00671 
C5    1    0.492141    0.618222    0.698995    11.00000    0.03478    0.01374 = 
         0.03987   -0.01538   -0.01224    0.00223 
AFIX  43 
H5    2    0.477570    0.684528    0.708385    11.00000   -1.20000 
AFIX   0 
C6    1    0.564617    0.614511    0.612867    11.00000    0.02803    0.02912 = 
         0.02481   -0.00543   -0.00568   -0.00112 
C7    1    0.613488    0.703605    0.534634    11.00000    0.03376    0.02281 = 
         0.02799   -0.00542   -0.01488    0.00879 
C8    1    0.674587    0.667753    0.462005    11.00000    0.02620    0.04085 = 
         0.02395   -0.00590   -0.00099   -0.00741 
C9    1    0.663482    0.557932    0.495025    11.00000    0.03766    0.05449 = 
         0.02060   -0.00958   -0.00912   -0.01540 
C10   1    0.716468    0.489229    0.444052    11.00000    0.03789    0.04861 = 
         0.02110   -0.01680   -0.00407   -0.00818 
AFIX  43 
H10   2    0.759516    0.520390    0.379210    11.00000   -1.20000 
AFIX   0 
C11   1    0.711946    0.381315    0.479049    11.00000    0.03225    0.04048 = 
         0.02618   -0.01562   -0.00679    0.00279 
C12   1    0.776882    0.313860    0.427245    11.00000    0.04543    0.04338 = 
         0.02421   -0.01572   -0.00485   -0.00064 
C13   1    0.757263    0.213653    0.487720    11.00000    0.05836    0.06032 = 
         0.04060   -0.02653    0.00441    0.00551 
C14   1    0.679791    0.218362    0.574928    11.00000    0.04547    0.02542 = 
         0.03433   -0.01392   -0.00679    0.01099 
C15   1    0.634874    0.134947    0.654254    11.00000    0.06562    0.03254 = 
         0.04193   -0.02154    0.00010   -0.00365 
AFIX  43 
H15   2    0.661928    0.065645    0.652537    11.00000   -1.20000 
AFIX   0 
C16   1    0.555646    0.138079    0.736274    11.00000    0.04760    0.03171 = 
         0.03432   -0.01625   -0.00615   -0.00450 
C17   1    0.500871    0.051711    0.810587    11.00000    0.05252    0.03300 = 
         0.03056   -0.01167   -0.00591   -0.00536 
C18   1    0.422892    0.091589    0.872718    11.00000    0.04438    0.03722 = 
         0.03152   -0.02268   -0.00311   -0.00097 
C19   1    0.432553    0.203145    0.837443    11.00000    0.03919    0.03774 = 
         0.02559   -0.01576   -0.00727   -0.00692 
C20   1    0.368695    0.271605    0.883692    11.00000    0.03368    0.02182 = 
         0.02092   -0.00627   -0.00230   -0.00396 
AFIX  43 
H20   2    0.313027    0.242402    0.939884    11.00000   -1.20000 
AFIX   0 
C21   1    0.222655    0.418144    0.992808    11.00000    0.03608    0.03465 = 
         0.03627   -0.01753   -0.00866    0.00863 
AFIX  23 
H21A  2    0.166541    0.484151    0.988448    11.00000   -1.20000 
H21B  2    0.177631    0.368439    0.983055    11.00000   -1.20000 
AFIX   0 
C22   1    0.269485    0.366615    1.098787    11.00000    0.06801    0.12756 = 
         0.07723   -0.04773    0.00699   -0.03599 
AFIX   3 
H22A  2    0.321664    0.299033    1.105119    11.00000   -1.50000 
H22B  2    0.203505    0.351654    1.151969    11.00000   -1.50000 
H22C  2    0.314588    0.415064    1.109113    11.00000   -1.50000 
AFIX   0 
C23   1    0.316551    0.641922    0.881126    11.00000    0.03709    0.02957 = 
         0.03914   -0.02094   -0.00166    0.00416 
AFIX  23 
H23A  2    0.232910    0.643272    0.909220    11.00000   -1.20000 
H23B  2    0.319769    0.706143    0.815187    11.00000   -1.20000 
AFIX   0 
C24   1    0.390079    0.650332    0.958355    11.00000    0.06663    0.02995 = 
         0.04750   -0.02094   -0.00335   -0.00062 
AFIX   3 
H24A  2    0.390002    0.585912    1.023170    11.00000   -1.50000 
H24B  2    0.356582    0.714293    0.973627    11.00000   -1.50000 
H24C  2    0.471691    0.656028    0.928603    11.00000   -1.50000 
AFIX   0 
C25   1    0.604682    0.811396    0.539939    11.00000    0.04313    0.03549 = 
         0.03054   -0.00032   -0.00595   -0.00509 
AFIX  23 
H25A  2    0.522989    0.832570    0.565068    11.00000   -1.20000 
H25B  2    0.619048    0.865037    0.468518    11.00000   -1.20000 
AFIX   0 
C26   1    0.691287    0.814312    0.610978    11.00000    0.05408    0.04287 = 
         0.06718   -0.03283   -0.01033   -0.00833 
AFIX   3 
H26A  2    0.679906    0.758877    0.680936    11.00000   -1.50000 
H26B  2    0.676515    0.885297    0.615302    11.00000   -1.50000 
H26C  2    0.772920    0.800701    0.583351    11.00000   -1.50000 
AFIX   0 
C27   1    0.745696    0.729785    0.365660    11.00000    0.04473    0.03559 = 
         0.03716   -0.01110   -0.01528   -0.00560 
AFIX  23 
H27A  2    0.712103    0.807175    0.342389    11.00000   -1.20000 
H27B  2    0.737526    0.705948    0.308926    11.00000   -1.20000 
AFIX   0 
C28   1    0.876476    0.716296    0.382116    11.00000    0.07349    0.08307 = 
         0.03422   -0.01634   -0.00389   -0.03777 
AFIX   3 
H28A  2    0.885963    0.752216    0.428222    11.00000   -1.50000 
H28B  2    0.919486    0.748742    0.314525    11.00000   -1.50000 
H28C  2    0.908418    0.639565    0.414399    11.00000   -1.50000 
AFIX   0 
C29   1    0.857062    0.347532    0.329862    11.00000    0.04491    0.05670 = 
         0.03010   -0.02470    0.00763    0.00212 
AFIX  23 
H29A  2    0.826606    0.422085    0.283360    11.00000   -1.20000 
H29B  2    0.856919    0.299941    0.292035    11.00000   -1.20000 
AFIX   0 
C30   1    0.983565    0.342021    0.355160    11.00000    0.04537    0.08636 = 
         0.04512   -0.03202    0.00139   -0.00356 
AFIX   3 
H30A  2    0.985657    0.397120    0.382702    11.00000   -1.50000 
H30B  2    1.035913    0.354780    0.291443    11.00000   -1.50000 
H30C  2    1.010490    0.270676    0.407747    11.00000   -1.50000 
AFIX   0 
C31   1    0.821833    0.103669    0.477879    11.00000    0.08869    0.07954 = 
         0.07251   -0.03999    0.00728   -0.01881 
AFIX  23 
H31A  2    0.898152    0.113234    0.435883    11.00000   -1.20000 
H31B  2    0.836619    0.045968    0.547721    11.00000   -1.20000 
AFIX   0 
C32   1    0.740820    0.080484    0.427394    11.00000    0.07928    0.08395 = 
         0.08625   -0.02668   -0.00895   -0.00259 
AFIX   3 
H32A  2    0.666951    0.069696    0.471370    11.00000   -1.50000 
H32B  2    0.773372    0.015143    0.414244    11.00000   -1.50000 
H32C  2    0.724600    0.141104    0.360643    11.00000   -1.50000 
AFIX   0 
C33   1    0.528518   -0.063121    0.815899    11.00000    0.07292    0.02855 = 
         0.03678   -0.01256   -0.00136   -0.00655 
AFIX  23 
H33A  2    0.612427   -0.077933    0.791780    11.00000   -1.20000 
H33B  2    0.517977   -0.113561    0.889484    11.00000   -1.20000 
AFIX   0 
C34   1    0.449546   -0.082161    0.749470    11.00000    0.07666    0.04444 = 
         0.04486   -0.01708   -0.00472   -0.00198 
AFIX   3 
H34A  2    0.366439   -0.066638    0.772774    11.00000   -1.50000 
H34B  2    0.467937   -0.157403    0.756352    11.00000   -1.50000 
H34C  2    0.462534   -0.034758    0.676036    11.00000   -1.50000 
AFIX   0 
C35   1    0.335192    0.034636    0.953121    11.00000    0.06525    0.03136 = 
         0.03287   -0.01344    0.00990   -0.00854 
AFIX  23 
H35A  2    0.326512    0.059226    1.011803    11.00000   -1.20000 
H35B  2    0.365401   -0.043560    0.981063    11.00000   -1.20000 
AFIX   0 
C36   1    0.213669    0.053657    0.910405    11.00000    0.07822    0.07780 = 
         0.04868   -0.03264    0.01580   -0.03869 
AFIX   3 
H36A  2    0.188551    0.131162    0.873780    11.00000   -1.50000 
H36B  2    0.155753    0.024624    0.968318    11.00000   -1.50000 
H36C  2    0.218733    0.017671    0.861476    11.00000   -1.50000 
AFIX   0 
C37   1    0.765182    0.239747    0.824334    11.00000    0.04145    0.06536 = 
         0.06862   -0.01946   -0.01724   -0.00939 
AFIX  43 
H37   2    0.734797    0.176181    0.835324    11.00000   -1.20000 
AFIX   0 
C38   1    0.790321    0.405486    0.771320    11.00000    0.04672    0.07529 = 
         0.04743   -0.02167   -0.01308   -0.00034 
AFIX  43 
H38   2    0.777798    0.481614    0.736214    11.00000   -1.20000 
AFIX   0 
C39   1    0.877948    0.347275    0.833317    11.00000    0.06586    0.07517 = 
         0.06635   -0.02746    0.00116   -0.01151 
C40   1    0.978296    0.381021    0.864702    11.00000    0.09285    0.11396 = 
         0.10756   -0.04805   -0.02917   -0.02677 
AFIX   3 
H40A  2    0.971456    0.360984    0.940719    11.00000   -1.50000 
H40B  2    0.974554    0.459225    0.829426    11.00000   -1.50000 
H40C  2    1.054199    0.345154    0.844877    11.00000   -1.50000 
AFIX   0 
PART   1 
SB1   6    1.044083    0.116091    1.170556    21.00000    0.04032    0.05811 = 
         0.03475   -0.02256   -0.00330   -0.00193 
F1    4    0.977822    0.126110    1.051851    21.00000    0.07958    0.07707 = 
         0.05486   -0.03300   -0.02705   -0.00014 
F2    4    0.980404    0.258350    1.145086    21.00000    0.08074    0.07943 = 
         0.10084   -0.05857   -0.02690    0.03350 
F3    4    1.179340    0.160625    1.089895    21.00000    0.05871    0.06673 = 
         0.09241   -0.04903    0.02241   -0.01542 
F4    4    1.111348    0.105374    1.288470    21.00000    0.11436    0.09677 = 
         0.05439   -0.02358   -0.04470   -0.00064 
F5    4    1.107451   -0.026170    1.194481    21.00000    0.10931    0.04487 = 
         0.10314   -0.02927   -0.04023    0.01445 
F6    4    0.907575    0.072989    1.249852    21.00000    0.10043    0.13619 = 
         0.09639   -0.05513    0.02853   -0.03853 
PART   2 
SB1'  6    1.038288    0.090603    1.173567   -21.00000    0.04032    0.05811 = 
         0.03475   -0.02256   -0.00330   -0.00193 
F1'   4    1.017058    0.016008    1.093458   -21.00000    0.09988    0.08396 = 
         0.09030   -0.04648   -0.01409   -0.01400 
F2'   4    0.887176    0.167794    1.146277   -21.00000    0.06731    0.09312 = 
         0.09240   -0.03562   -0.00912    0.01264 
F3'   4    1.100259    0.193411    1.055753   -21.00000    0.07354    0.06037 = 
         0.06815   -0.02304    0.01062   -0.00428 
F4'   4    1.059429    0.164802    1.253877   -21.00000    0.10196    0.07700 = 
         0.07757   -0.04722   -0.01873    0.00333 
F5'   4    1.189232    0.012582    1.200834   -21.00000    0.05310    0.07264 = 
         0.09393   -0.01858   -0.00997    0.00209 
F6'   4    0.976514   -0.012847    1.291169   -21.00000    0.08574    0.07451 = 
         0.07929   -0.03172    0.00528   -0.01358 
PART   0 
  
HKLF 5 
  
  
  
  
REM  15043a in P-1 
REM wR2 = 0.1872, GooF = S = 1.012, Restrained GooF = 1.026 for all data 
REM R1 = 0.0732 for 5321 Fo > 4sig(Fo) and 0.1506 for all 9547 data 
REM 549 parameters refined using 632 restraints 
  
END 
  
WGHT      0.0648      5.7008 
  
REM Instructions for potential hydrogen bonds 
HTAB N6 F1 
HTAB C20 F3_$1 
HTAB C37 F5_$2 
HTAB C40 F2 
HTAB C40 F3' 
  
REM Highest difference peak  1.272,  deepest hole -0.798,  1-sigma level  0.149 
Q1    1   0.8894  0.0368  0.5014  11.00000  0.05    1.27 
Q2    1   0.0996  0.4390  0.9593  11.00000  0.05    1.18 
Q3    1   0.8655  0.1365  1.2035  11.00000  0.05    0.94 
Q4    1   0.7794  0.1432  0.4517  11.00000  0.05    0.74 
Q5    1   0.9363  0.0048  1.2891  11.00000  0.05    0.62 
Q6    1   1.1828 -0.0108  1.1605  11.00000  0.05    0.59 
Q7    1   0.9969  0.3019  1.1162  11.00000  0.05    0.56 
Q8    1   1.1327  0.1879  1.0831  11.00000  0.05    0.56 
Q9    1   0.8349 -0.0168  0.4490  11.00000  0.05    0.55 
Q10   1   0.9462  0.1175  0.4625  11.00000  0.05    0.54 
Q11   1   1.0022  0.2043  1.0680  11.00000  0.05    0.54 
Q12   1   0.3635 -0.1540  1.0559  11.00000  0.05    0.54 
Q13   1   0.8315  0.2774  0.8404  11.00000  0.05    0.53 
Q14   1   0.8351  0.4641  0.6765  11.00000  0.05    0.52 
Q15   1   0.8915  0.1572  1.0852  11.00000  0.05    0.52 
Q16   1   0.3955  0.1017  0.8038  11.00000  0.05    0.51 
Q17   1   0.9627  0.4014  0.1703  11.00000  0.05    0.51 
Q18   1   1.0625 -0.0239  1.1570  11.00000  0.05    0.51 
Q19   1   0.6435  0.7939  0.7007  11.00000  0.05    0.49 
Q20   1   1.1904  0.0804  1.1512  11.00000  0.05    0.49 
;
_shelx_res_checksum              81611
_shelx_hkl_file
; 
   1   0   0 43.4210 1.79803   2 
   1   0   0 84.5788 2.38095   1 
   2   0   0 425.557 6.50801   1 
   2   0   0 187.915 4.47836   2 
   3   0   0 348.323 7.50876   1 
   3   0   0 154.391 5.21104   2 
   4   0   0 15.0761 3.56216   2 
   4   0   0 34.5891 6.99140   1 
   4   1   2 49.9887 9.47701  -2 
   4   0   0 49.9887 9.47701   1 
   5   0   0 32.6292 4.42090   2 
   5   0   0 59.8277 5.22062   1 
   6   0   0 12.3183 4.78005   1 
   6   0   0 0.19140 3.94915   2 
   7   0   0 9.52989 3.60110   2 
   7   0   0 14.4920 7.77695   1 
   8   0   0 16.8023 3.68708   2 
   8   0   0 45.3541 6.36713   1 
   9   0   0 6.69396 5.36854   1 
   9   0   0 3.77244 3.56646   2 
  10   0   0 52.9120 7.48917   1 
  10   0   0 16.4194 5.33172   2 
  11   0   0 50.8256 8.38657   1 
  11   0   0 23.0680 5.92723   2 
  12   0   0 18.5953 7.40379   1 
  12   0   0 12.4961 11.4851   2 
  13   0   0 44.0846 13.5166   2 
  13   0   0 50.5155 14.0086   1 
  14   0   0 3.89093 12.6929   2 
  14   0   0 3.17402 12.0764   1 
 -13   1   0 -3.6406 11.2711   2 
 -13   1   0 9.04793 12.4234   1 
 -12   1   0 4.99863 5.60880   2 
 -12   1   0 31.3510 7.61565   1 
 -11   1   0 -4.1414 4.82805   2 
 -11   1   0 1.70679 6.30907   1 
 -10   1   0 58.4402 7.99688   1 
 -10   1   0 21.6040 5.35884   2 
  -9   1   0 9.70391 5.33221   2 
  -9   1   0 17.4248 6.02968   1 
  -8   1   0 19.2920 5.56715   1 
  -8   1   0 16.9563 5.36361   2 
  -7   1   0 9.67344 3.70575   2 
  -7   1   0 12.2107 4.83796   1 
  -6   1   0 125.068 5.55096   2 
  -6   1   0 272.067 8.74468   1 
  -5   1   0 -4.3091 2.85607   2 
  -5   1   0 -3.3869 3.91949   1 
  -4   1   0 395.144 8.38949   1 
  -4   1   0 165.523 5.36094   2 
  -3   1   0 40.8089 3.87315   1 
  -3   1   0 17.6565 2.93021   2 
  -2   1   0 604.372 7.48835   1 
  -2   1   0 264.698 4.99021   2 
  -1   1   0 947.493 7.91538   1 
  -1   1   0 454.911 5.91371   2 
   0   1   0 10.1206 1.20282   2 
   1   1   0 1871.54 13.8431   1 
   1   1   0 944.768 7.76758   2 
   2   1   0 339.206 6.34016   1 
   2   1   0 166.236 3.79681   2 
   3   1   0 98.4354 5.01845   1 
   3   1   0 40.5241 2.79290   2 
   4   1   0 18.5633 4.35940   1 
   4   1   0 9.63908 2.78100   2 
   5   1   0 5.60853 2.83663   2 
   5   1   0 20.6857 4.62440   1 
   6   1   0 29.1512 3.59469   2 
   6   1   0 58.7211 5.92782   1 
   7   1   0 104.368 5.30633   2 
   7   1   0 219.633 9.12983   1 
   8   1   0 25.0432 5.59437   1 
   9   1   0 35.6239 4.31120   2 
   9   1   0 92.4020 8.10904   1 
  10   1   0 -3.4457 5.37077   2 
  10   1   0 1.24999 5.53694   1 
  11   1   0 17.3917 6.76219   2 
  11   1   0 35.0610 7.63112   1 
  12   1   0 14.4436 7.48947   1 
  12   1   0 6.45076 10.0443   2 
  13   1   0 -4.3238 7.17138   1 
  13   1   0 13.6797 11.7558   2 
  14   1   0 9.18593 13.2962   2 
  14   1   0 -0.5322 11.7196   1 
 -13   2   0 -8.8686 7.74812   2 
 -13   2   0 -6.7583 11.1607   1 
 -12   2   0 -1.9657 6.23746   2 
 -12   2   0 12.1361 10.7117   1 
 -11   2   0 8.26069 6.10768   2 
 -11   2   0 1.02657 6.48997   1 
 -10   2   0 17.1654 6.88217   2 
 -10   2   0 51.3166 7.61077   1 
  -9   2   0 0.57320 5.45452   1 
  -8   2   0 27.8692 6.02180   2 
  -8   2   0 66.0782 7.11433   1 
  -7   2   0 110.923 7.30053   1 
  -6   2   0 34.2788 5.26600   2 
  -6   2   0 78.6005 6.39869   1 
  -5   2   0 129.868 6.97645   2 
  -5   2   0 286.242 8.36415   1 
  -4   2   0 58.6849 3.62914   1 
  -4   2   0 28.8360 4.38868   2 
  -3   2   0 322.611 5.44439   1 
  -3   2   0 143.513 6.16159   2 
  -2   2   0 104.230 4.99225   2 
  -2   2   0 207.703 4.76854   1 
  -1   2   0 160.987 3.28673   1 
  -1   2   0 88.4225 4.01816   2 
   0   2   0 -1.5052 1.95916   2 
   0   2   0 5.78677 1.69114   1 
   1   2   0 134.554 3.38310   2 
   1   2   0 292.148 5.62950   1 
   2   2   0 9.03468 3.30859   1 
   2   2   0 6.97126 2.25800   2 
   3   2   0 217.538 4.95560   2 
   3   2   0 474.402 8.93014   1 
   4   2   0 5.23644 4.26326   1 
   4   2   0 2.79931 2.72564   2 
   5   2   0 118.379 5.23729   2 
   5   2   0 270.830 8.51062   1 
   6   2   0 110.587 9.39714   1 
   6   2   0 56.4161 4.67003   2 
   5   0   4 122.244 14.8463  -2 
   6   2   0 122.244 14.8463   1 
   7   2   0 149.541 9.50296   2 
   7   2   0 230.100 9.56723   1 
   8   2   0 424.579 12.7799   1 
   8   2   0 184.622 10.3984   2 
   9   2   0 -1.6369 4.33585   2 
   9   2   0 5.94029 5.45399   1 
  10   2   0 35.4488 5.04410   2 
   9   1   6 140.799 10.9743  -2 
  10   2   0 140.799 10.9743   1 
  11   2   0 -5.1944 5.47123   2 
  10   1   6 7.03588 15.1069  -2 
  11   2   0 7.03588 15.1069   1 
  11   2   0 -11.522 9.69316   1 
  12   2   0 6.77696 9.95184   2 
  12   2   0 2.29838 6.53561   1 
  13   2   0 5.85350 7.46472   1 
  13   2   0 19.7272 11.8276   2 
  14   2   0 7.51678 8.16164   1 
 -13   3   0 1.21382 6.84585   2 
 -12   3   0 -4.1925 6.34603   2 
 -12   3   0 18.3853 11.2626   1 
 -11   3   0 -7.9310 5.55962   2 
 -11   3   0 2.40871 8.70193   1 
 -10   3   0 42.3075 5.95492   1 
 -10   3   0 23.1975 7.25395   2 
  -9   3   0 117.490 6.85080   1 
  -9   3   0 42.2377 7.44678   2 
  -8   3   0 10.9994 5.94645   2 
  -8   3   0 55.8192 6.44679   1 
  -7   3   0 235.558 7.11438   1 
  -7   3   0 85.1027 7.46113   2 
  -6   3   0 57.2805 6.43802   2 
  -6   3   0 144.394 5.65543   1 
  -5   3   0 25.1808 5.18057   2 
  -5   3   0 79.1404 5.03550   1 
  -4   3   0 48.9098 5.25902   2 
  -4   3   0 116.287 5.19194   1 
  -3   3   0 -0.5317 3.57580   2 
  -3   3   0 2.55467 2.81178   1 
  -2   3   0 50.8873 3.04146   1 
  -2   3   0 31.0635 4.24410   2 
  -1   3   0 74.0094 2.17757   1 
  -1   3   0 33.8823 3.76127   2 
   0   3   0 44.1952 3.52012   2 
   0   3   0 94.2609 3.70020   1 
   1   3   0 119.674 4.86603   1 
   2   3   0 323.875 7.62878   1 
   2   3   0 147.556 4.26309   2 
   3   3   0 2.45746 2.54764   2 
   3   3   0 3.00731 3.92355   1 
   4   3   0 286.276 8.43949   1 
   4   3   0 135.874 4.73399   2 
   5   3   0 123.883 7.07083   1 
   5   3   0 52.3202 4.05799   2 
   6   3   0 184.491 8.47636   1 
   6   3   0 75.2066 4.84229   2 
   7   3   0 74.3421 7.02677   1 
   7   3   0 42.3837 4.60503   2 
   8   3   0 3.50304 3.87840   2 
   8   3   0 5.96984 5.12130   1 
   9   3   0 3.09675 5.56453   1 
   9   3   0 0.65085 4.21146   2 
  10   3   0 -6.9147 5.33475   1 
  10   3   0 -4.8256 4.63057   2 
  11   3   0 -8.5150 7.47071   2 
  11   3   0 6.14077 6.84785   1 
  12   3   0 39.7636 8.58428   1 
  12   3   0 5.57396 8.90275   2 
  13   3   0 -0.3792 7.20480   1 
  14   3   0 16.8946 8.99570   1 
 -13   4   0 4.46608 7.44219   2 
 -12   4   0 3.56008 6.90461   2 
 -11   4   0 19.9053 8.37302   2 
 -10   4   0 11.3865 8.11126   2 
 -10   4   0 22.7605 9.62294   1 
  -9   4   0 47.8158 6.84977   1 
  -9   4   0 14.1717 6.83106   2 
  -8   4   0 141.374 8.21311   1 
  -8   4   0 52.4444 7.71045   2 
  -7   4   0 4.48907 4.40282   1 
  -7   4   0 5.46885 5.49472   2 
  -6   4   0 56.0302 6.76320   2 
  -6   4   0 133.167 6.64984   1 
  -5   4   0 12.3770 4.96862   2 
  -5   4   0 23.4865 3.90015   1 
  -4   4   0 -0.9573 2.90971   1 
  -4   4   0 0.22319 4.28312   2 
  -3   4   0 51.9254 3.72408   1 
  -3   4   0 24.7969 4.67157   2 
  -2   4   0 331.228 6.47225   1 
  -2   4   0 135.821 9.21195   2 
  -1   4   0 146.554 3.45594   1 
  -1   4   0 57.5527 4.58168   2 
   0   4   0 577.781 9.21438   2 
   0   4   0 1236.34 11.9907   1 
   1   4   0 -0.6455 2.88190   2 
   1   4   0 7.31864 3.19220   1 
   2   4   0 302.817 6.07529   2 
   2   4   0 653.510 10.7466   1 
   3   4   0 63.5668 5.27343   1 
   3   4   0 50.0442 6.15500   2 
   4   4   0 65.2505 5.74761   1 
   4   4   0 42.7560 3.48213   2 
   5   4   0 185.930 8.22912   1 
   5   4   0 91.6456 4.40267   2 
   6   4   0 -1.0598 4.80836   1 
   6   4   0 0.02871 3.01288   2 
   7   4   0 56.5924 7.18609   1 
   7   4   0 24.6823 4.00553   2 
   8   4   0 36.2662 4.84921   2 
   8   4   0 96.2557 8.17037   1 
   9   4   0 6.46498 4.52763   2 
   9   4   0 2.44649 5.51127   1 
  10   4   0 26.1828 7.00116   1 
  10   4   0 2.98307 7.02085   2 
  11   4   0 25.6781 7.75899   1 
  12   4   0 0.69159 7.55333   1 
  13   4   0 40.3128 9.71920   1 
  14   4   0 -8.5513 7.82630   1 
 -12   5   0 -0.8391 7.20894   2 
 -11   5   0 -9.9046 7.77095   2 
 -10   5   0 20.6956 8.20848   2 
  -8   5   0 7.31108 5.00738   1 
  -8   5   0 -3.9551 5.76911   2 
  -7   5   0 2.23882 4.39465   1 
  -7   5   0 -2.2177 5.79399   2 
  -6   5   0 23.5907 9.33008   2 
  -6   5   0 60.1825 5.27942   1 
  -5   5   0 -0.0878 4.55188   2 
  -5   5   0 1.80947 3.73062   1 
  -4   5   0 123.023 5.27895   1 
  -4   5   0 61.8107 6.28849   2 
  -3   5   0 48.9659 5.43975   2 
  -3   5   0 112.280 4.35694   1 
  -2   5   0 231.938 8.15491   2 
  -4  -3   2 606.782 16.7946  -2 
  -2   5   0 606.782 16.7946   1 
  -2   5   0 509.155 7.25555   1 
  -1   5   0 111.031 3.29936   1 
  -1   5   0 49.7497 4.89829   2 
   0   5   0 83.8220 4.23885   1 
   0   5   0 36.1069 7.08468   2 
   1   5   0 767.475 9.04554   1 
   1   5   0 352.934 7.73741   2 
   2   5   0 18.0899 3.12811   2 
   0  -2   4 70.9110 8.19038  -2 
   2   5   0 70.9110 8.19038   1 
   3   5   0 133.166 5.07842   2 
   3   5   0 263.297 8.60709   1 
   4   5   0 35.1111 5.39801   1 
   4   5   0 16.5045 3.19504   2 
   5   5   0 3.21664 4.62747   1 
   5   5   0 2.37118 3.04156   2 
   6   5   0 14.0168 5.31616   1 
   6   5   0 11.2372 4.29012   2 
   7   5   0 41.0620 6.85305   1 
   7   5   0 9.86313 5.32826   2 
   8   5   0 4.83796 5.57018   1 
   9   5   0 21.2999 4.60235   2 
   9   5   0 78.4665 8.53010   1 
  10   5   0 2.54498 6.88611   1 
  11   5   0 9.20954 7.00346   1 
  12   5   0 17.3733 8.04514   1 
  13   5   0 2.47438 13.6191   1 
  11   0   9 28.3258 17.7172  -2 
  13   5   0 28.3258 17.7172   1 
  14   5   0 -3.3136 8.30715   1 
 -12   6   0 6.80063 7.81302   2 
 -11   6   0 -4.5498 8.31112   2 
 -10   6   0 -0.9825 7.67911   2 
  -9   6   0 -3.9497 10.6707   2 
  -8   6   0 34.0617 8.72234   1 
  -8   6   0 4.29766 6.81968   2 
  -7   6   0 18.2101 6.20056   2 
  -7   6   0 -9.6042 5.84689   1 
  -6   6   0 2.89411 5.61305   2 
  -6   6   0 16.2325 4.21818   1 
  -5   6   0 147.836 6.07316   1 
  -5   6   0 60.5794 6.90513   2 
  -4   6   0 95.2684 7.66078   2 
  -4   6   0 218.289 11.5637   1 
  -3   6   0 70.3013 6.30920   2 
  -3   6   0 135.063 4.02609   1 
  -2   6   0 74.9116 6.11131   2 
  -2   6   0 181.623 9.87777   1 
  -1   6   0 90.1287 5.99623   2 
  -1   6   0 194.537 4.13009   1 
   0   6   0 29.5251 4.58260   2 
   0   6   0 50.6929 4.00037   1 
   1   6   0 37.1716 4.36023   1 
   1   6   0 16.7301 3.71852   2 
   2   6   0 22.6689 3.78516   2 
   2   6   0 53.6572 5.36589   1 
   3   6   0 117.666 5.08920   2 
   3   6   0 253.521 9.01387   1 
   4   6   0 9.22449 4.74760   1 
   4   6   0 1.91306 3.16522   2 
   5   6   0 116.811 7.76086   1 
   5   6   0 54.0765 4.21222   2 
   6   6   0 4.94676 3.54381   2 
   6   6   0 10.9478 5.29180   1 
   7   6   0 31.2069 4.07974   2 
   7   6   0 65.1543 7.45206   1 
   8   6   0 66.4119 8.14194   1 
   8   6   0 29.4115 6.39081   2 
   9   6   0 1.39690 6.39985   1 
  10   6   0 74.3378 9.33984   1 
  11   6   0 4.56830 7.45523   1 
  12   6   0 -3.1477 7.35140   1 
  13   6   0 11.8956 8.58497   1 
 -11   7   0 -3.0246 8.96549   2 
 -10   7   0 4.85467 8.17055   2 
  -9   7   0 39.3842 13.5470   2 
  -8   7   0 -9.3815 6.89527   2 
  -7   7   0 84.9025 10.4488   1 
  -7   7   0 23.7141 7.21785   2 
  -6   7   0 31.8382 8.25718   1 
  -6   7   0 4.64458 6.04464   2 
  -5   7   0 16.4323 7.40021   1 
  -5   7   0 12.3506 5.86850   2 
  -4   7   0 63.6414 7.21970   2 
  -4   7   0 146.861 10.5024   1 
  -3   7   0 11.6239 5.25672   2 
  -3   7   0 12.9010 6.28609   1 
  -2   7   0 48.1396 6.14324   2 
  -2   7   0 115.525 9.39832   1 
  -1   7   0 151.149 10.5860   1 
   0   7   0 99.6838 5.10436   1 
   0   7   0 36.3399 5.24468   2 
   1   7   0 110.217 5.92807   1 
   1   7   0 52.1048 5.01821   2 
   2   7   0 58.7975 4.37929   1 
   2   7   0 27.1950 4.08970   2 
   3   7   0 51.3390 5.80542   1 
   3   7   0 19.1998 3.67128   2 
   4   7   0 126.918 7.90032   1 
   4   7   0 52.5254 4.31944   2 
   5   7   0 60.1173 7.35878   1 
   5   7   0 21.5590 4.16041   2 
   6   7   0 76.5723 4.94899   2 
   6   7   0 183.713 9.92793   1 
   7   7   0 19.0070 6.92443   1 
   7   7   0 14.1939 5.89229   2 
   5  -2   8 61.7173 10.4924  -2 
   8   7   0 61.7173 10.4924   1 
   9   7   0 44.7227 8.37439   1 
  10   7   0 4.69631 6.89730   1 
  11   7   0 0.57334 7.54521   1 
  12   7   0 -11.056 10.2888   1 
   9  -1  10 -4.7211 17.6162  -2 
  12   7   0 -4.7211 17.6162   1 
  13   7   0 5.12438 7.77282   1 
 -10   8   0 6.13119 8.74444   2 
  -9   8   0 5.03904 7.91208   2 
  -8   8   0 20.2948 10.8448   2 
  -7   8   0 -0.0697 7.02654   2 
  -6   8   0 25.1849 7.52312   2 
  -6   8   0 58.5992 9.88919   1 
  -5   8   0 -6.1106 5.58475   2 
  -5   8   0 -6.2606 6.99961   1 
  -4   8   0 -0.3067 7.24709   1 
  -4   8   0 9.83212 5.82856   2 
  -3   8   0 18.8973 7.17714   1 
  -3   8   0 4.30303 5.34298   2 
  -2   8   0 30.8906 7.84337   1 
  -2   8   0 9.38472 5.27289   2 
  -1   8   0 70.1457 6.95649   2 
  -1   8   0 149.918 11.5014   1 
  -3  -4   5 169.919 6.94884  -2 
   0   8   0 169.919 6.94884   1 
   0   8   0 64.9957 6.38977   2 
   1   8   0 -1.7498 3.76631   1 
   1   8   0 -2.6962 4.11231   2 
   2   8   0 124.555 6.46919   2 
   2   8   0 254.555 8.91139   1 
   3   8   0 30.7222 4.12897   2 
   3   8   0 81.5439 5.34865   1 
   4   8   0 51.4953 8.86611   1 
   4   8   0 27.4075 4.11317   2 
   1  -3   7 109.731 15.8342  -2 
   4   8   0 109.731 15.8342   1 
   5   8   0 108.703 8.13764   1 
   5   8   0 60.6129 4.81975   2 
   6   8   0 -2.9828 5.80535   1 
   6   8   0 7.81128 5.87861   2 
   7   8   0 71.6866 8.61199   1 
   7   8   0 44.7035 7.58137   2 
   8   8   0 -4.2820 5.97638   1 
   9   8   0 34.9610 8.53990   1 
  10   8   0 -10.075 6.89337   1 
  11   8   0 -1.9299 7.71887   1 
  12   8   0 2.99408 8.02527   1 
  13   8   0 22.5161 8.80033   1 
 -10   9   0 4.50423 8.47175   2 
  -9   9   0 2.26680 8.37218   2 
  -8   9   0 6.19916 8.02323   2 
  -7   9   0 12.1935 7.88443   2 
  -6   9   0 3.82183 7.24041   2 
  -5   9   0 14.1488 6.80495   2 
  -5   9   0 13.4119 8.20467   1 
  -4   9   0 19.0647 6.47765   2 
  -4   9   0 34.4579 9.12973   1 
  -3   9   0 7.27512 6.16801   2 
  -2   9   0 19.5336 6.29223   2 
  -2   9   0 18.9993 8.38116   1 
  -1   9   0 5.75293 5.27378   2 
  -1   9   0 37.9669 9.62704   1 
   0   9   0 16.8202 8.53209   1 
   0   9   0 13.2445 5.41232   2 
   1   9   0 270.823 10.4489   1 
   1   9   0 129.094 7.51709   2 
   2   9   0 -1.5233 4.58625   1 
   2   9   0 -2.3426 4.41817   2 
   3   9   0 275.461 10.3383   1 
   3   9   0 139.986 6.98410   2 
   4   9   0 4.79745 4.09167   2 
   4   9   0 3.22351 4.39003   1 
   5   9   0 1.53293 6.66913   2 
   5   9   0 11.1346 4.99144   1 
   6   9   0 -1.6908 5.74353   1 
   6   9   0 -8.5209 6.08070   2 
   7   9   0 18.7226 7.05185   1 
   8   9   0 -12.226 6.47893   1 
   9   9   0 4.51401 7.48307   1 
  10   9   0 12.3547 8.04928   1 
  11   9   0 12.4949 8.96827   1 
  12   9   0 -1.3480 8.72612   1 
  -9  10   0 13.4487 9.04942   2 
  -8  10   0 -3.4137 7.88293   2 
  -7  10   0 10.4754 8.11785   2 
  -6  10   0 23.8264 11.1413   2 
  -5  10   0 34.2474 8.38598   2 
  -5  10   0 63.7442 10.9947   1 
  -4  10   0 -3.4497 6.72633   2 
  -3  10   0 27.5314 9.70334   1 
  -3  10   0 24.7272 9.51274   2 
  -2  10   0 2.62661 6.10899   2 
  -2  10   0 7.39232 8.86328   1 
  -1  10   0 14.2942 6.44597   2 
  -1  10   0 26.6510 9.82460   1 
   0  10   0 8.58458 9.04646   1 
   1  10   0 37.5286 10.2230   1 
   1  10   0 24.6739 5.69403   2 
   2  10   0 9.05246 5.06037   2 
   2  10   0 11.0781 5.07625   1 
   3  10   0 13.3148 5.73830   1 
   3  10   0 -9.1091 4.64703   2 
   4  10   0 1.84527 5.59877   1 
   4  10   0 -16.037 7.29333   2 
   5  10   0 8.64167 5.05486   1 
   5  10   0 -2.0591 7.65426   2 
   6  10   0 3.73041 7.50540   2 
   6  10   0 -0.0994 6.25801   1 
   2  -4   9 45.5154 16.7115  -2 
   6  10   0 45.5154 16.7115   1 
   7  10   0 13.8216 5.83399   1 
   8  10   0 22.5274 7.98525   1 
   9  10   0 14.3211 8.19127   1 
   6  -3  11 39.5143 15.7414  -2 
  10  10   0 39.5143 15.7414   1 
  11  10   0 36.9745 14.1417   1 
  12  10   0 10.7564 7.72402   1 
  -8  11   0 -12.108 8.78550   2 
  -7  11   0 11.3359 8.63225   2 
  -6  11   0 15.2948 8.38706   2 
  -5  11   0 -3.3071 7.01619   2 
  -4  11   0 8.34633 9.57092   1 
  -4  11   0 1.12257 6.94096   2 
  -3  11   0 -5.5960 6.73261   2 
  -3  11   0 19.4541 10.3447   1 
  -2  11   0 4.26002 6.72249   2 
  -6  -6   6 21.9342 15.2375  -2 
  -2  11   0 21.9342 15.2375   1 
  -1  11   0 -1.1912 8.95178   1 
  -1  11   0 1.95377 6.24139   2 
   0  11   0 23.0987 6.66856   2 
   0  11   0 16.5801 10.4828   1 
   1  11   0 11.0330 5.76169   2 
   1  11   0 15.7028 10.5666   1 
   2  11   0 -3.3097 4.94389   2 
  -2  -5   8 26.7398 18.5469  -2 
   2  11   0 26.7398 18.5469   1 
   3  11   0 -8.2144 8.01732   2 
   3  11   0 -1.5884 9.82314   1 
   4  11   0 80.6488 8.01898   1 
   4  11   0 37.7961 10.9583   2 
   5  11   0 7.13171 6.20317   1 
   5  11   0 -8.2123 7.72038   2 
   6  11   0 57.4765 6.88725   1 
   7  11   0 35.4337 6.84700   1 
   8  11   0 29.3637 6.95618   1 
   9  11   0 0.61117 6.54161   1 
  10  11   0 -6.3045 6.63362   1 
  11  11   0 9.28204 7.30052   1 
  -7  12   0 -2.3198 9.38914   2 
  -6  12   0 0.62414 8.67736   2 
  -5  12   0 -3.4738 8.45766   2 
  -4  12   0 0.63850 7.22099   2 
  -3  12   0 3.98718 10.2792   1 
  -3  12   0 4.94291 7.63922   2 
  -2  12   0 8.72380 7.31210   2 
  -2  12   0 30.1536 12.9838   1 
  -1  12   0 46.8799 12.6146   1 
  -1  12   0 27.9848 7.53427   2 
   0  12   0 28.0892 7.27897   2 
   0  12   0 73.3580 13.6279   1 
   1  12   0 8.11243 9.35085   2 
   1  12   0 5.99046 11.0900   1 
   2  12   0 3.86122 9.41078   2 
   2  12   0 29.4178 12.8856   1 
   3  12   0 1.54574 11.0502   1 
   3  12   0 1.17980 8.30904   2 
   4  12   0 -13.302 9.81238   1 
   4  12   0 -7.4282 7.58314   2 
   0  -5  10 24.6586 35.0083  -2 
   5  12   0 24.6586 35.0083   1 
   5  12   0 2.87206 8.34933   2 
   5  12   0 28.0154 9.52900   1 
   6  12   0 1.08301 7.39943   1 
   7  12   0 20.9214 6.76872   1 
   8  12   0 3.22495 6.48130   1 
   9  12   0 4.66447 6.75004   1 
  10  12   0 -9.8521 6.59268   1 
  -6  13   0 1.64765 9.39894   2 
  -5  13   0 6.72868 9.04360   2 
  -4  13   0 12.9056 9.03139   2 
  -3  13   0 1.26287 7.81475   2 
  -2  13   0 9.25374 11.3473   1 
  -2  13   0 15.4226 10.6905   2 
  -1  13   0 4.92486 7.41742   2 
  -1  13   0 30.5250 12.7950   1 
   0  13   0 2.25346 9.78619   2 
   0  13   0 16.7840 12.9236   1 
   1  13   0 30.8167 12.1783   2 
   1  13   0 56.0859 13.4841   1 
  -3  -6   9 18.7168 18.0292  -2 
   2  13   0 18.7168 18.0292   1 
   2  13   0 -3.1879 8.90398   2 
   3  13   0 40.5981 13.8710   1 
   3  13   0 23.3780 10.1310   2 
   4  13   0 -10.372 8.56280   2 
   4  13   0 14.9273 12.9625   1 
   5  13   0 -8.4907 11.3216   1 
   6  13   0 14.9404 13.2858   1 
   7  13   0 8.27539 12.6318   1 
   8  13   0 5.32891 8.71433   1 
   9  13   0 11.2325 8.74162   1 
  -4  14   0 5.57809 8.84964   2 
  -3  14   0 8.48619 13.1394   2 
  -2  14   0 -5.8447 10.5449   2 
  -1  14   0 -9.9197 9.99507   2 
  -1  14   0 13.4738 13.4874   1 
   0  14   0 5.35208 13.3183   1 
   0  14   0 -4.3012 10.2965   2 
   1  14   0 -7.3760 9.80025   2 
   1  14   0 28.8089 13.7443   1 
   2  14   0 -1.5889 10.1807   2 
   2  14   0 20.9300 14.0517   1 
   3  14   0 -2.0549 9.76703   2 
   3  14   0 11.0019 14.6992   1 
   4  14   0 -8.4753 13.2013   1 
   5  14   0 12.6441 13.0057   1 
   6  14   0 25.7807 14.2249   1 
   7  14   0 -0.9901 12.4374   1 
   8  14   0 -15.846 14.0822   1 
  -2  15   0 -0.4548 10.9313   2 
  -1  15   0 12.3411 11.4259   2 
   0  15   0 -2.0830 12.9196   1 
   0  15   0 -2.5387 10.1951   2 
   1  15   0 -20.508 13.0475   1 
   1  15   0 -0.7085 10.1895   2 
   2  15   0 -9.7618 13.7612   1 
   2  15   0 -5.8800 10.2833   2 
   3  15   0 5.60902 10.8914   2 
   3  15   0 1.67632 14.1730   1 
   4  15   0 9.46551 13.6821   1 
   5  15   0 -5.3162 13.7335   1 
   6  15   0 22.6134 15.8068   1 
  -4 -15   1 13.6848 15.2726   1 
  -3 -15   1 14.8746 14.4405   1 
  -2 -15   1 -22.872 13.7321   1 
  -1 -15   1 6.19419 11.9243   2 
  -1 -15   1 2.68190 14.3059   1 
   0 -15   1 -10.172 11.5770   2 
   0 -15   1 8.06167 13.7367   1 
  -7 -14   1 -7.2209 13.2428   1 
  -6 -14   1 2.22445 14.1410   1 
  -5 -14   1 10.2159 14.0639   1 
  -4 -14   1 7.61373 12.5864   1 
  -3 -14   1 -12.428 12.4197   1 
  -2 -14   1 -4.1589 11.9265   1 
  -2 -14   1 9.47545 11.7243   2 
  -1 -14   1 -21.142 12.0689   1 
  -1 -14   1 16.8225 11.9005   2 
   0 -14   1 5.66564 13.1241   1 
   0 -14   1 -11.736 9.87521   2 
   1 -14   1 -1.4947 12.8602   1 
   1 -14   1 8.78947 11.6541   2 
   2 -14   1 12.2621 11.6895   2 
   2 -14   1 -14.735 12.0236   1 
   3 -14   1 -2.6589 8.34291   2 
  -9 -13   1 -3.8304 7.95746   1 
  -8 -13   1 5.87700 13.1042   1 
  -7 -13   1 13.5713 13.0576   1 
  -6 -13   1 18.3035 13.0831   1 
  -5 -13   1 10.2883 13.4990   1 
  -1  -5  11 20.3275 19.0274  -2 
  -4 -13   1 20.3275 19.0274   1 
  -3 -13   1 -12.947 11.0398   1 
  -3 -13   1 16.3803 9.99726   2 
  -2 -13   1 4.80295 13.1898   1 
  -2 -13   1 -6.2146 10.0608   2 
  -1 -13   1 -1.5615 9.43959   2 
  -1 -13   1 5.80220 11.4048   1 
   0 -13   1 -7.5189 9.30818   2 
   0 -13   1 -7.3521 10.7955   1 
   1 -13   1 4.76442 12.5241   1 
   1 -13   1 -4.4138 10.6505   2 
   2 -13   1 6.48941 8.31700   2 
   2 -13   1 16.3621 12.7943   1 
   3 -13   1 -5.8415 7.74129   2 
   3 -13   1 7.68950 12.0063   1 
   4 -13   1 6.54547 9.04290   2 
   5 -13   1 -5.8984 8.29543   2 
 -10 -12   1 -4.1749 6.94550   1 
  -9 -12   1 1.44244 7.90954   1 
  -8 -12   1 18.2158 6.98728   1 
  -7 -12   1 -1.1778 6.13399   1 
  -6 -12   1 6.51417 7.44771   1 
  -5 -12   1 6.35836 12.0911   1 
  -4 -12   1 4.67851 11.8353   1 
  -4 -12   1 -1.3058 8.07702   2 
  -3 -12   1 37.8243 13.8657   1 
  -3 -12   1 21.1494 9.91810   2 
  -2 -12   1 4.08707 11.5135   1 
  -2 -12   1 -3.4260 8.59004   2 
  -1 -12   1 27.6612 12.9533   1 
   0 -12   1 24.5993 12.5548   1 
   0 -12   1 17.6595 10.1899   2 
   1 -12   1 16.8443 11.8171   1 
   1 -12   1 7.35722 7.83374   2 
   2 -12   1 4.76247 6.89408   2 
   2 -12   1 0.52851 11.0133   1 
   3 -12   1 11.3083 7.91935   2 
   3 -12   1 55.7596 13.8655   1 
   4 -12   1 5.20605 11.1367   1 
   4 -12   1 -9.3691 7.47428   2 
   5 -12   1 9.88836 8.82257   2 
   6 -12   1 14.1208 9.28768   2 
   7 -12   1 11.9736 10.1657   2 
 -11 -11   1 8.50852 10.0962   1 
 -10 -11   1 -13.269 8.44034   1 
  -9 -11   1 18.7146 8.98415   1 
  -8 -11   1 12.1584 8.50405   1 
  -7 -11   1 28.7452 6.60550   1 
  -6 -11   1 8.20984 6.22335   1 
  -5 -11   1 14.2225 5.69578   1 
  -4 -11   1 2.70809 6.25551   1 
  -4 -11   1 -10.198 7.79920   2 
  -3 -11   1 4.92449 8.94150   2 
  -3 -11   1 11.2128 11.0754   1 
  -2 -11   1 2.96671 11.1991   1 
  -2 -11   1 1.98880 5.64555   2 
  -1 -11   1 0.09130 7.72984   2 
  -1 -11   1 -9.9178 9.83734   1 
   0 -11   1 8.78432 6.26037   2 
   0 -11   1 4.38052 9.56494   1 
   1 -11   1 42.2592 12.4345   1 
   1 -11   1 27.9768 7.52725   2 
   2 -11   1 -6.7526 6.10057   2 
   2 -11   1 3.19810 10.1062   1 
   3 -11   1 5.01518 7.24446   2 
   3 -11   1 -1.9776 11.3751   1 
   4 -11   1 19.7671 8.10347   2 
   4 -11   1 6.63669 11.0780   1 
   5 -11   1 11.7061 8.27106   2 
   6 -11   1 3.37715 8.37668   2 
   7 -11   1 -2.7721 11.7298   2 
   8 -11   1 1.82715 13.5350   2 
 -11 -10   1 -3.6568 9.56182   1 
 -10 -10   1 12.9371 9.04882   1 
  -9 -10   1 0.15522 7.69984   1 
  -8 -10   1 4.63414 7.35857   1 
  -7 -10   1 19.4866 7.67275   1 
   2  -3  10 24.1263 14.6973  -2 
  -6 -10   1 24.1263 14.6973   1 
  -5 -10   1 11.3822 8.07674   2 
  -5 -10   1 28.4780 7.54139   1 
  -4 -10   1 1.43877 4.37253   1 
  -4 -10   1 1.87320 7.41316   2 
  -3 -10   1 25.4002 6.04336   1 
  -3 -10   1 13.0899 5.28833   2 
  -2  -4   8 18.4492 15.6387  -2 
  -2 -10   1 18.4492 15.6387   1 
  -2 -10   1 26.9625 6.05506   2 
  -1 -10   1 40.9764 10.9351   1 
  -1 -10   1 43.3705 6.88302   2 
   0 -10   1 31.0858 6.35782   2 
   0 -10   1 7.51637 9.73680   1 
   1 -10   1 15.1989 6.43011   2 
   1 -10   1 44.7453 10.8369   1 
   2 -10   1 -1.5691 6.18984   2 
   2 -10   1 24.8572 10.1546   1 
   3 -10   1 1.28603 6.38655   2 
   3 -10   1 -10.357 8.76760   1 
   4 -10   1 10.4689 10.1160   1 
   4 -10   1 0.13448 9.19008   2 
   5 -10   1 -1.2336 9.73859   1 
   5 -10   1 6.73187 7.34194   2 
   6 -10   1 10.6023 8.25205   2 
   7 -10   1 16.7909 12.0832   2 
   8 -10   1 4.30001 9.05455   2 
   9 -10   1 4.61768 9.23025   2 
 -12  -9   1 14.8308 9.08469   1 
 -11  -9   1 -3.6709 7.97517   1 
 -10  -9   1 20.0732 8.99452   1 
  -9  -9   1 11.1491 7.91727   1 
  -8  -9   1 -10.265 6.65013   1 
  -7  -9   1 25.3166 7.90288   1 
  -6  -9   1 16.6437 6.71028   1 
  -5  -9   1 7.78794 6.43844   2 
  -5  -9   1 4.96133 6.22745   1 
  -4  -9   1 58.8584 5.70888   2 
  -4  -9   1 155.417 15.1974   1 
  -3  -9   1 2.28124 4.57996   2 
  -3  -9   1 -4.6623 3.92851   1 
  -2  -9   1 66.9345 8.51715   2 
  -2  -9   1 132.081 8.11407   1 
  -1  -9   1 6.65702 5.15205   2 
  -1  -9   1 16.5586 4.80292   1 
   0  -9   1 8.49692 5.96421   2 
   0  -9   1 -8.3093 8.30825   1 
   1  -9   1 15.9614 8.87440   1 
   1  -9   1 22.9115 6.37991   2 
   2  -9   1 12.3370 6.14625   2 
   2  -9   1 32.8428 9.49978   1 
   3  -9   1 11.3570 6.40027   2 
   3  -9   1 16.6617 8.71088   1 
   4  -9   1 1.23537 6.46736   2 
   4  -9   1 32.8783 9.45513   1 
   5  -9   1 16.7669 7.41478   2 
   5  -9   1 6.09717 8.86010   1 
   6  -9   1 40.8617 9.50946   2 
   6  -9   1 53.7030 10.7861   1 
   7  -9   1 1.35921 7.57129   2 
   8  -9   1 -5.0526 8.49227   2 
   9  -9   1 12.6817 9.39800   2 
  10  -9   1 7.13999 9.46585   2 
 -12  -8   1 17.4222 9.45829   1 
 -11  -8   1 -5.2389 8.09336   1 
 -10  -8   1 33.8974 9.38256   1 
  -9  -8   1 3.85728 7.17104   1 
  -8  -8   1 48.2707 8.36921   1 
  -7  -8   1 8.24109 6.39390   1 
  -6  -8   1 10.0268 5.33656   2 
  -6  -8   1 36.7688 7.40674   1 
  -5  -8   1 94.2726 5.97190   2 
  -5  -8   1 179.650 10.0383   1 
  -4  -8   1 1.76389 3.79981   2 
  -4  -8   1 0.34573 5.54479   1 
  -3  -8   1 99.0231 6.04257   2 
  -3  -8   1 225.621 9.62635   1 
  -2  -8   1 0.44767 3.44941   1 
  -2  -8   1 -2.1981 5.73024   2 
  -1  -8   1 12.4056 4.87845   2 
  -1  -8   1 47.1655 4.59226   1 
   0  -8   1 22.2966 7.24018   2 
   0  -8   1 41.8645 3.96229   1 
   1  -8   1 9.19247 5.31991   2 
   1  -8   1 30.4452 8.17229   1 
   2  -8   1 21.0069 8.08217   1 
   2  -8   1 9.07665 5.33996   2 
   3  -8   1 78.8853 10.1917   1 
   3  -8   1 36.3912 6.96349   2 
  -7  -4   4 40.9745 13.5091  -2 
   4  -8   1 40.9745 13.5091   1 
   4  -8   1 -2.8023 5.66203   2 
   5  -8   1 171.330 13.0078   1 
   5  -8   1 77.9360 8.78435   2 
   6  -8   1 -9.1129 6.22174   2 
   7  -8   1 21.0853 7.95846   2 
   7  -8   1 29.4909 10.4043   1 
   8  -8   1 0.07400 7.32739   2 
   9  -8   1 -1.5418 8.33580   2 
  10  -8   1 8.59487 8.70553   2 
 -13  -7   1 11.4746 9.69018   1 
 -12  -7   1 5.84600 8.67621   1 
 -11  -7   1 4.88537 7.85552   1 
   7  -1  10 -5.4931 11.1499  -2 
 -10  -7   1 -5.4931 11.1499   1 
  -9  -7   1 34.6470 8.05807   1 
  -8  -7   1 -0.8699 6.33047   1 
  -7  -7   1 51.1562 7.86038   1 
  -6  -7   1 22.4382 6.19371   1 
  -6  -7   1 4.74772 3.68713   2 
  -5  -7   1 44.8224 6.63954   1 
  -5  -7   1 17.8191 5.75399   2 
  -4  -7   1 -1.3792 3.63791   2 
  -4  -7   1 7.19612 5.52530   1 
  -3  -7   1 1.43148 3.98760   2 
   0  -2   7 102.386 13.3643  -2 
  -3  -7   1 102.386 13.3643   1 
  -3  -7   1 4.14858 7.38884   1 
  -2  -7   1 21.4853 4.17647   2 
  -2  -7   1 46.8344 5.47463   1 
  -1  -7   1 71.7965 5.88396   2 
  -1  -7   1 153.068 4.97445   1 
   0  -7   1 8.66079 4.31840   2 
   0  -7   1 5.58394 2.98141   1 
   1  -7   1 89.7534 6.81540   2 
   1  -7   1 198.804 12.2864   1 
   2  -7   1 18.9799 5.23551   2 
   2  -7   1 35.7234 7.92435   1 
   3  -7   1 41.3463 6.38712   2 
   3  -7   1 83.9592 9.77614   1 
   4  -7   1 80.7242 9.95521   1 
   4  -7   1 24.0396 6.51733   2 
   5  -7   1 12.7449 8.47826   1 
   6  -7   1 31.2355 7.05484   2 
   6  -7   1 85.2094 11.1134   1 
   7  -7   1 6.79211 8.41904   1 
   7  -7   1 5.44113 6.65962   2 
   8  -7   1 -4.9620 9.11622   2 
   8  -7   1 26.4596 9.96644   1 
   9  -7   1 11.6790 11.0757   2 
  10  -7   1 -6.0433 8.05338   2 
  11  -7   1 9.15866 8.82219   2 
 -13  -6   1 7.79685 8.07927   1 
 -12  -6   1 -0.8886 7.73330   1 
 -11  -6   1 57.2771 9.44871   1 
 -10  -6   1 -5.5577 6.80224   1 
  -9  -6   1 -5.7387 5.90260   1 
  -8  -6   1 12.1412 6.41015   2 
  -8  -6   1 32.6319 7.23173   1 
  -7  -6   1 -2.6632 5.25575   1 
  -7  -6   1 3.20878 3.50274   2 
  -6  -6   1 9.53441 5.64060   1 
  -6  -6   1 5.48757 3.53028   2 
  -5  -6   1 112.737 7.81449   1 
  -5  -6   1 54.3935 4.40426   2 
  -4  -6   1 3.51911 3.45705   2 
  -4  -6   1 0.17074 4.65920   1 
  -3  -6   1 80.2002 6.25678   1 
  -3  -6   1 41.9964 4.13537   2 
  -2  -6   1 218.654 7.87010   1 
  -2  -6   1 111.793 5.75186   2 
  -1  -6   1 51.9705 4.73578   1 
  -1  -6   1 9.00498 6.73751   2 
   0  -6   1 749.444 10.1216   1 
   0  -6   1 335.678 9.13644   2 
   1  -6   1 7.69369 4.43187   2 
   1  -6   1 6.77157 6.39180   1 
   2  -6   1 128.434 7.30706   2 
   2  -6   1 245.168 11.6207   1 
   3  -6   1 65.7898 8.26179   1 
   3  -6   1 30.4002 5.54281   2 
   4  -6   1 5.01680 4.98628   2 
  -6  -3   3 9.46948 12.8318  -2 
   4  -6   1 9.46948 12.8318   1 
   5  -6   1 19.6986 6.11449   2 
   5  -6   1 51.0239 8.36009   1 
   6  -6   1 6.12374 6.09892   2 
   6  -6   1 29.8110 8.20681   1 
   7  -6   1 5.28471 7.05767   1 
   7  -6   1 3.74080 5.94821   2 
   8  -6   1 27.4519 9.21157   1 
   8  -6   1 6.26420 6.74947   2 
   9  -6   1 -9.3738 6.29765   2 
  10  -6   1 8.11649 7.95804   2 
  11  -6   1 5.08396 8.12853   2 
  12  -6   1 -3.2734 8.64310   2 
 -13  -5   1 0.83109 8.31993   1 
 -12  -5   1 50.7139 9.30749   1 
 -11  -5   1 8.32830 7.49321   1 
 -10  -5   1 13.0874 7.25093   1 
  -9  -5   1 1.37787 6.88945   2 
  -9  -5   1 5.56063 6.12044   1 
  -8  -5   1 0.33212 5.79063   1 
  -8  -5   1 1.22209 5.98722   2 
  -7  -5   1 10.9664 3.55444   2 
  -7  -5   1 43.3144 6.77316   1 
  -6  -5   1 172.772 8.98195   1 
  -6  -5   1 93.8370 4.91584   2 
  -5  -5   1 1.01052 4.72439   1 
  -5  -5   1 9.99008 3.16963   2 
   2  -1   6 884.647 15.9918  -2 
  -4  -5   1 884.647 15.9918   1 
  -4  -5   1 376.582 7.68614   2 
  -3  -5   1 0.12390 4.28312   1 
  -3  -5   1 1.76986 3.25490   2 
  -2  -5   1 84.7506 6.51517   2 
  -2  -5   1 175.157 7.15051   1 
  -1  -5   1 72.9848 5.13068   1 
  -1  -5   1 27.8559 4.10324   2 
   0  -5   1 27.1816 4.22696   2 
   0  -5   1 52.1466 2.77560   1 
   1  -5   1 144.487 6.90699   2 
   1  -5   1 263.421 11.2399   1 
   2  -5   1 25.4148 4.77784   2 
   2  -5   1 47.4961 6.80663   1 
   3  -5   1 -9.6122 5.38217   1 
   3  -5   1 3.84510 4.40262   2 
   4  -5   1 21.6762 5.35401   2 
   4  -5   1 52.8269 2.84301   1 
   5  -5   1 70.7670 4.82112   1 
   5  -5   1 22.4507 5.82558   2 
   6  -5   1 11.0047 4.03483   1 
   6  -5   1 -3.0242 5.31528   2 
   7  -5   1 35.9584 6.87013   2 
   7  -5   1 104.509 6.80118   1 
   8  -5   1 -4.7965 5.95053   2 
   8  -5   1 3.37718 7.23419   1 
   9  -5   1 37.9027 8.22318   2 
   9  -5   1 60.1314 9.83158   1 
  10  -5   1 -6.3253 7.27554   2 
  11  -5   1 32.4460 9.27993   2 
  12  -5   1 -3.8586 7.72211   2 
 -14  -4   1 10.5432 8.96140   1 
 -13  -4   1 28.3551 9.35495   1 
  10   1   9 48.1703 11.6263  -2 
 -12  -4   1 48.1703 11.6263   1 
 -11  -4   1 19.8190 7.67756   1 
 -10  -4   1 55.4959 8.35471   1 
 -10  -4   1 32.6221 9.30584   2 
  -9  -4   1 16.1262 7.06127   2 
  -9  -4   1 12.1691 5.95533   1 
  -8  -4   1 58.8643 5.05000   2 
  -8  -4   1 145.070 9.54494   1 
  -7  -4   1 65.4045 7.17797   1 
  -7  -4   1 33.7494 4.26315   2 
  -6  -4   1 111.436 7.64725   1 
  -6  -4   1 49.9288 3.94250   2 
  -5  -4   1 171.364 5.58722   2 
  -5  -4   1 341.200 10.3097   1 
  -4  -4   1 26.1754 5.03096   1 
  -4  -4   1 11.8076 3.16644   2 
  -3  -4   1 637.606 11.8407   1 
  -3  -4   1 310.123 6.56618   2 
  -2  -4   1 171.787 6.73444   1 
  -2  -4   1 105.956 4.93336   2 
  -1  -4   1 193.543 6.27710   2 
  -1  -4   1 383.792 8.03948   1 
   0  -4   1 5.21456 2.75676   1 
   0  -4   1 -3.2654 3.34424   2 
   1  -4   1 19.8092 4.09185   2 
   1  -4   1 31.0524 6.52040   1 
   2  -4   1 2.75649 5.27141   1 
   2  -4   1 1.24259 3.92358   2 
   3  -4   1 156.001 3.54538   1 
   3  -4   1 69.8209 5.81149   2 
   4  -4   1 13.4632 4.53614   2 
   4  -4   1 32.9240 3.83716   1 
   5  -4   1 154.070 8.40474   2 
   5  -4   1 343.928 8.55205   1 
   6  -4   1 172.566 7.25618   1 
   7  -4   1 150.950 7.57424   1 
   7  -4   1 70.3157 7.73937   2 
   8  -4   1 9.09094 6.06081   2 
   8  -4   1 26.1799 5.67725   1 
   9  -4   1 20.5047 7.44623   2 
   9  -4   1 77.0806 11.0709   1 
  10  -4   1 3.63227 7.96901   1 
  10  -4   1 17.0652 8.59531   2 
  11  -4   1 12.0009 7.74466   2 
  12  -4   1 22.5288 9.16379   2 
 -14  -3   1 10.9648 8.67072   1 
 -13  -3   1 9.77849 8.18677   1 
 -12  -3   1 8.37721 7.35480   1 
 -12  -3   1 16.6042 10.6448   2 
 -11  -3   1 42.5944 8.34508   1 
 -11  -3   1 40.3101 10.8125   2 
 -10  -3   1 2.09160 6.18686   1 
 -10  -3   1 12.9432 8.35623   2 
  -9  -3   1 192.738 10.6712   1 
  -9  -3   1 97.5917 6.55096   2 
  -8  -3   1 3.00410 3.67775   2 
  -8  -3   1 0.81320 5.24357   1 
  -7  -3   1 211.635 9.64638   1 
  -7  -3   1 100.474 5.78508   2 
  -6  -3   1 143.558 8.04888   1 
  -6  -3   1 69.5639 4.51247   2 
  -5  -3   1 145.442 5.22216   2 
  -5  -3   1 292.543 9.29859   1 
  -4  -3   1 20.5238 2.91776   2 
  -4  -3   1 42.9370 4.92304   1 
  -3  -3   1 16.9914 2.83578   2 
  -3  -3   1 21.9605 4.41427   1 
  -2  -3   1 269.611 7.46886   1 
  -2  -3   1 125.629 4.51760   2 
  -1  -3   1 51.0497 3.61439   2 
  -1  -3   1 110.896 5.22827   1 
   0  -3   1 115.522 5.13900   2 
   0  -3   1 271.563 5.45542   1 
   1  -3   1 240.297 6.97617   2 
   1  -3   1 498.664 12.1930   1 
   2  -3   1 90.1163 5.41902   2 
   2  -3   1 209.958 4.23445   1 
   3  -3   1 94.6945 4.26633   1 
   3  -3   1 51.0111 5.01365   2 
   4  -3   1 112.108 6.77895   2 
   4  -3   1 250.549 6.85212   1 
   5  -3   1 1.84080 3.55149   1 
   5  -3   1 17.0869 4.68305   2 
   6  -3   1 231.795 11.2968   1 
   7   2   0 359.084 14.0779  -2 
   6  -3   1 359.084 14.0779   1 
   7  -3   1 1.06727 4.82311   2 
   7  -3   1 -2.8856 5.97647   1 
   8   2   0 171.792 14.0907  -2 
   7  -3   1 171.792 14.0907   1 
   8  -3   1 133.004 7.97863   1 
   8  -3   1 57.7722 7.52592   2 
   9  -3   1 3.04305 6.17807   2 
   9  -3   1 0.03111 5.04830   1 
  10  -3   1 -8.0099 5.78089   1 
  10  -3   1 -0.8403 6.48647   2 
  11  -3   1 3.03767 7.73093   2 
  11  -3   1 -5.9146 8.88500   1 
  12  -3   1 18.7716 8.20163   2 
  13  -3   1 -7.5822 6.84256   2 
 -14  -2   1 10.2501 13.5072   1 
 -13  -2   1 21.2537 11.9994   2 
 -13  -2   1 15.7092 7.97634   1 
 -12  -2   1 15.9511 7.27357   1 
 -12  -2   1 9.92303 10.8493   2 
 -11  -2   1 14.6973 10.6964   2 
 -11  -2   1 31.2764 7.82026   1 
 -10  -2   1 25.1497 9.14702   2 
   9   2   7 55.7956 19.3404  -2 
 -10  -2   1 55.7956 19.3404   1 
 -10  -2   1 41.9302 9.48696   1 
  -9  -2   1 -0.0612 3.51721   2 
  -9  -2   1 8.04353 5.76923   1 
  -8  -2   1 55.6234 6.60714   1 
  -8  -2   1 22.3069 4.71573   2 
  -7  -2   1 90.6558 7.20427   1 
  -7  -2   1 42.5175 4.57069   2 
  -6  -2   1 26.6221 3.80167   2 
   5   1   5 298.021 10.1940  -2 
  -6  -2   1 298.021 10.1940   1 
  -5  -2   1 4.61623 4.36211   1 
  -5  -2   1 7.81789 3.01244   2 
  -4  -2   1 -4.5382 2.50053   2 
  -4  -2   1 4.21502 4.07157   1 
  -3  -2   1 100.718 5.47589   1 
  -3  -2   1 52.4713 2.96402   2 
  -2  -2   1 151.469 4.03547   2 
  -2  -2   1 273.212 9.21836   1 
   1   0   3 283.674 11.1591  -2 
  -2  -2   1 283.674 11.1591   1 
  -1  -2   1 16.0333 2.74018   2 
  -1  -2   1 33.4740 4.52326   1 
   0  -2   1 2041.71 15.5505   1 
   0  -2   1 936.484 9.95786   2 
   1  -2   1 691.711 5.92464   1 
   1  -2   1 321.736 6.83095   2 
   2  -2   1 22.7681 3.16073   2 
   2  -2   1 51.9395 2.44383   1 
   3  -2   1 301.821 6.66376   1 
   3  -2   1 130.508 5.07906   2 
   4  -2   1 57.8245 3.65882   1 
   4  -2   1 22.4712 3.54630   2 
   5  -2   1 9.47925 3.59969   2 
   5  -2   1 34.5429 3.76959   1 
   6  -2   1 17.9367 3.73364   1 
   6  -2   1 5.10660 3.76745   2 
   7  -2   1 20.7523 5.07097   1 
   7  -2   1 9.30149 4.38452   2 
   8  -2   1 97.1536 6.31218   1 
   8  -2   1 43.7486 6.86931   2 
   9  -2   1 -0.4971 4.33278   1 
   9  -2   1 -7.4219 5.36830   2 
  10  -2   1 32.0342 5.44675   1 
  10  -2   1 -5.6054 6.29626   2 
  11  -2   1 46.9699 6.53058   1 
  11  -2   1 8.93432 7.09116   2 
  12  -2   1 21.8504 6.91693   1 
  12  -2   1 -2.7236 5.97943   2 
  13  -2   1 15.4282 7.26577   2 
  13  -2   1 14.1101 11.0714   1 
 -14  -1   1 27.3137 14.6257   2 
 -14  -1   1 9.67336 13.6406   1 
 -13  -1   1 8.19495 7.30598   1 
 -13  -1   1 -4.4741 11.9957   2 
 -12  -1   1 28.7754 12.1898   2 
 -12  -1   1 40.4054 8.76664   1 
 -11  -1   1 15.0338 6.87331   1 
 -11  -1   1 3.67750 10.1167   2 
 -10  -1   1 41.0299 7.39882   1 
 -10  -1   1 23.1855 6.57829   2 
  -9  -1   1 1.57070 5.33675   1 
  -9  -1   1 7.87626 4.98056   2 
  -8  -1   1 33.3133 6.17883   1 
  -8  -1   1 12.2913 3.71472   2 
  -7  -1   1 8.04498 3.16701   2 
  -7  -1   1 11.8306 5.04893   1 
  -6  -1   1 87.0793 6.55331   1 
  -6  -1   1 34.2433 4.31621   2 
  -5  -1   1 -1.5328 4.07780   1 
  -5  -1   1 -6.7835 3.00370   2 
  -4  -1   1 405.778 7.02564   2 
  -4  -1   1 898.753 12.9655   1 
  -3  -1   1 362.587 5.87952   2 
  -3  -1   1 796.738 11.1177   1 
  -2  -1   1 1113.06 11.7598   1 
  -2  -1   1 551.927 6.06225   2 
  -1  -1   1 388.087 3.60727   2 
  -1  -1   1 801.503 8.53939   1 
   0  -1   1 157.725 2.89322   2 
   0  -1   1 344.448 4.65792   1 
   1  -1   1 1107.64 9.56767   1 
   1  -1   1 498.090 6.87998   2 
   2  -1   1 281.368 4.78077   1 
   2  -1   1 124.657 5.13920   2 
   3  -1   1 2.90772 3.72996   2 
   3  -1   1 14.1211 3.41486   1 
   4  -1   1 23.5104 4.37893   2 
   4  -1   1 40.9659 4.37083   1 
   5  -1   1 56.0584 5.28241   1 
   5  -1   1 27.4341 4.74825   2 
   6  -1   1 11.3700 3.78191   2 
   6  -1   1 9.72342 4.62581   1 
   7  -1   1 64.8161 6.14072   1 
   7  -1   1 25.6535 7.46159   2 
   8  -1   1 20.2926 4.60430   2 
   8  -1   1 44.1270 6.27159   1 
   9  -1   1 79.1167 6.53060   2 
   9  -1   1 174.733 9.76635   1 
  10  -1   1 0.50513 7.89034   1 
  10  -1   1 -3.1727 8.16124   2 
  11  -1   1 102.343 9.67393   1 
  11  -1   1 47.4503 10.7259   2 
  12  -1   1 -5.7508 5.31031   2 
  12  -1   1 14.4255 7.28337   1 
  13  -1   1 -4.2815 6.00944   2 
  13  -1   1 23.4658 11.6482   1 
 -14   0   1 24.0901 13.6889   1 
 -13   0   1 -10.850 9.98282   1 
 -13   0   1 22.4676 13.3067   2 
 -12   0   1 10.9102 6.65900   1 
 -12   0   1 -4.5450 11.2207   2 
 -11   0   1 3.97427 6.34343   1 
 -11   0   1 5.91277 10.0173   2 
 -10   0   1 12.2997 6.39177   1 
  -9   0   1 1.59833 7.63048   2 
  -9   0   1 3.78178 6.03275   1 
  -8   0   1 82.4823 7.16940   1 
  -8   0   1 42.8736 5.85520   2 
  -7   0   1 14.3620 4.87965   1 
  -7   0   1 1.53539 3.51031   2 
  -6   0   1 216.618 8.12285   1 
  -6   0   1 111.807 4.37344   2 
  -5   0   1 398.442 9.41973   1 
  -5   0   1 201.245 5.72503   2 
  -4   0   1 123.887 5.95283   1 
  -4   0   1 57.3634 3.06285   2 
  -3   0   1 146.377 3.90406   2 
  -3   0   1 347.533 7.30083   1 
  -2   0   1 796.638 9.01584   1 
  -2   0   1 354.764 5.35370   2 
  -1   0   1 1346.52 10.8306   1 
  -1   0   1 598.524 4.74258   2 
   0   0   1 14.7433 1.30510   2 
   0   0   1 29.2717 1.55114   1 
   1   0   1 227.186 3.99518   1 
   1   0   1 206.009 3.87531   2 
   2   0   1 27.1426 3.00943   2 
   2   0   1 62.0853 3.62623   1 
   3   0   1 111.715 5.12263   2 
   3   0   1 226.832 6.42238   1 
   4   0   1 -1.9699 4.95577   1 
   4   0   1 -23.007 9.10324  -2 
   4   0   1 -23.007 9.10324   1 
   4   0   1 1.49523 4.70439   2 
   5   0   1 57.8555 5.05927   2 
   5   0   1 149.201 6.89270   1 
   6   0   1 14.0524 4.67535   1 
   6   0   1 3.04949 4.15532   2 
   7   0   1 84.4620 6.70205   2 
   7   0   1 192.233 8.60484   1 
   8   1   3 241.150 11.9813  -2 
   8   0   1 241.150 11.9813   1 
   8   0   1 52.2556 6.34353   2 
   9   0   1 1.52100 4.04266   2 
   9   1   3 43.4939 9.42450  -2 
   9   0   1 43.4939 9.42450   1 
  10   0   1 26.4835 5.12016   2 
  10   0   1 66.6065 8.19646   1 
  11   0   1 -5.0355 5.04255   2 
  11   0   1 11.2346 7.12449   1 
  12   0   1 5.01780 5.69094   2 
  12   0   1 19.5469 7.26791   1 
  13   0   1 2.20470 7.23287   1 
  13   0   1 11.8698 7.19664   2 
  14   0   1 -13.563 11.4289   2 
  14   0   1 -5.8765 12.3273   1 
 -13   1   1 41.4540 14.8089   1 
 -13   1   1 8.66899 13.1906   2 
 -12   1   1 6.50968 11.4914   2 
 -12   1   1 6.18130 10.7533   1 
 -11   1   1 -2.2083 6.14745   1 
 -11   1   1 7.80345 6.73095   2 
 -10   1   1 -6.9292 4.34949   2 
 -10   1   1 -1.3828 7.29216   1 
  10   3   5 13.5087 16.0841  -2 
 -10   1   1 13.5087 16.0841   1 
  -9   1   1 83.5929 6.57584   2 
  -9   1   1 192.340 9.95192   1 
  -8   1   1 -6.9034 4.60375   1 
  -8   1   1 2.24622 4.04291   2 
  -7   1   1 252.349 7.70090   2 
  -7   1   1 535.345 12.2979   1 
  -6   1   1 13.9106 3.82784   2 
  -6   1   1 30.2848 4.92736   1 
  -5   1   1 68.8860 5.20601   2 
  -5   1   1 158.726 6.81629   1 
  -4   1   1 42.3918 4.34510   2 
  -4   1   1 111.755 5.55603   1 
  -3   1   1 1.81996 3.13131   2 
  -3   1   1 2.05285 3.03255   1 
  -2   1   1 212.667 4.59833   1 
  -1   1   1 173.351 2.17600   1 
  -1   1   1 74.5343 2.46844   2 
   0   1   1 470.594 3.73937   1 
   0   1   1 224.348 3.31245   2 
   1   1   1 795.290 7.07868   2 
   1   1   1 1757.94 13.2401   1 
   2   1   1 33.1442 2.66253   2 
   2   1   1 76.1979 3.89524   1 
   3   1   1 89.9625 4.34517   2 
   3   1   1 170.920 6.14604   1 
   4   1   1 231.062 10.0333   2 
   4   1   1 351.581 8.68871   1 
   5   1   1 25.1828 4.26791   2 
   5   1   1 57.0579 5.35841   1 
   6   1   1 397.778 10.5984   1 
   6   1   1 188.161 7.34903   2 
   7   1   1 81.7310 6.75071   1 
   7   1   1 47.4824 5.38366   2 
   8   1   1 33.3542 6.13210   1 
   8   1   1 13.9631 4.79812   2 
   9   1   1 2.95902 4.19244   2 
   9   1   1 22.0346 6.25677   1 
  10   1   1 3.15015 3.72933   2 
  10   1   1 1.59864 5.78938   1 
  11   1   1 -1.2475 5.83174   1 
  11   1   1 0.26357 4.13772   2 
  12   1   1 9.23252 7.23847   1 
  12   1   1 17.3668 6.99751   2 
  13   1   1 12.3333 11.0703   2 
  13   1   1 1.40521 7.22082   1 
  14   1   1 25.1755 11.9449   2 
  14   1   1 21.1079 8.66788   1 
 -13   2   1 21.3775 13.0733   1 
 -13   2   1 15.7671 12.7044   2 
 -12   2   1 2.44940 7.07871   2 
 -12   2   1 10.7386 11.8382   1 
 -11   2   1 -5.7095 5.48021   2 
 -11   2   1 5.04115 9.49470   1 
 -10   2   1 14.5800 5.64135   2 
 -10   2   1 39.7003 6.97102   1 
  -9   2   1 29.4826 5.56873   2 
  -9   2   1 69.1135 7.62957   1 
  -8   2   1 169.115 8.70027   1 
  -8   2   1 68.0920 5.95281   2 
  -7   2   1 0.71505 4.35140   1 
  -7   2   1 2.20591 4.27898   2 
  -6   2   1 210.543 8.52804   2 
  -6   2   1 516.350 11.3949   1 
  -5   2   1 7.14256 3.94384   2 
  -5   2   1 0.82733 3.55509   1 
  -4   2   1 61.1395 4.43764   1 
  -4   2   1 16.5992 4.03490   2 
  -3   2   1 20.4885 3.31073   1 
  -2   2   1 35.3073 3.78391   2 
  -2   2   1 75.4322 3.47065   1 
  -1   2   1 432.220 5.20257   1 
  -1   2   1 205.069 5.00497   2 
   0   2   1 194.345 3.97328   2 
   0   2   1 451.600 5.48656   1 
   1   2   1 678.938 7.80780   1 
   1   2   1 323.443 8.38999   2 
   2   2   1 589.924 6.31396   2 
   2   2   1 1270.78 13.1546   1 
   3   2   1 318.345 7.67457   1 
   3   2   1 129.350 4.41128   2 
   4   2   1 62.2970 5.32399   1 
   4   2   1 33.6139 3.57775   2 
   5   2   1 70.1551 5.79271   1 
   5   2   1 34.3092 4.07704   2 
   6   2   1 11.9554 4.92327   1 
   6   2   1 2.41513 3.53819   2 
   7   2   1 92.1326 5.04223   2 
   7   2   1 159.790 8.39971   1 
   8   2   1 6.09120 4.22792   2 
   8   2   1 10.4742 5.48021   1 
   9   2   1 3.42883 5.75289   1 
   9   2   1 -8.7144 3.68316   2 
  10   2   1 5.64270 4.31988   2 
  10   2   1 5.98519 6.31857   1 
  11   2   1 3.77295 4.54799   2 
  11   2   1 7.14769 6.37621   1 
  12   2   1 8.76137 8.67348   2 
  12   2   1 31.7457 8.38002   1 
  13   2   1 -9.6069 9.67544   2 
  13   2   1 19.3232 7.89410   1 
  14   2   1 14.9372 8.09373   1 
 -13   3   1 -13.592 12.7900   2 
 -13   3   1 2.69001 12.3590   1 
 -12   3   1 22.9168 7.02182   2 
 -12   3   1 47.3180 12.5844   1 
 -11   3   1 20.6022 6.50945   2 
 -11   3   1 16.1940 10.6942   1 
 -10   3   1 45.1371 6.65047   2 
 -10   3   1 114.194 11.3882   1 
  -9   3   1 10.5260 8.66686   2 
  -9   3   1 1.53056 4.36710   1 
  -8   3   1 41.1525 4.82777   1 
  -8   3   1 11.8182 5.71856   2 
  -7   3   1 1.35880 4.85321   2 
  -7   3   1 7.20388 3.49483   1 
  -6   3   1 29.2638 5.81168   2 
  -6   3   1 101.416 5.14197   1 
  -5   3   1 81.4534 6.29737   2 
  -5   3   1 188.457 5.34865   1 
   5   3   1 329.789 7.71173  -2 
  -4   3   1 329.789 7.71173   1 
  -4   3   1 152.039 6.99917   2 
  -3   3   1 6.08152 3.75712   2 
  -3   3   1 -0.5287 2.25877   1 
  -2   3   1 217.886 7.01302   2 
  -2   3   1 489.487 6.92004   1 
  -1   3   1 97.2084 4.66059   2 
  -1   3   1 225.090 4.72464   1 
   0   3   1 315.370 6.09084   2 
   0   3   1 679.922 8.01977   1 
   1   3   1 790.861 7.94608   2 
   1   3   1 1680.50 14.8185   1 
   2   3   1 356.227 6.29413   1 
   2   3   1 180.543 8.44977   2 
   3   3   1 6.59623 4.00083   1 
   3   3   1 2.83605 2.15383   2 
   4   3   1 3.40512 4.55304   2 
   4   3   1 6.83336 4.23958   1 
   5   3   1 38.2486 5.43138   1 
   6   3   1 17.9312 3.74558   2 
   6   3   1 33.8010 5.70089   1 
   7   3   1 48.6583 6.56945   1 
   7   3   1 25.2657 4.43079   2 
   8   3   1 7.49172 5.53197   1 
   8   3   1 14.2608 4.46404   2 
   9   3   1 25.8395 5.33318   2 
   9   3   1 103.899 8.83895   1 
  10   3   1 19.7333 5.52657   2 
  10   3   1 51.4313 7.80204   1 
  11   3   1 65.3386 9.03656   1 
  11   3   1 32.7144 6.50836   2 
  12   3   1 -5.6045 6.62438   1 
  12   3   1 -3.4806 7.63471   2 
  13   3   1 30.8327 8.78383   1 
  14   3   1 6.40662 7.97388   1 
 -13   4   1 -4.9367 12.3245   2 
 -12   4   1 14.1621 14.0144   2 
 -11   4   1 10.8777 6.68795   2 
 -11   4   1 56.1448 12.8811   1 
 -10   4   1 3.38868 5.61663   2 
 -10   4   1 -4.6937 8.53630   1 
  -9   4   1 34.3222 9.88351   1 
  -9   4   1 6.88297 6.58090   2 
  -8   4   1 33.3868 5.93470   1 
  -8   4   1 4.01770 5.85653   2 
  -7   4   1 8.91214 7.76279   2 
  -7   4   1 1.84657 4.66510   1 
  -6   4   1 9.17558 5.03910   2 
  -6   4   1 13.8852 4.33941   1 
  -5   4   1 185.512 8.51751   2 
  -5   4   1 413.384 8.93570   1 
  -4   4   1 233.106 6.44648   1 
  -4   4   1 113.239 6.83160   2 
  -3   4   1 167.861 7.27922   2 
  -3   4   1 354.405 6.83345   1 
  -2   4   1 74.5887 5.32806   2 
  -2   4   1 182.643 5.11614   1 
  -1   4   1 228.514 6.91191   2 
  -1   4   1 516.191 7.22752   1 
   0   4   1 193.287 5.39244   1 
   0   4   1 86.0739 4.71168   2 
   1   4   1 87.0732 4.74534   1 
   1   4   1 40.8183 3.11287   2 
   2   4   1 128.129 4.69462   1 
   2   4   1 65.3160 3.00048   2 
   3   4   1 54.7719 4.94580   1 
   3   4   1 31.4579 2.38081   2 
   4   4   1 35.1120 3.00203   2 
   4   4   1 73.6440 5.74037   1 
   5   4   1 93.4812 4.59537   2 
   5   4   1 185.243 8.23169   1 
   6   4   1 5.77568 3.34432   2 
   6   4   1 17.0219 5.21382   1 
   7   4   1 37.4037 4.34439   2 
   7   4   1 78.7645 7.36986   1 
   8   4   1 51.2646 5.28938   2 
   8   4   1 105.747 8.50624   1 
   9   4   1 19.9204 6.30956   1 
   9   4   1 0.12849 4.47348   2 
  10   4   1 80.6646 9.17922   1 
  10   4   1 30.7027 6.01350   2 
  11   4   1 13.0841 7.22669   1 
  12   4   1 73.9694 10.3984   1 
  13   4   1 7.89495 8.04938   1 
  14   4   1 13.1532 8.83020   1 
 -12   5   1 6.85303 7.70457   2 
 -11   5   1 1.79249 6.72497   2 
 -10   5   1 9.68438 7.39674   2 
  -9   5   1 28.7085 7.67813   2 
  -9   5   1 69.1862 11.5606   1 
  -8   5   1 -1.9235 4.67296   1 
  -8   5   1 -3.0318 6.00017   2 
  -7   5   1 87.9654 8.21126   2 
  -7   5   1 201.651 8.36166   1 
  -6   5   1 44.4500 5.00726   1 
  -6   5   1 22.0573 5.92447   2 
  -5   5   1 78.3170 7.22516   2 
  -5   5   1 186.339 6.87279   1 
  -4   5   1 110.898 5.17309   1 
  -3   5   1 157.314 7.40854   2 
  -3   5   1 383.474 7.35570   1 
  -2   5   1 592.981 8.40218   1 
  -1   5   1 97.0566 5.93171   2 
  -1   5   1 218.868 5.47920   1 
   0   5   1 35.1716 3.81829   1 
   0   5   1 20.7521 3.76711   2 
   1   5   1 49.4727 4.56925   1 
   1   5   1 13.5628 3.26981   2 
   2   5   1 8.63203 2.74043   2 
   2   5   1 28.6944 3.47700   1 
   3   5   1 0.82767 2.12390   2 
   3   5   1 -5.7444 3.75422   1 
   4   5   1 82.3718 3.68202   2 
   4   5   1 176.632 7.79016   1 
   5   5   1 8.07593 4.79705   1 
   5   5   1 -3.3946 2.50774   2 
   6   5   1 220.701 6.38140   2 
   4  -2   5 558.327 14.1341  -2 
   6   5   1 558.327 14.1341   1 
   7   5   1 -2.8485 3.23104   2 
   7   5   1 -9.3775 4.72620   1 
   8   5   1 238.261 11.3239   1 
   8   5   1 112.382 6.16229   2 
   9   5   1 17.3153 4.49579   2 
   9   5   1 37.0068 7.26412   1 
   8  -1   7 -8.1001 10.2395  -2 
  10   5   1 -8.1001 10.2395   1 
  10   5   1 0.57631 7.19642   2 
   9  -1   7 53.4998 18.2147  -2 
  11   5   1 53.4998 18.2147   1 
  11   5   1 -11.126 9.01461   1 
  12   5   1 9.11277 7.51915   1 
  13   5   1 3.85279 8.75126   1 
  14   5   1 15.1659 9.04035   1 
 -12   6   1 0.08575 7.56500   2 
 -11   6   1 11.1564 7.17973   2 
 -10   6   1 9.64539 8.35215   2 
  -9   6   1 2.46154 7.42383   2 
  -8   6   1 16.2373 6.96794   2 
  -7   6   1 3.98339 6.47417   2 
  -7   6   1 35.7426 5.23320   1 
  -6   6   1 84.3106 8.24449   2 
   8   5   0 174.704 8.43276  -2 
  -6   6   1 174.704 8.43276   1 
  -5   6   1 -1.3012 3.55859   1 
  -5   6   1 -0.2685 5.00179   2 
  -4   6   1 48.6483 6.29714   2 
  -4   6   1 115.875 5.18140   1 
  -3   6   1 16.7623 3.26730   1 
  -3   6   1 4.37085 4.59523   2 
  -2   6   1 6.65818 4.47047   2 
  -4  -4   2 132.245 5.92159  -2 
  -2   6   1 132.245 5.92159   1 
  -1   6   1 91.5436 5.93185   2 
  -1   6   1 179.744 5.40938   1 
   0   6   1 52.9598 5.01685   2 
   0   6   1 136.134 5.72082   1 
   1   6   1 13.1843 3.91688   1 
   1   6   1 -0.1361 2.98264   2 
   2   6   1 292.269 6.56836   2 
   2   6   1 632.168 11.5049   1 
   3   6   1 -1.3543 3.83465   1 
   3   6   1 -1.6352 2.46831   2 
   4   6   1 70.6772 6.26893   1 
   4   6   1 33.0083 3.05072   2 
   5   6   1 96.1895 7.13516   1 
   5   6   1 49.9130 3.47949   2 
   6   6   1 22.9756 5.96545   1 
   7   6   1 148.743 9.40414   1 
   7   6   1 63.5874 4.66185   2 
   8   6   1 6.51692 6.14747   1 
   8   6   1 15.8960 6.78214   2 
   9   6   1 9.16158 6.50175   1 
   9   6   1 -0.8746 6.30518   2 
  10   6   1 0.49429 6.79388   1 
  11   6   1 1.11972 6.87808   1 
  12   6   1 3.75640 8.01355   1 
  13   6   1 29.2137 9.89686   1 
  14   6   1 4.88697 7.71074   1 
 -11   7   1 7.29147 8.44479   2 
 -10   7   1 3.96314 8.78694   2 
  -9   7   1 5.42276 7.46559   2 
  -8   7   1 14.1164 7.45509   2 
  -7   7   1 0.92052 6.21234   2 
  -6   7   1 7.19317 6.18876   2 
  -6   7   1 17.8554 7.07798   1 
  -5   7   1 122.064 6.05344   1 
  -5   7   1 35.6657 6.92033   2 
  -4   7   1 39.7214 6.43844   2 
  -4   7   1 103.003 5.16554   1 
  -3   7   1 -2.5849 2.72171   1 
  -3   7   1 -3.6280 4.30987   2 
  -2   7   1 97.4679 6.65942   2 
  -2   7   1 226.185 5.85571   1 
  -1   7   1 66.8158 5.85231   2 
  -1   7   1 131.947 5.35557   1 
   0   7   1 42.0584 5.05207   2 
   0   7   1 97.4140 5.29408   1 
   1   7   1 257.544 7.53886   2 
   1   7   1 553.813 10.7713   1 
   2   7   1 12.8129 4.27708   1 
   2   7   1 5.42439 3.26648   2 
   3   7   1 327.967 7.93918   1 
   4   7   1 41.7058 3.30360   2 
   4   7   1 62.8949 5.17133   1 
   5   7   1 -4.3445 2.74066   2 
   5   7   1 -3.7109 4.63480   1 
   6   7   1 8.59237 3.06601   2 
   6   7   1 8.54618 5.66804   1 
   7   7   1 10.1314 5.92259   1 
   7   7   1 9.20820 6.29441   2 
   8   7   1 -9.0673 5.70962   1 
   8   7   1 -6.9220 5.28687   2 
   9   7   1 33.3421 7.66167   1 
  10   7   1 -1.9667 6.84140   1 
  11   7   1 12.7762 8.39664   1 
  12   7   1 13.7967 8.65517   1 
  13   7   1 11.7527 8.84333   1 
 -11   8   1 5.21966 7.58940   2 
 -10   8   1 0.68564 7.87146   2 
  -9   8   1 -1.4608 8.05030   2 
  -8   8   1 1.18742 7.20296   2 
  -7   8   1 3.67838 6.96007   2 
  -6   8   1 -4.0103 6.18978   2 
  -5   8   1 69.4654 8.70720   1 
  -5   8   1 31.7954 7.06825   2 
  -4   8   1 11.2448 5.82654   2 
  -4   8   1 34.9112 7.50941   1 
  -3   8   1 370.839 13.7701   1 
  -3   8   1 154.927 11.5218   2 
  -2   8   1 6.38580 5.17722   2 
  -2   8   1 1.91238 2.55617   1 
  -1   8   1 352.932 7.40545   1 
  -1   8   1 173.331 13.6561   2 
   0   8   1 142.103 6.23581   1 
   0   8   1 61.4441 6.07854   2 
   1   8   1 46.0671 5.11267   1 
   1   8   1 17.0194 4.51286   2 
   2   8   1 56.6982 4.85337   2 
   2   8   1 108.466 6.83478   1 
   3   8   1 2.34002 3.22214   2 
   3   8   1 9.97700 4.74079   1 
   4   8   1 35.0887 3.62482   2 
   4   8   1 42.7378 9.12649   1 
   1  -4   6 46.9267 11.8298  -2 
   4   8   1 46.9267 11.8298   1 
   5   8   1 10.8957 4.41505   1 
   5   8   1 0.33094 6.59026   2 
   6   8   1 0.56223 5.07271   1 
   7   8   1 73.3232 8.47886   1 
   7   8   1 31.9757 7.67990   2 
   8   8   1 -4.7162 6.18632   2 
   8   8   1 3.87197 6.61727   1 
   6  -3   8 20.2341 15.6038  -2 
   9   8   1 20.2341 15.6038   1 
  10   8   1 84.8021 10.4095   1 
  11   8   1 3.56289 7.96344   1 
  12   8   1 21.3008 9.45410   1 
  13   8   1 -3.3235 7.31891   1 
 -10   9   1 16.4267 9.39556   2 
  -9   9   1 -15.690 7.50192   2 
  -8   9   1 -3.8443 7.35269   2 
  -7   9   1 25.8386 7.66642   2 
  -6   9   1 -2.6441 6.30113   2 
  -5   9   1 0.76979 6.53845   2 
  -5   9   1 0.78555 7.58167   1 
  -7  -6   3 119.556 15.0770  -2 
  -4   9   1 119.556 15.0770   1 
  -3   9   1 6.59506 5.26125   2 
  -3   9   1 5.87514 7.51595   1 
  -2   9   1 56.9492 6.93923   2 
  -2   9   1 124.767 10.9839   1 
  -1   9   1 4.08181 4.88418   2 
  -1   9   1 -1.7370 7.23443   1 
   0   9   1 39.5348 5.61217   2 
   0   9   1 103.216 5.64120   1 
   1   9   1 3.79409 4.26534   1 
   1   9   1 3.59718 4.42502   2 
   2   9   1 13.8352 4.81580   1 
   2   9   1 5.26665 4.11175   2 
   3   9   1 82.9368 7.27470   1 
   3   9   1 -7.2964 3.50962   2 
   4   9   1 102.135 7.86482   1 
   4   9   1 47.7857 9.09790   2 
   5   9   1 -5.8022 4.67419   1 
   5   9   1 5.32410 7.24480   2 
   6   9   1 153.569 8.01321   1 
   6   9   1 71.0444 9.54888   2 
   7   9   1 -3.1693 6.43348   2 
   7   9   1 5.35118 5.22190   1 
   8   9   1 29.9081 6.55254   1 
   9   9   1 13.5606 6.40146   1 
  10   9   1 -5.4169 5.94961   1 
  11   9   1 15.8332 7.30945   1 
  12   9   1 26.8080 7.90549   1 
  13   9   1 7.77772 7.75115   1 
  -9  10   1 4.14817 8.92014   2 
  -8  10   1 3.63513 8.20492   2 
  -7  10   1 -3.7763 7.88389   2 
  -6  10   1 47.8318 9.17326   2 
  -5  10   1 2.27112 7.20772   2 
  -4  10   1 31.7859 7.46140   2 
  -4  10   1 64.6641 10.4820   1 
  -3  10   1 -10.209 5.67178   2 
  -3  10   1 -7.1435 7.79211   1 
  -2  10   1 7.22696 5.76153   2 
  -2  10   1 25.3525 8.88534   1 
  -1  10   1 0.44317 5.47642   2 
  -1  10   1 14.6904 8.80754   1 
   0  10   1 30.0128 9.44533   1 
   0  10   1 2.73122 5.33345   2 
   1  10   1 7.91516 5.14041   1 
   1  10   1 4.52044 5.03751   2 
   2  10   1 -2.9786 4.45470   2 
   2  10   1 0.06575 5.03288   1 
   3  10   1 10.6737 5.40638   1 
   3  10   1 22.9989 8.68339   2 
   4  10   1 27.0818 8.24180   1 
   0  -5   7 8.59592 15.3382  -2 
   4  10   1 8.59592 15.3382   1 
   5  10   1 22.1972 8.99743   2 
   5  10   1 46.2023 7.46987   1 
   6  10   1 16.2173 5.41740   1 
   7  10   1 46.6513 6.96791   1 
   7  10   1 21.4939 7.73537   2 
   8  10   1 7.36932 9.91059   1 
   4  -4   9 18.6998 14.8172  -2 
   8  10   1 18.6998 14.8172   1 
   9  10   1 1.13635 6.14504   1 
  10  10   1 19.8873 6.84726   1 
  11  10   1 1.66023 6.88015   1 
  12  10   1 14.1084 7.84967   1 
  -8  11   1 -1.4647 8.36186   2 
  -7  11   1 7.76281 8.80243   2 
  -6  11   1 -0.8500 8.11438   2 
  -5  11   1 -7.8842 7.13212   2 
  -4  11   1 10.8372 7.56492   2 
  -3  11   1 4.06496 6.88604   2 
  -3  11   1 4.09701 10.3256   1 
  -2  11   1 -15.021 7.80252   1 
  -2  11   1 -1.4171 6.05547   2 
  -1  11   1 -0.3206 5.45939   2 
  -1  11   1 4.69110 8.97638   1 
   0  11   1 -8.6325 4.99102   2 
   0  11   1 -7.2230 8.50422   1 
   1  11   1 8.93759 5.66973   2 
   1  11   1 6.45013 9.55216   1 
   2  11   1 13.1042 10.5082   1 
   2  11   1 -3.6684 7.93221   2 
   3  11   1 -1.1839 7.85263   2 
   3  11   1 -9.0021 5.06300   1 
   4  11   1 6.40814 8.76805   2 
   4  11   1 39.4432 7.15991   1 
   5  11   1 -0.3953 5.93168   1 
   5  11   1 0.94621 9.61394   2 
   6  11   1 -0.3230 6.14603   1 
   6  11   1 4.62524 8.22679   2 
   7  11   1 -3.6484 5.64336   1 
   8  11   1 4.82271 6.18736   1 
   9  11   1 21.0707 6.98663   1 
  10  11   1 0.67878 7.05196   1 
  11  11   1 9.88991 7.64831   1 
  12  11   1 1.94453 11.9939   1 
  -7  12   1 0.68988 9.14610   2 
  -6  12   1 2.52186 8.52254   2 
  -5  12   1 -11.209 7.24504   2 
  -4  12   1 2.80181 7.21452   2 
  -2  12   1 21.5802 11.2759   1 
  -2  12   1 -3.6891 6.75295   2 
  -1  12   1 33.0527 7.49923   2 
  -1  12   1 37.2180 11.7398   1 
   0  12   1 3.10815 6.56241   2 
   0  12   1 4.06138 10.2545   1 
   1  12   1 19.4191 10.8092   2 
   1  12   1 -10.220 12.5626   1 
   2  12   1 16.6566 9.69209   2 
   2  12   1 3.83220 10.8538   1 
   3  12   1 9.80142 10.9134   1 
   3  12   1 -12.585 7.59220   2 
   4  12   1 16.1116 6.63397   1 
   4  12   1 21.2776 9.85391   2 
   5  12   1 27.8997 7.36926   1 
   5  12   1 -4.7008 8.66976   2 
   6  12   1 31.3422 8.13603   1 
   6  12   1 5.99078 8.51761   2 
   7  12   1 27.7135 8.17155   1 
   8  12   1 -0.4276 7.59530   1 
   9  12   1 -2.3899 7.59472   1 
  10  12   1 1.75693 6.90076   1 
  11  12   1 -5.9876 7.49197   1 
  -6  13   1 -3.2758 8.91505   2 
  -5  13   1 -2.5416 8.90073   2 
  -4  13   1 -0.9838 7.94130   2 
  -3  13   1 -6.2126 7.70037   2 
  -2  13   1 16.0448 8.21811   2 
  -1  13   1 11.7045 12.4044   1 
  -1  13   1 8.57152 6.87325   2 
   0  13   1 67.7224 14.5898   1 
   0  13   1 25.4944 11.7899   2 
   1  13   1 8.15271 12.0034   1 
   1  13   1 19.1400 11.0632   2 
   2  13   1 -18.802 7.36028   2 
   2  13   1 7.39876 12.3059   1 
   3  13   1 -8.7222 8.49259   2 
   3  13   1 -8.5774 10.3388   1 
   4  13   1 10.5348 9.64929   2 
   4  13   1 -0.5699 11.2735   1 
   5  13   1 0.29248 8.80891   2 
   5  13   1 12.8650 11.9643   1 
   1  -6  10 43.8886 16.8342  -2 
   6  13   1 43.8886 16.8342   1 
   7  13   1 0.19375 7.69622   1 
   8  13   1 18.4440 8.96672   1 
   9  13   1 5.06416 8.34030   1 
   5  -5  12 21.7052 14.6146  -2 
  10  13   1 21.7052 14.6146   1 
  -5  14   1 -9.8529 11.2252   2 
  -4  14   1 -13.767 7.89886   2 
  -3  14   1 -5.4636 8.15281   2 
  -2  14   1 3.67016 7.84998   2 
  -1  14   1 -8.3891 9.99307   2 
  -1  14   1 3.67240 12.1105   1 
   0  14   1 15.4496 12.5934   1 
   0  14   1 24.3360 12.3459   2 
   1  14   1 30.7566 12.1706   2 
   1  14   1 13.4168 12.6351   1 
   2  14   1 11.5173 10.3156   2 
   2  14   1 38.1603 13.5636   1 
   3  14   1 2.08619 11.6965   1 
   3  14   1 10.0377 9.90772   2 
   4  14   1 -1.6470 9.37152   2 
   4  14   1 4.90199 11.4468   1 
   5  14   1 14.9189 12.7495   1 
   6  14   1 -12.044 12.1500   1 
   7  14   1 12.8612 13.6562   1 
   8  14   1 4.66352 14.4337   1 
   9  14   1 17.6878 9.87452   1 
  -3  15   1 1.00781 12.3696   2 
  -2  15   1 22.2201 13.3376   2 
  -1  15   1 -10.015 10.7415   2 
   0  15   1 23.6924 13.0154   2 
   0  15   1 -18.489 13.0820   1 
   1  15   1 11.1451 13.6526   1 
   1  15   1 -7.1911 10.8241   2 
   2  15   1 -5.0908 11.4898   1 
   2  15   1 6.05138 10.3759   2 
   3  15   1 11.1827 10.8354   2 
   3  15   1 9.63777 13.7990   1 
   4  15   1 8.64823 14.0617   1 
   4  15   1 -4.3877 10.3852   2 
   5  15   1 -0.7021 13.7572   1 
   6  15   1 0.62556 12.3661   1 
   7  15   1 1.25000 13.9447   1 
   1  16   1 -6.9065 11.6002   2 
   1  16   1 14.9083 14.5313   1 
   2  16   1 2.50296 12.3110   2 
   2  16   1 -3.5781 13.0159   1 
   3  16   1 22.9282 13.8044   1 
  -6 -14   2 -0.8438 14.2444   1 
  -5 -14   2 4.67929 14.2475   1 
  -4 -14   2 -12.309 12.6720   1 
  -3 -14   2 -0.4233 13.0739   1 
  -2 -14   2 27.0086 15.4244   1 
  -1 -14   2 -3.7207 14.1719   1 
  -1 -14   2 -6.9236 10.6899   2 
   0 -14   2 -13.819 12.4542   1 
   0 -14   2 -11.828 10.1445   2 
   1 -14   2 4.36350 13.0000   1 
   1 -14   2 6.22641 12.5514   2 
   2 -14   2 0.19680 12.4677   2 
   2 -14   2 9.98021 14.1817   1 
  -8 -13   2 15.5862 14.5430   1 
  -7 -13   2 17.5748 13.6461   1 
  -6 -13   2 6.10651 12.5583   1 
  -5 -13   2 35.1619 15.3093   1 
  -4 -13   2 -12.692 13.4319   1 
  -3 -13   2 3.89856 12.9141   1 
  -2 -13   2 6.15993 13.0296   1 
  -2 -13   2 3.75362 10.5170   2 
  -1 -13   2 7.90210 10.3244   2 
  -1 -13   2 10.4564 13.5044   1 
   0 -13   2 29.2311 13.8200   1 
   0 -13   2 -1.8172 10.4287   2 
   1 -13   2 13.7420 8.13309   2 
   1 -13   2 70.5074 15.2362   1 
   2 -13   2 -9.2219 11.6433   1 
   2 -13   2 8.54476 8.54575   2 
   3 -13   2 -3.1657 8.40647   2 
   3 -13   2 12.2580 12.7274   1 
   4 -13   2 1.99190 8.38315   2 
  -9 -12   2 -7.2904 8.72209   1 
  -8 -12   2 11.4425 7.05121   1 
  -7 -12   2 -2.8210 10.8691   1 
  -6 -12   2 -2.6448 11.1639   1 
  -5 -12   2 34.6681 13.6375   1 
  -4 -12   2 11.9563 11.9850   1 
  -3 -12   2 24.7736 10.1214   2 
  -3 -12   2 18.5037 12.5745   1 
  -2 -12   2 1.00854 9.25526   2 
  -2 -12   2 5.29060 11.3716   1 
  -1 -12   2 0.96803 11.1682   1 
  -1 -12   2 -4.4153 8.88346   2 
   0 -12   2 18.6499 12.4804   1 
   0 -12   2 3.81694 6.95814   2 
   1 -12   2 9.87010 11.2464   1 
   1 -12   2 8.21167 7.68365   2 
   2 -12   2 22.7221 12.9092   1 
   2 -12   2 13.9970 8.02360   2 
   3 -12   2 -10.207 11.6147   1 
   3 -12   2 13.1582 8.60262   2 
   4 -12   2 34.7328 14.1554   2 
   4 -12   2 23.4834 12.6294   1 
   5 -12   2 9.78959 8.90264   2 
   6 -12   2 9.21732 9.47226   2 
 -10 -11   2 2.80747 8.76221   1 
  -9 -11   2 -2.3238 8.71942   1 
  -8 -11   2 -3.5831 9.02168   1 
  -7 -11   2 -0.6910 11.2212   1 
  -6 -11   2 9.43548 8.03657   1 
  -5 -11   2 6.41678 6.55431   1 
  -4 -11   2 66.7137 14.2686   1 
  -3 -11   2 27.0593 13.5109   1 
  -3 -11   2 28.3602 9.41908   2 
  -2 -11   2 93.0828 14.6300   1 
  -2 -11   2 44.0552 11.4410   2 
  -1 -11   2 2.34013 5.91451   2 
  -1 -11   2 23.2131 11.4366   1 
   0 -11   2 1.61254 10.9386   1 
   0 -11   2 -0.5354 6.35648   2 
   1 -11   2 32.6559 12.0905   1 
   1 -11   2 3.18752 6.76378   2 
   2 -11   2 14.5750 7.56630   2 
   2 -11   2 55.2999 13.0447   1 
   3 -11   2 8.92008 7.82325   2 
   3 -11   2 0.95433 11.2114   1 
   4 -11   2 15.0880 8.07264   2 
   4 -11   2 3.52215 10.7170   1 
   5 -11   2 10.8221 8.89526   2 
   5 -11   2 10.9718 11.2985   1 
   6 -11   2 8.60968 8.65262   2 
   7 -11   2 1.69943 8.79388   2 
 -11 -10   2 14.3423 9.69437   1 
 -10 -10   2 -2.2669 8.86564   1 
  -9 -10   2 6.69216 9.21852   1 
  -8 -10   2 15.9443 8.22536   1 
  -7 -10   2 0.24731 7.68626   1 
  -6 -10   2 24.0218 7.99689   1 
  -5 -10   2 16.2693 7.20117   1 
  -4 -10   2 -8.9203 6.84182   2 
   0  -3  10 -13.061 15.5660  -2 
  -4 -10   2 -13.061 15.5660   1 
  -3 -10   2 108.879 14.4419   1 
  -2 -10   2 2.76235 9.95713   1 
  -2 -10   2 13.5862 5.58566   2 
  -1 -10   2 4.61123 9.48913   1 
  -1 -10   2 -0.5150 5.83716   2 
   0 -10   2 4.41777 8.99819   1 
   0 -10   2 -5.3767 5.64892   2 
   1 -10   2 8.59186 6.57725   2 
   1 -10   2 -1.7410 8.71194   1 
   2 -10   2 1.61386 7.26451   2 
   2 -10   2 -10.545 11.8621   1 
  -7  -4   7 27.5447 16.4131  -2 
   3 -10   2 27.5447 16.4131   1 
   3 -10   2 11.2523 6.99344   2 
   4 -10   2 -1.8444 6.94272   2 
   4 -10   2 8.32089 9.97411   1 
   5 -10   2 26.0270 11.0756   1 
   5 -10   2 9.79506 7.88710   2 
   6 -10   2 -2.5950 7.89974   2 
   6 -10   2 27.1698 11.5028   1 
   7 -10   2 14.1328 8.93149   2 
   8 -10   2 -7.2269 7.88056   2 
 -12  -9   2 2.16339 11.3623   1 
   8  -1  13 -15.016 23.3986  -2 
 -12  -9   2 -15.016 23.3986   1 
 -11  -9   2 0.24368 8.51503   1 
 -10  -9   2 -9.9478 7.70961   1 
  -9  -9   2 22.1770 10.7128   1 
   5  -1  12 29.9417 21.8573  -2 
  -9  -9   2 29.9417 21.8573   1 
  -8  -9   2 10.1425 8.02583   1 
  -7  -9   2 14.5814 7.40124   1 
  -6  -9   2 14.5222 7.33420   1 
   1  -2  10 125.797 17.8229  -2 
  -5  -9   2 125.797 17.8229   1 
  -5  -9   2 38.6831 11.2720   1 
  -4  -9   2 3.00059 6.17331   1 
  -4  -9   2 3.50454 6.47663   2 
  -3  -9   2 -5.7396 4.84030   2 
  -3  -9   2 -0.8059 5.67682   1 
  -2  -9   2 9.11587 3.93760   1 
  -2  -9   2 -1.5572 5.19275   2 
  -1  -9   2 45.6433 6.97644   2 
  -1  -9   2 85.3975 12.2367   1 
   0  -9   2 0.59547 5.59304   2 
   0  -9   2 2.81272 8.45326   1 
   1  -9   2 80.4715 11.7294   1 
   1  -9   2 29.1745 6.75284   2 
   2  -9   2 18.5464 6.34360   2 
   2  -9   2 24.9255 9.62645   1 
   3  -9   2 24.0192 9.67216   1 
   3  -9   2 5.51403 6.12318   2 
   4  -9   2 4.26055 9.11918   1 
   4  -9   2 -0.2719 6.45522   2 
   5  -9   2 11.2924 9.64932   1 
   6  -9   2 31.9348 8.35732   2 
   6  -9   2 64.1722 13.4079   1 
   7  -9   2 5.21579 7.83947   2 
   7  -9   2 -12.086 9.72738   1 
   8  -9   2 7.89431 8.42876   2 
   9  -9   2 10.6381 9.27410   2 
 -12  -8   2 -10.422 7.90304   1 
 -11  -8   2 23.7733 9.44631   1 
 -10  -8   2 2.57874 7.86707   1 
  -9  -8   2 6.30003 7.58666   1 
  -8  -8   2 4.65808 7.60479   1 
  -7  -8   2 66.4884 8.97199   1 
  -6  -8   2 -8.6203 5.80511   1 
  -5  -8   2 4.31544 6.20948   1 
  -5  -8   2 -0.7748 4.14371   2 
  -4  -8   2 24.1689 6.76185   2 
  -4  -8   2 50.0813 7.27120   1 
  -3  -8   2 107.262 7.98780   1 
  -3  -8   2 57.5788 5.80601   2 
  -2  -8   2 0.47677 4.39329   2 
  -2  -8   2 12.1855 5.02051   1 
  -1  -8   2 2.63776 3.00722   1 
  -1  -8   2 -6.9533 4.67693   2 
   0  -8   2 64.8475 7.05237   2 
   0  -8   2 197.216 14.2856   1 
   1  -8   2 6.62612 5.27611   2 
  -5  -3   6 77.8698 15.0768  -2 
   2  -8   2 77.8698 15.0768   1 
   2  -8   2 41.9167 7.81508   2 
   3  -8   2 3.82597 5.72551   2 
   3  -8   2 6.65153 8.78731   1 
   4  -8   2 27.7705 9.82054   1 
   4  -8   2 26.7659 10.3004   2 
   5  -8   2 -1.1621 8.59792   1 
   5  -8   2 2.91769 6.58314   2 
   6  -8   2 -0.3975 6.36622   2 
   6  -8   2 4.87439 9.01888   1 
   7  -8   2 -0.4857 7.56679   2 
 -10  -4   4 -13.754 18.3838  -2 
   7  -8   2 -13.754 18.3838   1 
   8  -8   2 5.44731 7.78219   2 
   9  -8   2 7.65978 8.23919   2 
  10  -8   2 1.69966 8.96966   2 
 -13  -7   2 -7.5995 8.48212   1 
 -12  -7   2 -1.1485 8.63294   1 
 -11  -7   2 -6.0923 6.75736   1 
   7   0  11 28.1125 11.4497  -2 
 -10  -7   2 28.1125 11.4497   1 
  -9  -7   2 -5.9105 6.86200   1 
  -8  -7   2 7.60843 6.76905   1 
  -7  -7   2 7.76109 6.49992   1 
  -7  -7   2 -0.3025 6.62775   2 
  -6  -7   2 0.97482 6.20140   2 
   3  -1   9 44.9224 9.87333  -2 
  -6  -7   2 44.9224 9.87333   1 
  -5  -7   2 -0.3186 3.78728   2 
  -5  -7   2 3.70308 5.77368   1 
  -4  -7   2 341.285 11.2993   1 
  -4  -7   2 179.907 10.2464   2 
  -3  -7   2 13.7422 4.35237   2 
  -3  -7   2 36.8700 5.83524   1 
  -2  -7   2 38.4507 5.12555   2 
  -2  -7   2 100.154 6.77065   1 
  -1  -7   2 94.8724 6.51851   2 
  -1  -7   2 137.824 6.91761   1 
   0  -7   2 34.5045 5.34562   2 
   0  -7   2 59.2416 4.19094   1 
   1  -7   2 21.3134 5.40561   2 
   1  -7   2 50.5086 8.81313   1 
   2  -7   2 -7.7526 6.16667   1 
   2  -7   2 7.15773 5.25727   2 
   3  -7   2 92.6378 10.4029   1 
   3  -7   2 35.9758 6.37351   2 
   4  -7   2 19.1451 6.07111   2 
   4  -7   2 52.4598 9.76841   1 
   5  -7   2 1.02122 5.50174   2 
   5  -7   2 10.0100 8.92656   1 
   6  -7   2 16.8304 7.16560   2 
   6  -7   2 28.2738 9.76831   1 
   7  -7   2 -4.3260 6.29541   2 
   7  -7   2 0.78839 9.06916   1 
   8  -7   2 18.7775 7.88545   2 
   8  -7   2 67.1216 12.5189   1 
   9  -7   2 28.7317 8.96360   2 
  10  -7   2 -0.9979 8.34081   2 
  11  -7   2 2.22649 9.78502   2 
 -13  -6   2 -0.7660 7.96805   1 
 -12  -6   2 16.5829 8.82939   1 
 -11  -6   2 11.1327 7.76160   1 
 -10  -6   2 -6.0438 6.48011   1 
  -9  -6   2 -0.3668 6.18217   1 
  -8  -6   2 49.3739 8.01936   1 
  -8  -6   2 21.7102 7.29132   2 
  -7  -6   2 0.80567 5.72381   1 
  -7  -6   2 2.18107 6.18051   2 
  -6  -6   2 91.7291 8.06756   1 
  -6  -6   2 39.1079 4.03421   2 
  -5  -6   2 48.8580 4.38397   2 
  -5  -6   2 124.691 8.25313   1 
  -4  -6   2 32.8681 4.20668   2 
  -4  -6   2 64.9618 6.68503   1 
  -3  -6   2 90.0363 5.56365   2 
  -3  -6   2 188.996 8.31319   1 
  -2  -6   2 24.3859 4.87384   1 
  -2  -6   2 17.6623 4.34785   2 
  -1  -6   2 148.617 6.96572   2 
  -1  -6   2 295.734 8.33693   1 
   0  -6   2 2.52771 3.21008   1 
   0  -6   2 -0.6942 4.00334   2 
   1  -6   2 68.3135 6.01891   2 
   1  -6   2 121.643 10.5539   1 
   2  -6   2 22.1613 5.11084   2 
   2  -6   2 28.0448 7.60487   1 
   3  -6   2 49.2043 9.05349   1 
   3  -6   2 4.08121 4.88546   2 
   4  -6   2 11.3361 5.26477   2 
   4  -6   2 4.78070 7.32651   1 
   5  -6   2 57.6983 7.70259   2 
   5  -6   2 135.474 11.7578   1 
   6  -6   2 6.03251 6.10236   2 
   6  -6   2 4.21210 8.31341   1 
   7  -6   2 57.7302 10.0119   1 
   7  -6   2 29.7694 7.37308   2 
   8  -6   2 -9.6015 6.33111   2 
   8  -6   2 16.3628 9.39125   1 
   9  -6   2 0.35364 7.27046   2 
   9  -6   2 27.4138 9.94669   1 
  10  -6   2 26.0591 8.77596   2 
  11  -6   2 -1.7456 8.81765   2 
 -13  -5   2 5.75311 8.19475   1 
 -12  -5   2 1.89529 7.77969   1 
 -11  -5   2 1.54735 7.74926   1 
 -10  -5   2 32.1071 8.19638   1 
  -9  -5   2 21.8520 8.40896   2 
  -9  -5   2 2.18964 6.61675   1 
  -8  -5   2 19.1732 7.31826   2 
  -8  -5   2 4.48806 6.09387   1 
  -7  -5   2 77.9829 8.02244   1 
  -7  -5   2 43.1912 7.25860   2 
  -6  -5   2 54.9271 6.90994   1 
  -6  -5   2 22.3525 3.34957   2 
  -5  -5   2 274.935 10.1890   1 
  -5  -5   2 126.174 5.03596   2 
  -4  -5   2 18.7666 3.55612   2 
  -4  -5   2 44.4487 5.87395   1 
  -3  -5   2 -2.6161 4.36494   1 
  -3  -5   2 2.64011 3.27076   2 
  -2  -5   2 -0.3392 4.20436   1 
  -2  -5   2 0.55520 3.52426   2 
  -1  -5   2 25.6993 4.14663   2 
  -1  -5   2 47.8447 5.24242   1 
   0  -5   2 44.9051 4.66758   2 
   0  -5   2 99.5791 5.72697   1 
  -2  -1   5 106.029 12.3917  -2 
   0  -5   2 106.029 12.3917   1 
   1  -5   2 450.565 14.9025   1 
   1  -5   2 219.629 7.98222   2 
   2  -5   2 7.07343 6.68659   1 
   2  -5   2 23.8205 7.20192   2 
   3  -5   2 129.222 10.0216   1 
   3  -5   2 52.9365 5.93095   2 
   4  -5   2 254.995 5.92512   1 
   4  -5   2 110.138 7.68410   2 
   5  -5   2 19.6116 5.60113   2 
   5  -5   2 40.0497 5.13339   1 
  -7  -2   3 46.0309 11.3868  -2 
   5  -5   2 46.0309 11.3868   1 
   6  -5   2 67.5767 7.84421   2 
   6  -5   2 160.680 12.3599   1 
   7  -5   2 23.5300 6.90221   2 
   7  -5   2 49.8941 9.53423   1 
   8  -5   2 21.2306 7.22537   2 
   8  -5   2 39.6930 9.53131   1 
   9  -5   2 20.5488 9.13239   1 
   9  -5   2 -6.7952 6.85783   2 
  10  -5   2 2.57507 7.90914   2 
  10  -5   2 7.46821 9.52451   1 
  11  -5   2 1.06731 8.52195   2 
  12  -5   2 5.28165 8.34355   2 
 -13  -4   2 24.2409 8.90761   1 
 -12  -4   2 -0.2693 9.12185   1 
  10   2  10 39.4887 21.2465  -2 
 -12  -4   2 39.4887 21.2465   1 
 -11  -4   2 29.7370 11.7862   2 
 -11  -4   2 69.6139 9.47880   1 
 -10  -4   2 -0.9435 6.63319   1 
 -10  -4   2 -0.6409 8.68112   2 
  -9  -4   2 29.9527 9.01221   2 
  -9  -4   2 31.2406 7.18869   1 
  -8  -4   2 126.650 9.14346   1 
  -7  -4   2 12.6035 5.97699   1 
  -7  -4   2 9.07039 5.70737   2 
  -6  -4   2 134.805 8.29992   1 
  -6  -4   2 44.6724 7.41351   2 
  -5  -4   2 2.65762 2.53534   2 
  -5  -4   2 13.0398 5.41440   1 
  -4  -4   2 236.557 8.97570   1 
  -3  -4   2 152.624 7.34493   1 
  -3  -4   2 87.8431 4.29353   2 
  -2  -4   2 15.3940 3.62900   2 
  -2  -4   2 32.8412 4.55895   1 
  -1  -4   2 10.6047 3.59477   2 
  -1  -4   2 20.0623 3.94750   1 
   0  -4   2 368.567 7.02500   1 
   0  -4   2 180.030 6.88620   2 
   1  -4   2 12.9247 4.01796   2 
   1  -4   2 29.3072 2.42278   1 
   2  -4   2 205.325 7.77334   2 
   3  -4   2 81.8753 3.74470   1 
   3  -4   2 37.8158 5.26118   2 
   4  -4   2 289.395 7.02347   1 
   4  -4   2 124.685 7.59518   2 
   5  -4   2 31.1026 4.33333   1 
   5  -4   2 6.32615 5.07855   2 
   6  -4   2 1.52135 4.19897   1 
   6  -4   2 5.80640 5.49637   2 
   7  -4   2 145.515 6.24700   1 
   7  -4   2 63.3525 7.91986   2 
   8  -4   2 -2.3833 5.87671   2 
   8  -4   2 8.08882 4.36448   1 
   9  -4   2 0.98032 6.93521   2 
   9  -4   2 -13.932 7.00864   1 
  10  -4   2 -4.4814 10.8971   2 
  10  -4   2 30.9593 10.1232   1 
  11  -4   2 18.4536 8.05485   2 
  12  -4   2 -0.7837 8.03104   2 
 -13  -3   2 -5.6884 7.70821   1 
 -12  -3   2 28.9754 11.9519   2 
 -12  -3   2 43.2387 8.78238   1 
 -11  -3   2 -1.5555 9.36174   2 
 -11  -3   2 2.25457 6.80296   1 
 -10  -3   2 68.4664 11.4213   2 
 -10  -3   2 173.996 17.5798   1 
  -9  -3   2 -0.7617 7.18135   2 
  -9  -3   2 -3.5404 5.37658   1 
  -8  -3   2 7.44348 5.63565   1 
  -8  -3   2 7.50330 3.78575   2 
  -7  -3   2 16.0168 3.29610   2 
  -7  -3   2 38.2286 6.13452   1 
  -6  -3   2 -2.1761 4.56893   1 
  -6  -3   2 2.06788 2.59409   2 
  -5  -3   2 26.3940 5.19439   1 
  -4  -3   2 102.721 6.72707   1 
  -3  -3   2 166.775 7.34448   1 
  -3  -3   2 98.1405 5.00805   2 
  -2  -3   2 286.726 6.15089   2 
  -2  -3   2 589.853 10.4597   1 
  -1  -3   2 7.43466 3.08924   2 
  -1  -3   2 0.86157 3.44072   1 
   0  -3   2 22.7755 3.89406   2 
   0  -3   2 67.5405 3.85841   1 
   1  -3   2 69.7399 3.37161   1 
   1  -3   2 28.3213 4.05004   2 
   2  -3   2 -1.2241 3.65367   2 
   2  -3   2 -4.0644 5.81536   1 
   3  -3   2 89.1040 4.96636   2 
   3  -3   2 166.481 5.48558   1 
   4  -3   2 104.475 5.21300   1 
   4  -3   2 42.0212 4.44545   2 
   5  -3   2 61.3122 4.07823   1 
   5  -3   2 18.6076 4.38794   2 
   6  -3   2 2.61604 4.30797   2 
   6  -3   2 3.34693 3.35692   1 
   7  -3   2 44.4514 4.65816   1 
   7  -3   2 15.7481 5.75858   2 
   8  -3   2 65.5180 5.58525   1 
   8  -3   2 33.4174 6.84985   2 
   9  -3   2 26.6509 7.47952   2 
   9  -3   2 66.5128 6.03050   1 
  10  -3   2 1.41356 8.69812   2 
  10  -3   2 37.1053 5.79990   1 
  11  -3   2 51.4057 9.12857   2 
  11  -3   2 88.0460 12.5451   1 
  12  -3   2 -1.0075 7.60350   2 
  13  -3   2 21.6617 9.49775   2 
 -13  -2   2 3.41623 7.72061   1 
 -13  -2   2 3.80422 12.7377   2 
 -12  -2   2 -15.279 10.5142   2 
 -12  -2   2 21.6956 8.02985   1 
 -11  -2   2 18.2563 7.43562   1 
 -10  -2   2 5.67478 6.30523   1 
 -10  -2   2 -11.030 8.36432   2 
  -9  -2   2 42.0397 6.90937   1 
  -9  -2   2 25.9904 8.94847   2 
   7   2   7 212.323 11.3056  -2 
  -8  -2   2 212.323 11.3056   1 
  -8  -2   2 52.3721 5.31433   2 
  -7  -2   2 18.3803 3.97753   2 
  -7  -2   2 40.3008 6.02704   1 
  -6  -2   2 154.222 5.56270   2 
  -6  -2   2 312.974 9.99972   1 
  -5  -2   2 208.678 8.17628   1 
  -5  -2   2 100.793 4.24244   2 
  -4  -2   2 242.587 4.56908   2 
  -4  -2   2 466.237 10.2576   1 
  -3  -2   2 195.495 8.98992   2 
  -3  -2   2 405.033 9.20625   1 
  -2  -2   2 211.943 7.11886   1 
  -2  -2   2 75.7118 3.21488   2 
  -1  -2   2 544.772 7.54137   2 
  -1  -2   2 1132.58 12.4959   1 
   0  -2   2 45.4165 3.45885   1 
   0  -2   2 21.4681 2.70748   2 
   1  -2   2 495.899 6.93281   1 
   1  -2   2 234.926 5.38474   2 
   2  -2   2 101.675 4.15464   1 
   2  -2   2 37.1420 4.25697   2 
   3  -2   2 -7.7232 4.11007   1 
   3  -2   2 10.4533 3.86853   2 
   4  -2   2 -0.1418 3.03182   2 
   4  -2   2 0.77219 2.64994   1 
   5  -2   2 177.509 5.67030   1 
   5  -2   2 69.2067 5.12012   2 
   6  -2   2 -4.9878 3.69155   2 
   6  -2   2 0.61127 3.38199   1 
   8   1   0 230.134 13.8616  -2 
   7  -2   2 230.134 13.8616   1 
   7  -2   2 78.2262 6.07428   2 
   8  -2   2 17.8659 5.09368   2 
   8  -2   2 32.3679 5.13494   1 
   9  -2   2 28.7752 5.96445   2 
   9  -2   2 79.7158 6.35157   1 
  10  -2   2 50.6976 6.61138   1 
  10  -2   2 24.2883 7.21745   2 
  11  -2   2 16.8805 4.71077   1 
  11  -2   2 -7.9014 6.46012   2 
  12  -2   2 60.2043 6.19114   1 
  12  -2   2 15.3790 8.16500   2 
  13  -2   2 -6.0462 7.61968   2 
 -13  -1   2 1.83263 12.6428   2 
 -13  -1   2 29.5045 14.2980   1 
 -12  -1   2 2.40928 7.07656   1 
 -12  -1   2 7.02392 11.8214   2 
 -11  -1   2 2.51324 6.37828   1 
 -11  -1   2 0.48283 10.4107   2 
 -10  -1   2 8.23869 12.0037   2 
 -10  -1   2 11.3076 6.15682   1 
  -9  -1   2 42.5688 7.05428   1 
  -9  -1   2 28.2932 5.98868   2 
  -8  -1   2 -2.2034 5.05076   1 
  -8  -1   2 2.34175 4.46837   2 
  -7  -1   2 273.119 10.2229   1 
  -7  -1   2 132.603 6.56432   2 
  -6  -1   2 124.967 5.80062   2 
  -6  -1   2 246.345 8.87420   1 
  -5  -1   2 436.879 10.3471   1 
  -5  -1   2 197.584 5.87048   2 
  -4  -1   2 128.245 4.38819   2 
  -4  -1   2 244.588 7.67283   1 
  -3  -1   2 356.162 8.17665   1 
  -3  -1   2 160.818 3.61847   2 
  -2  -1   2 36.1544 3.94332   1 
  -2  -1   2 17.7503 4.78435   2 
  -1  -1   2 0.26964 2.85746   1 
  -1  -1   2 -3.3449 2.02695   2 
   0  -1   2 7.76458 2.79796   2 
   0  -1   2 24.8272 3.04420   1 
   1  -1   2 -0.8226 2.99901   2 
   1  -1   2 1.04770 2.48833   1 
   2  -1   2 -3.2698 3.35292   2 
   2  -1   2 -1.3113 2.84469   1 
   3  -1   2 69.8793 4.96833   2 
   3  -1   2 142.515 4.61957   1 
   4  -1   2 124.907 4.23472   1 
   4  -1   2 50.3527 5.17456   2 
   5  -1   2 19.4324 4.60961   2 
   5  -1   2 48.0046 5.33768   1 
   6  -1   2 301.976 9.57835   1 
   6  -1   2 126.690 7.48842   2 
   7  -1   2 19.6426 5.33146   2 
   7  -1   2 39.5751 5.90722   1 
   8  -1   2 78.3799 6.21554   2 
   8  -1   2 222.832 9.75447   1 
   9  -1   2 11.2548 5.57960   1 
   9  -1   2 -0.0188 4.38131   2 
  10  -1   2 13.1298 5.20318   2 
  10  -1   2 25.0340 6.62817   1 
  11  -1   2 12.8542 10.6922   2 
  11  -1   2 0.12474 6.57680   1 
  12  -1   2 1.31724 7.08255   2 
  12  -1   2 -6.6150 4.49490   1 
  13  -1   2 -6.2963 6.09081   2 
  13  -1   2 -3.3437 5.79524   1 
 -13   0   2 30.3905 14.9504   2 
 -13   0   2 12.2690 13.3626   1 
 -12   0   2 -8.9197 10.0652   1 
 -12   0   2 -16.129 10.2962   2 
 -11   0   2 34.7694 11.9516   2 
 -11   0   2 31.1356 7.48944   1 
 -10   0   2 21.3762 6.43822   1 
 -10   0   2 9.72780 9.70690   2 
  -9   0   2 62.9262 7.07680   2 
  -9   0   2 154.809 9.44808   1 
  -8   0   2 84.0287 6.82552   2 
  -8   0   2 175.063 9.10264   1 
  -7   0   2 13.7518 4.90530   1 
  -7   0   2 4.93573 4.43777   2 
  -6   0   2 183.755 7.74320   1 
  -6   0   2 103.155 8.97667   2 
  -5   0   2 273.172 8.14434   1 
  -5   0   2 115.046 5.53223   2 
  -4   0   2 47.1897 4.97844   1 
  -4   0   2 18.5129 4.66182   2 
  -3   0   2 10.4944 2.81567   2 
  -3   0   2 18.9897 3.67716   1 
  -2   0   2 126.048 4.82933   1 
  -2   0   2 63.5443 2.89810   2 
  -1   0   2 6.49853 1.99279   2 
  -1   0   2 13.7861 2.70947   1 
   0   0   2 437.743 6.14791   1 
   0   0   2 215.534 4.51024   2 
   1   0   2 6.54577 2.50572   1 
   1   0   2 2.33064 2.70943   2 
  -2   1   1 9999.99 85.1976  -2 
   2   0   2 9999.99 85.1976   1 
   2   0   2 9909.66 82.8026   1 
   2   0   2 4488.83 30.9013   2 
   3   0   2 466.164 8.86935   2 
   3   0   2 1021.32 10.1598   1 
   4   0   2 803.394 9.96441   1 
   4   0   2 354.803 8.86919   2 
   5   0   2 69.9353 5.59459   2 
   5   0   2 150.611 7.09272   1 
   6   0   2 2.45066 4.27133   2 
   6   0   2 4.51531 4.25256   1 
   7   0   2 43.2960 5.75191   2 
   7   0   2 124.023 7.84034   1 
   8   0   2 5.77873 5.06475   2 
   8   0   2 1.05346 4.90122   1 
   9   0   2 99.0784 8.41023   1 
   9   0   2 48.1935 6.97908   2 
  10   0   2 14.6430 4.99004   2 
  10   0   2 50.2457 7.61301   1 
  11   0   2 7.21401 6.31321   1 
  12   0   2 20.2797 8.03660   1 
  12   0   2 -2.4147 4.84312   2 
  12   1   4 -9.7928 16.2936  -2 
  12   0   2 -9.7928 16.2936   1 
  13   0   2 1.99612 6.18180   2 
  13   1   4 44.0775 21.5597  -2 
  13   0   2 44.0775 21.5597   1 
  13   0   2 21.9213 11.5427   1 
  14   0   2 -0.1713 9.08712   1 
  14   0   2 7.33688 8.32465   2 
 -13   1   2 17.3820 12.5654   1 
 -12   1   2 9.27200 12.4792   1 
 -12   1   2 13.5979 12.3295   2 
 -11   1   2 -5.9960 5.70268   1 
 -11   1   2 14.8711 11.5796   2 
 -10   1   2 28.7276 7.13475   2 
 -10   1   2 72.9679 10.0594   1 
  10   4   6 115.040 16.5541  -2 
 -10   1   2 115.040 16.5541   1 
  -9   1   2 2.47453 5.88239   1 
  -9   1   2 -2.7350 5.44552   2 
  -8   1   2 129.951 7.99023   1 
  -8   1   2 34.0137 6.03642   2 
  -7   1   2 102.751 7.01162   1 
  -7   1   2 42.7931 5.62214   2 
  -6   1   2 1.07682 3.83677   2 
   6   3   4 11.9485 6.56358  -2 
  -6   1   2 11.9485 6.56358   1 
  -5   1   2 154.890 6.52882   1 
  -5   1   2 65.6929 5.03234   2 
  -4   1   2 96.9555 5.24145   2 
  -4   1   2 207.658 6.46812   1 
  -3   1   2 0.83860 2.95354   2 
  -2   1   2 983.815 9.93292   1 
  -2   1   2 449.150 7.06367   2 
  -1   1   2 41.9793 2.45721   1 
  -1   1   2 22.0644 2.62586   2 
   0   1   2 207.297 4.50243   2 
   0   1   2 397.102 5.41123   1 
   1   1   2 465.251 6.26786   2 
   1   1   2 1030.55 10.1860   1 
   2   1   2 2.82726 2.60485   2 
   2   1   2 -0.7007 2.88964   1 
   3   1   2 2355.53 17.1623   1 
   3   1   2 1022.11 11.6854   2 
   4   1   2 12.7285 5.86944   2 
   4   1   2 37.2827 3.83450   1 
   5   1   2 0.32444 4.23512   1 
   5   1   2 17.4500 4.18674   2 
   6   1   2 11.1075 4.38293   2 
   6   1   2 2.27754 4.48526   1 
   7   1   2 -2.6947 4.27859   2 
   7   1   2 2.13580 4.79618   1 
   8   1   2 12.1617 5.50172   1 
   8   1   2 12.7613 4.86090   2 
   9   1   2 68.7910 7.58558   1 
   9   1   2 29.5262 5.94586   2 
  10   1   2 5.43937 5.12316   2 
  10   1   2 -0.1132 5.82235   1 
  11   1   2 36.7939 5.91432   2 
  11   1   2 62.7893 8.81294   1 
  12   1   2 -6.0508 4.30010   2 
  12   1   2 -3.0600 6.40558   1 
  13   1   2 3.72896 4.98113   2 
  13   1   2 13.0204 6.51463   1 
  14   1   2 29.1911 7.64475   1 
  14   1   2 33.6554 12.2712   2 
 -13   2   2 18.3429 13.3522   1 
 -13   2   2 2.05852 13.4771   2 
 -12   2   2 23.5279 13.4464   2 
 -12   2   2 74.3398 15.2410   1 
 -11   2   2 31.3522 11.7356   1 
 -11   2   2 18.9090 7.62109   2 
 -10   2   2 24.3122 6.50590   1 
 -10   2   2 7.67515 6.08239   2 
  -9   2   2 16.7989 5.96670   2 
  -9   2   2 42.2532 6.50698   1 
  -8   2   2 17.1805 5.48598   1 
  -8   2   2 3.52537 4.49545   2 
  -7   2   2 46.6425 5.43382   1 
  -7   2   2 8.82557 3.89976   2 
  -6   2   2 71.5341 5.40495   1 
  -6   2   2 28.1534 4.24708   2 
  -5   2   2 204.207 6.95894   1 
  -5   2   2 102.787 5.16997   2 
  -4   2   2 7.05192 3.15276   1 
  -4   2   2 2.90039 3.01170   2 
  -3   2   2 54.5476 3.69734   2 
  -3   2   2 122.834 4.47765   1 
  -2   2   2 957.745 9.40641   2 
  -2   2   2 2161.33 16.7619   1 
  -1   2   2 1144.88 11.4218   2 
  -1   2   2 2661.02 29.3665   1 
   0   2   2 258.432 5.23453   2 
   0   2   2 518.589 6.18374   1 
   1   2   2 118.650 4.41331   1 
   1   2   2 63.7022 3.24480   2 
   2   2   2 85.7890 3.68957   2 
   2   2   2 194.371 6.11017   1 
   3   2   2 19.5498 3.10052   2 
   3   2   2 42.7938 3.75870   1 
   4   2   2 65.3786 4.37973   1 
   4   2   2 30.2616 3.96813   2 
   5   2   2 -3.8846 3.36933   2 
   5   2   2 -2.4919 4.15240   1 
   6   2   2 20.0437 5.13278   1 
   6   2   2 4.50692 4.12933   2 
   7   2   2 100.092 7.40587   1 
   7   2   2 36.4348 5.29303   2 
   8   2   2 29.6412 6.14465   1 
   8   2   2 4.87002 7.14244   2 
   9   2   2 22.5681 5.81278   2 
   9   2   2 81.5344 8.12703   1 
  10   2   2 181.346 10.7736   1 
  10   2   2 68.3528 5.89450   2 
  11   2   2 -4.8286 5.83627   1 
  11   2   2 -4.9284 5.56905   2 
  12   2   2 33.4664 5.17879   2 
  12   2   2 77.1555 9.57518   1 
  13   2   2 0.60091 6.41657   1 
  13   2   2 -3.7139 8.48523   2 
  14   2   2 10.5346 6.69225   1 
 -13   3   2 29.6949 13.3236   1 
 -13   3   2 9.85006 13.2414   2 
 -12   3   2 -0.2181 10.3866   1 
 -12   3   2 10.1063 12.3165   2 
 -11   3   2 1.05512 7.20735   2 
 -11   3   2 -3.9939 9.21637   1 
 -10   3   2 9.14866 10.3955   1 
 -10   3   2 10.8962 5.66257   2 
  -9   3   2 8.29637 5.42949   1 
  -9   3   2 -0.6880 5.02339   2 
  -8   3   2 29.4284 5.60429   1 
  -8   3   2 8.51606 4.66713   2 
  -7   3   2 164.961 7.75717   1 
  -7   3   2 66.4868 5.78512   2 
  -6   3   2 76.4178 5.65543   1 
  -6   3   2 37.2108 4.67716   2 
  -5   3   2 251.969 7.49231   1 
  -4   3   2 132.136 4.05076   1 
  -4   3   2 66.8989 7.99091   2 
  -3   3   2 46.5195 4.71069   2 
  -3   3   2 104.228 4.23634   1 
  -2   3   2 251.583 4.58002   1 
  -2   3   2 122.147 5.53422   2 
  -1   3   2 0.71672 2.54464   2 
  -1   3   2 6.75070 2.19200   1 
   0   3   2 148.112 5.64707   1 
   1   3   0 179.994 8.74299  -2 
   0   3   2 179.994 8.74299   1 
   0   3   2 59.3503 3.45729   2 
   1   3   2 234.871 5.95132   1 
   1   3   2 186.423 5.65736   2 
   2   3   2 12.4394 3.65953   1 
   2   3   2 6.17783 1.27716   2 
   3   3   2 44.9709 3.95305   1 
   3   3   2 22.3238 2.60637   2 
   4   3   2 69.2978 4.65340   1 
   4   3   2 30.9408 3.44078   2 
   5   3   2 8.27969 3.47052   2 
   5   3   2 21.5473 4.99617   1 
   6   3   2 340.181 10.5006   1 
   6   3   2 144.704 6.29167   2 
   7   3   2 28.1133 5.75944   1 
   7   3   2 19.2360 4.64112   2 
   8   3   2 106.008 5.57813   2 
   8   3   2 222.238 10.3749   1 
   9   3   2 49.2771 6.43010   2 
   8  -1   4 158.099 15.9508  -2 
   9   3   2 158.099 15.9508   1 
  10   3   2 -3.7064 5.56512   1 
  10   3   2 0.15835 4.09270   2 
  11   3   2 21.3732 7.26878   1 
  11   3   2 7.21171 5.70599   2 
  12   3   2 -1.1133 7.23522   1 
  12   3   2 0.44168 8.09859   2 
  13   3   2 -5.3056 7.22998   1 
  14   3   2 11.7700 7.34491   1 
 -13   4   2 2.01081 13.7445   2 
 -12   4   2 0.48231 8.51289   2 
  13   6   5 -0.4282 17.9760  -2 
 -12   4   2 -0.4282 17.9760   1 
 -11   4   2 2.63024 6.20532   2 
 -11   4   2 6.29883 11.2525   1 
 -10   4   2 3.17944 5.69916   2 
 -10   4   2 17.0805 9.72972   1 
  -9   4   2 31.0032 6.20899   2 
  -9   4   2 54.5551 11.1191   1 
  -8   4   2 50.6849 10.2313   1 
  -8   4   2 14.4138 5.29716   2 
   9   5   3 80.2230 11.6912  -2 
  -8   4   2 80.2230 11.6912   1 
  -7   4   2 41.8385 5.53006   2 
  -7   4   2 96.6719 6.44539   1 
  -6   4   2 546.490 10.6787   1 
  -6   4   2 266.317 10.4424   2 
  -5   4   2 5.44502 3.42684   1 
  -5   4   2 -1.5365 4.47745   2 
  -4   4   2 460.037 8.22834   1 
  -4   4   2 189.819 7.96060   2 
  -3   4   2 7.25773 3.97571   2 
  -3   4   2 21.2461 2.86298   1 
  -2   4   2 55.8459 4.84345   2 
  -2   4   2 77.0302 3.74751   1 
  -1   4   2 -4.4234 3.22959   2 
  -1   4   2 -3.1251 2.51685   1 
   0   4   2 108.825 4.67444   1 
   0   4   2 41.9343 3.73921   2 
   1   4   2 16.1591 3.44665   1 
   1   4   2 3.52627 1.82606   2 
   2   4   2 335.954 8.11932   1 
   2   4   2 173.663 10.0294   2 
   3   4   2 23.3737 4.37883   1 
   3   4   2 8.82397 5.39885   2 
   4   4   2 89.8314 5.11355   1 
   4   4   2 40.0619 2.67103   2 
   5   4   2 35.2858 3.41187   2 
   5   4   2 95.0495 6.65462   1 
   6   4   2 137.918 4.50218   2 
   6   4   2 303.471 10.2613   1 
   7   4   2 100.793 4.63246   2 
   7   4   2 210.686 9.56666   1 
   8   4   2 23.0625 5.97563   1 
   8   4   2 8.45656 4.51421   2 
   9   4   2 45.7794 7.10498   1 
   9   4   2 22.4018 5.35940   2 
  10   4   2 -0.3598 6.34113   1 
  10   4   2 7.55869 5.32804   2 
  11   4   2 0.01539 7.63819   2 
  11   4   2 10.8587 6.74176   1 
  12   4   2 16.0346 7.62996   1 
  13   4   2 -6.8594 6.42567   1 
  14   4   2 8.32907 7.65149   1 
 -11   5   2 -0.0929 6.65681   2 
 -10   5   2 23.6574 6.78447   2 
 -10   5   2 48.7331 11.5600   1 
  -9   5   2 3.55225 5.57208   2 
  -9   5   2 2.88751 8.03230   1 
  -8   5   2 69.8059 6.95429   2 
  -8   5   2 158.700 14.0269   1 
  -7   5   2 49.1764 5.70250   1 
  -7   5   2 14.8843 6.14358   2 
  -6   5   2 2.29700 5.29740   2 
  -6   5   2 1.43606 3.75067   1 
  -5   5   2 120.225 7.85162   2 
  -5   5   2 259.006 7.22513   1 
  -4   5   2 -1.0643 4.17989   2 
  -4   5   2 -2.6127 2.64624   1 
  -3   5   2 2.50972 2.82500   1 
  -3   5   2 0.06784 4.04171   2 
  -2   5   2 27.5138 3.31734   1 
  -2   5   2 16.9846 4.18271   2 
  -1   5   2 -3.3111 3.76983   2 
  -1   5   2 -1.8984 2.85878   1 
   0   5   2 417.085 7.78484   1 
   0   5   2 163.985 5.76441   2 
   1   5   2 53.0149 3.54061   2 
   1   5   2 129.664 5.76936   1 
   2   5   2 17.7068 4.07861   1 
   3   5   2 238.094 8.36716   1 
   3   5   2 110.873 9.19943   2 
   4   5   2 6.94963 5.90651   2 
   4   5   2 24.3152 3.88835   1 
   5   5   2 228.218 7.51167   1 
   5   5   2 110.140 3.97032   2 
   6   5   2 36.0570 3.70373   2 
   6   5   2 110.834 7.61929   1 
   7   5   2 62.1266 8.00095   1 
   7   5   2 11.2227 3.76609   2 
   8   5   2 1.28226 3.98201   2 
   8   5   2 9.58083 5.62660   1 
   9   5   2 10.4653 5.14023   2 
   9   5   2 19.1474 6.59256   1 
  10   5   2 -3.5107 9.14535   1 
  10   5   2 17.2404 8.28026   2 
   8  -2   6 41.9004 15.2772  -2 
  10   5   2 41.9004 15.2772   1 
  11   5   2 47.6620 11.7842   1 
  11   5   2 17.5215 9.24345   2 
  12   5   2 6.91613 6.27503   1 
  13   5   2 14.1219 7.04485   1 
  14   5   2 8.94665 10.0665   1 
  12  -1   8 52.0804 20.2092  -2 
  14   5   2 52.0804 20.2092   1 
 -12   6   2 3.26889 7.53037   2 
 -11   6   2 8.72004 6.83816   2 
 -10   6   2 2.21321 6.71912   2 
  -9   6   2 40.7121 10.2903   1 
  -9   6   2 20.6646 6.32201   2 
  10   6   2 40.8294 12.6335  -2 
  -8   6   2 40.8294 12.6335   1 
  -8   6   2 9.07411 7.03838   2 
  -7   6   2 15.6343 6.66829   2 
  -7   6   2 21.0144 8.39000   1 
  -6   6   2 20.3088 6.75256   2 
  -6   6   2 23.3314 4.37567   1 
  -5   6   2 13.0429 5.49554   2 
  -5   6   2 14.7399 3.75495   1 
   6   5   0 10.7892 8.61432  -2 
  -4   6   2 10.7892 8.61432   1 
  -4   6   2 5.89520 4.52148   1 
  -3   6   2 54.5133 5.84241   2 
  -3   6   2 128.713 5.32422   1 
  -2   6   2 255.855 8.63021   2 
  -2   6   2 631.869 9.58828   1 
  -1   6   2 96.1316 6.03578   2 
  -1   6   2 201.210 6.07129   1 
   0   6   2 275.532 7.74130   2 
   0   6   2 590.903 9.88024   1 
   1   6   2 127.155 6.01132   1 
   1   6   2 57.5295 4.09327   2 
   2   6   2 30.4795 2.93975   2 
   2   6   2 57.8755 5.12867   1 
   3   6   2 1.52879 3.97107   1 
   3   6   2 7.52085 6.07909   2 
   4   6   2 105.056 5.61417   1 
   4   6   2 66.4725 8.17539   2 
   5   6   2 6.09457 5.86199   2 
   5   6   2 12.9403 4.24276   1 
   6   6   2 53.7315 5.44466   1 
   6   6   2 12.8695 2.90632   2 
   7   6   2 161.653 12.7396   1 
   7   6   2 74.1965 4.55182   2 
   8   6   2 2.14873 6.61527   2 
   8   6   2 0.11609 5.65831   1 
   9   6   2 7.14635 6.14728   1 
   9   6   2 7.43850 7.09330   2 
  10   6   2 56.4185 8.77385   1 
  11   6   2 7.46440 7.29564   1 
  12   6   2 42.8156 10.2354   1 
  13   6   2 2.26726 7.13808   1 
  14   6   2 13.4063 7.59442   1 
 -11   7   2 19.5650 7.55537   2 
 -10   7   2 6.01064 6.76589   2 
  -9   7   2 21.9894 8.60064   2 
  -8   7   2 -13.666 6.14759   2 
  -6   7   2 3.93820 5.67150   2 
  -6   7   2 2.96657 6.30352   1 
  -5   7   2 24.7389 9.28638   2 
  -5   7   2 72.1748 5.20994   1 
  -4   7   2 126.153 5.83104   1 
  -4   7   2 55.6455 6.91742   2 
  -3   7   2 145.512 5.78054   1 
  -3   7   2 58.3206 6.43691   2 
  -2   7   2 236.460 6.67679   1 
  -2   7   2 115.296 7.28673   2 
  -1   7   2 189.085 6.32233   1 
  -1   7   2 98.2891 6.62135   2 
   0   7   2 301.264 7.76693   1 
   0   7   2 131.103 6.35709   2 
   1   7   2 2.29268 3.33042   2 
   1   7   2 14.9300 4.46590   1 
   2   7   2 107.941 4.73823   2 
   2   7   2 230.237 8.31721   1 
   3   7   2 11.6731 2.40127   2 
   3   7   2 39.9802 5.33850   1 
   4   7   2 -0.7781 6.31757   2 
   4   7   2 -3.3038 4.19196   1 
   5   7   2 0.87227 3.88122   1 
   5   7   2 -3.4686 5.54778   2 
   6   7   2 72.5074 6.06264   1 
   6   7   2 51.9157 8.34790   2 
   7   7   2 5.75680 4.53727   1 
   7   7   2 -6.2570 6.13375   2 
   8   7   2 61.5779 9.05902   2 
   8   7   2 118.377 7.93054   1 
   9   7   2 1.84605 5.12141   1 
   9   7   2 10.0281 7.02669   2 
  10   7   2 19.9747 6.27602   1 
  10   7   2 10.1493 7.93636   2 
  11   7   2 24.5767 6.92203   1 
  12   7   2 -7.8343 6.39453   1 
  13   7   2 12.0834 7.67829   1 
 -11   8   2 5.62684 7.40514   2 
 -10   8   2 4.98411 6.64113   2 
  -9   8   2 -6.2171 7.71647   2 
  -8   8   2 -1.5795 7.23576   2 
  -7   8   2 -1.5001 6.54429   2 
  -6   8   2 83.9167 9.08867   2 
  -5   8   2 -1.8400 5.56734   2 
  -5   8   2 9.28541 6.02887   1 
  -4   8   2 80.9725 7.80630   2 
  -4   8   2 212.901 7.14858   1 
  -3   8   2 4.64073 5.41050   2 
  -3   8   2 3.29865 3.55585   1 
  -2   8   2 55.5138 6.53204   2 
  -2   8   2 130.860 5.71895   1 
  -1   8   2 40.3367 4.26328   1 
  -1   8   2 24.7654 5.13016   2 
   0   8   2 23.8393 4.40098   2 
   0   8   2 52.4055 4.87202   1 
   1   8   2 14.0591 4.77649   1 
   2   8   2 39.9986 3.99802   2 
  -1  -5   4 89.5118 8.07485  -2 
   2   8   2 89.5118 8.07485   1 
   3   8   2 45.4501 5.85913   1 
   4   8   2 48.3573 8.48132   2 
   4   8   2 68.5934 6.68045   1 
   5   8   2 55.5916 6.84174   1 
   3  -4   6 60.8587 10.2256  -2 
   6   8   2 60.8587 10.2256   1 
   6   8   2 20.0429 7.19698   2 
   7   8   2 88.8430 7.21793   1 
   7   8   2 40.7715 8.25777   2 
   8   8   2 7.16824 6.91279   2 
   8   8   2 8.62664 5.35227   1 
   9   8   2 46.3340 6.95953   1 
   9   8   2 35.9867 8.84935   2 
  10   8   2 6.04785 5.72791   1 
  11   8   2 -5.1246 5.73369   1 
  12   8   2 15.2016 6.92508   1 
  13   8   2 5.23193 7.44355   1 
 -10   9   2 1.01775 7.06218   2 
  -9   9   2 1.38753 8.20366   2 
  -8   9   2 20.5144 8.36274   2 
  -7   9   2 16.2594 8.18493   2 
  -6   9   2 21.5413 10.2668   2 
  -5   9   2 10.8856 6.37894   2 
  -4   9   2 8.59002 6.04773   2 
  -4   9   2 28.3574 7.65562   1 
  -3   9   2 29.4678 6.43836   2 
  -3   9   2 85.0588 9.40445   1 
  -2   9   2 15.3812 3.63548   1 
  -2   9   2 8.51326 5.27309   2 
  -1   9   2 9.58336 3.59022   1 
  -1   9   2 -3.7191 4.86047   2 
   0   9   2 57.7517 5.26686   1 
   0   9   2 30.7524 9.12447   2 
   1   9   2 6.93090 4.08640   2 
   1   9   2 34.8862 5.28408   1 
   2   9   2 7.16578 4.87669   1 
   2   9   2 0.60218 3.33862   2 
   3   9   2 222.577 9.47007   1 
   3   9   2 99.6958 5.06710   2 
   4   9   2 -3.9149 5.07230   1 
   4   9   2 9.13826 7.55263   2 
   5   9   2 149.635 9.09265   1 
   5   9   2 67.5247 10.1179   2 
   6   9   2 3.61751 4.55446   1 
   6   9   2 4.03598 7.57210   2 
   7   9   2 23.2236 8.00376   2 
   7   9   2 55.2453 6.52389   1 
   8   9   2 -2.9301 6.70184   2 
   8   9   2 -5.2916 4.96563   1 
   9   9   2 2.04446 5.81174   1 
  10   9   2 1.16220 6.00369   1 
  11   9   2 2.01159 6.33986   1 
  12   9   2 -5.2559 6.93072   1 
  13   9   2 10.1515 7.82795   1 
  -9  10   2 20.5390 9.71618   2 
  -8  10   2 7.81654 8.50736   2 
  -7  10   2 18.5524 8.73969   2 
  -6  10   2 14.9924 10.1977   2 
  -5  10   2 0.16254 6.51357   2 
  -4  10   2 30.2161 7.57679   2 
  -3  10   2 86.0725 8.71871   2 
  -3  10   2 194.578 13.0277   1 
  -2  10   2 -8.0925 7.23783   1 
  -2  10   2 1.69311 5.74483   2 
  -1  10   2 22.4815 6.07447   2 
  -1  10   2 46.8218 9.00678   1 
   0  10   2 -4.9809 4.13962   1 
   0  10   2 -3.5616 5.65587   2 
   1  10   2 21.2475 5.58506   2 
   1  10   2 53.8238 6.30311   1 
   2  10   2 53.8933 6.45552   1 
   2  10   2 16.5756 4.47690   2 
   3  10   2 21.2204 6.08355   1 
   3  10   2 12.8876 8.43075   2 
   4  10   2 88.5949 8.10902   1 
   4  10   2 56.7396 10.7420   2 
   5  10   2 -3.7873 7.56046   2 
   5  10   2 4.81587 5.60309   1 
   6  10   2 19.2152 8.57539   2 
   6  10   2 52.9786 7.87093   1 
   7  10   2 23.0870 6.91202   1 
   7  10   2 12.2979 8.18706   2 
   8  10   2 -1.2270 5.80140   1 
   8  10   2 3.77587 7.92403   2 
   9  10   2 1.18200 5.82189   1 
  10  10   2 8.54235 6.45697   1 
  11  10   2 0.73642 6.82399   1 
  12  10   2 13.7108 9.29450   1 
   8  -4  10 4.45223 18.5826  -2 
  12  10   2 4.45223 18.5826   1 
  -8  11   2 5.68256 9.07438   2 
  -7  11   2 5.53633 8.98706   2 
  -6  11   2 -3.6739 7.73192   2 
  -5  11   2 16.3094 8.25933   2 
  -4  11   2 19.0794 7.81299   2 
  -3  11   2 12.8903 8.06682   2 
  -2  11   2 -3.5600 5.87160   2 
  -2  11   2 9.90037 8.86066   1 
  -1  11   2 58.4530 11.1967   1 
  -1  11   2 18.8759 6.49461   2 
   0  11   2 15.2618 5.95310   2 
  -4  -7   5 29.9957 13.8324  -2 
   0  11   2 29.9957 13.8324   1 
   1  11   2 -2.9883 9.00019   1 
   1  11   2 -2.5056 4.74533   2 
   2  11   2 26.5396 6.13898   1 
   3  11   2 14.3377 5.73585   1 
   3  11   2 -1.4949 7.68694   2 
   0  -6   7 80.5339 10.6048  -2 
   4  11   2 80.5339 10.6048   1 
   4  11   2 11.3741 8.51652   2 
   5  11   2 13.4088 9.07787   1 
   5  11   2 6.08915 9.07324   2 
   1  -6   7 -4.5364 16.1645  -2 
   5  11   2 -4.5364 16.1645   1 
   6  11   2 19.9636 7.24366   1 
   6  11   2 -6.6797 8.46984   2 
   7  11   2 0.96662 6.99391   1 
   7  11   2 16.5523 8.45396   2 
   8  11   2 27.9867 8.10936   1 
   5  -5   9 16.7375 18.9170  -2 
   9  11   2 16.7375 18.9170   1 
   9  11   2 6.13754 10.6647   1 
  10  11   2 21.5386 7.42013   1 
  11  11   2 14.2061 7.59831   1 
  12  11   2 0.25357 7.61017   1 
  -7  12   2 13.3936 9.48715   2 
  -6  12   2 12.7099 8.69880   2 
  -5  12   2 4.97950 8.30471   2 
  -4  12   2 17.4939 7.90907   2 
  -3  12   2 9.55019 7.50402   2 
  -2  12   2 6.43131 6.85309   2 
  -2  12   2 29.9165 10.5830   1 
  -1  12   2 -5.4205 5.91550   2 
  -1  12   2 -0.0517 9.15641   1 
   0  12   2 -1.4421 9.16969   1 
   0  12   2 1.82309 5.97453   2 
   1  12   2 71.2876 12.6626   1 
   2  12   2 19.0859 9.52034   2 
   2  12   2 54.2420 13.2816   1 
   3  12   2 1.00841 8.38228   2 
   3  12   2 19.2964 10.2197   1 
   4  12   2 11.2234 6.47790   1 
   4  12   2 -0.0547 8.67168   2 
   5  12   2 16.6691 7.00104   1 
   5  12   2 16.9881 9.85007   2 
   6  12   2 5.89042 8.61019   2 
   6  12   2 20.5540 7.68087   1 
   7  12   2 11.8976 8.85710   2 
   7  12   2 17.2346 7.62460   1 
   8  12   2 -12.261 7.47518   1 
   9  12   2 30.2458 9.10399   1 
  10  12   2 11.3820 8.95762   1 
  11  12   2 1.90611 8.97000   1 
  -6  13   2 24.3876 10.5425   2 
  -5  13   2 0.97789 10.5861   2 
  -4  13   2 -2.7966 7.69353   2 
  -3  13   2 12.4190 8.09624   2 
  -2  13   2 14.6546 7.30953   2 
  -1  13   2 -4.9963 6.77077   2 
  -1  13   2 -14.474 9.84583   1 
   0  13   2 -12.433 9.79522   1 
   0  13   2 17.9286 11.7755   2 
   1  13   2 -9.7203 10.1387   1 
   1  13   2 -4.8859 9.32049   2 
   2  13   2 -10.692 8.86218   2 
   2  13   2 5.24357 11.3553   1 
   3  13   2 61.3437 13.4144   1 
   3  13   2 40.0685 12.0495   2 
   4  13   2 5.11953 9.01269   2 
   4  13   2 -0.1814 11.3204   1 
   5  13   2 25.5089 7.74688   1 
   5  13   2 0.49809 9.60876   2 
   6  13   2 4.95127 7.14407   1 
   6  13   2 -2.3705 8.72839   2 
   7  13   2 13.8603 8.25154   1 
   8  13   2 3.11624 8.06260   1 
   9  13   2 3.70128 8.90260   1 
  10  13   2 8.48056 8.54704   1 
  -5  14   2 1.92149 9.05991   2 
  -4  14   2 -3.6577 12.1668   2 
  -3  14   2 4.04728 7.97720   2 
  -2  14   2 -2.9142 7.10486   2 
  -1  14   2 2.47250 11.1775   2 
   0  14   2 5.04943 11.8706   1 
   0  14   2 2.29384 11.3347   2 
   1  14   2 11.0979 10.8959   2 
   1  14   2 2.55405 11.5727   1 
   2  14   2 8.82895 13.3081   1 
   2  14   2 -2.4474 9.01134   2 
   3  14   2 -8.9079 9.65529   2 
   3  14   2 -2.5493 11.5261   1 
   4  14   2 11.0855 10.7655   2 
   4  14   2 37.4621 13.4392   1 
   5  14   2 0.32330 11.7532   1 
   5  14   2 5.34764 9.74059   2 
   6  14   2 1.37876 12.0706   1 
   2  -7  10 29.0081 22.1752  -2 
   7  14   2 29.0081 22.1752   1 
   8  14   2 4.43443 8.25146   1 
   9  14   2 2.66288 9.22988   1 
  -3  15   2 -9.3060 11.9513   2 
  -2  15   2 11.7992 12.9715   2 
  -1  15   2 18.3184 12.9346   2 
   0  15   2 -10.787 10.7119   2 
   1  15   2 4.42885 11.5283   2 
   1  15   2 3.95822 12.2772   1 
   2  15   2 3.99046 11.8603   1 
   3  15   2 23.7967 12.9098   1 
   3  15   2 -12.457 9.19238   2 
   4  15   2 -12.074 12.5548   1 
   4  15   2 -12.651 9.30563   2 
   5  15   2 -2.1770 12.3863   1 
   5  15   2 -4.6632 11.2306   2 
   6  15   2 25.2218 14.7028   1 
   7  15   2 5.06199 13.3236   1 
   8  15   2 -8.0272 14.1717   1 
   0  16   2 -9.1070 11.6039   2 
   1  16   2 19.9790 12.3248   2 
  -4  -9   9 25.1860 17.9461  -2 
   2  16   2 25.1860 17.9461   1 
   2  16   2 14.4170 12.7720   2 
   3  16   2 -9.4754 13.5635   1 
   3  16   2 -3.7088 10.6046   2 
   4  16   2 15.7985 14.5646   1 
   4  16   2 5.14248 11.6195   2 
   5  16   2 -8.8209 13.8543   1 
  -4 -14   3 -1.0288 13.3005   1 
  -3 -14   3 -24.034 11.6396   1 
  -2 -14   3 -4.9863 13.8551   1 
  -1 -14   3 -26.829 12.8691   1 
   0 -14   3 -9.4859 9.96575   2 
   0 -14   3 -13.597 13.7193   1 
   1 -14   3 -20.252 13.6403   1 
   1 -14   3 3.12396 11.8802   2 
  -7 -13   3 -6.0301 12.9560   1 
  -6 -13   3 -6.8054 12.8887   1 
  -5 -13   3 3.30216 13.0606   1 
  -4 -13   3 -2.0364 11.8652   1 
  -3 -13   3 6.73052 13.3189   1 
  -3  -4  12 24.1213 25.8091  -2 
  -2 -13   3 24.1213 25.8091   1 
  -1 -13   3 -5.0364 11.7405   1 
  -1 -13   3 -5.2833 10.5533   2 
   0 -13   3 11.9056 11.7941   2 
   0 -13   3 -0.2006 11.8725   1 
   1 -13   3 9.66237 9.09829   2 
   1 -13   3 -13.148 13.2106   1 
   2 -13   3 4.26580 13.1807   1 
   2 -13   3 -7.8714 11.5461   2 
   3 -13   3 -9.1017 12.1053   1 
   3 -13   3 -1.0194 9.22091   2 
  -8 -12   3 4.45560 12.1005   1 
  -7 -12   3 9.16310 13.5101   1 
  -6 -12   3 22.6559 13.8234   1 
  -5 -12   3 -6.5250 11.4043   1 
  -4 -12   3 -3.6708 11.7935   1 
  -3 -12   3 21.3460 13.7746   1 
  -2 -12   3 11.2810 13.1511   1 
  -2 -12   3 -1.2796 9.04260   2 
  -1 -12   3 11.8468 11.2163   2 
  -1 -12   3 15.5722 11.8412   1 
   0 -12   3 -2.6526 7.31870   2 
   0 -12   3 -18.984 11.0888   1 
   1 -12   3 -2.2495 7.53272   2 
  -6  -4  10 4.54789 18.1378  -2 
   1 -12   3 4.54789 18.1378   1 
   2 -12   3 2.48707 7.70642   2 
   2 -12   3 -1.6001 12.1038   1 
   3 -12   3 2.44435 8.13206   2 
   3 -12   3 -15.356 11.7679   1 
   4 -12   3 -6.7566 8.25711   2 
   4 -12   3 -29.238 11.1412   1 
   5 -12   3 6.68275 9.41325   2 
 -10 -11   3 23.1041 15.4751   1 
  -9 -11   3 5.89856 9.15507   1 
  -8 -11   3 -2.8451 8.54721   1 
  -7 -11   3 5.89831 8.79184   1 
  -6 -11   3 15.3373 12.1446   1 
  -5 -11   3 29.6181 13.2680   1 
  -4 -11   3 -0.7500 11.4314   1 
  -3 -11   3 12.2462 11.9700   1 
  -2 -11   3 -4.6825 6.08441   2 
  -2 -11   3 1.87732 11.9682   1 
  -1 -11   3 -0.0745 11.2689   1 
  -1 -11   3 4.53319 7.59845   2 
   0 -11   3 8.80324 11.9915   1 
   0 -11   3 -3.9890 7.06140   2 
   1 -11   3 1.12493 7.28662   2 
   1 -11   3 7.21429 11.6372   1 
   2 -11   3 -4.1523 6.91949   2 
   2 -11   3 8.62034 11.7942   1 
   3 -11   3 16.4590 8.06857   2 
   3 -11   3 49.5216 13.6441   1 
   4 -11   3 -6.2225 10.9243   1 
   4 -11   3 3.33230 7.92069   2 
   5 -11   3 14.2104 8.29848   2 
   5 -11   3 19.5299 12.3110   1 
   6 -11   3 2.67176 8.00585   2 
   7 -11   3 25.1339 10.4205   2 
 -10 -10   3 -6.0353 8.42920   1 
  -9 -10   3 24.3309 9.44458   1 
  -8 -10   3 15.6669 8.78039   1 
  -7 -10   3 7.15723 8.01725   1 
  -6 -10   3 14.4113 8.08759   1 
  -5 -10   3 14.5869 7.79983   1 
   0  -2  11 102.365 22.6395  -2 
  -4 -10   3 102.365 22.6395   1 
  -3 -10   3 38.3488 11.9800   1 
  -3 -10   3 22.4253 6.42499   2 
  -2 -10   3 -7.1435 10.1410   1 
  -2 -10   3 1.61103 5.98804   2 
  -1 -10   3 -18.580 8.84338   1 
  -1 -10   3 8.61643 6.56715   2 
   0 -10   3 -13.645 8.09448   2 
   0 -10   3 11.5224 11.0636   1 
   1 -10   3 5.00410 9.82944   1 
   2 -10   3 4.36683 6.20495   2 
   2 -10   3 5.68009 10.6693   1 
   3 -10   3 7.35153 6.69621   2 
   3 -10   3 25.3311 11.1820   1 
   4 -10   3 19.0038 11.5102   1 
   4 -10   3 10.2294 7.64079   2 
  -9  -4   7 5.35615 15.4216  -2 
   5 -10   3 5.35615 15.4216   1 
   5 -10   3 7.51333 7.82413   2 
   6 -10   3 -1.7243 8.57712   2 
   6 -10   3 13.6527 11.5795   1 
   7 -10   3 6.74545 9.30429   2 
   8 -10   3 7.48372 10.0168   2 
 -11  -9   3 6.64459 8.71458   1 
 -10  -9   3 29.5280 9.98599   1 
  -9  -9   3 8.02135 8.09133   1 
  -8  -9   3 12.8425 8.16533   1 
  -7  -9   3 10.1892 10.2638   1 
   3  -1  12 -7.9396 16.5666  -2 
  -7  -9   3 -7.9396 16.5666   1 
  -6  -9   3 -4.7546 6.58869   1 
  -5  -9   3 -2.3537 6.40268   1 
  -4  -9   3 17.0539 7.05114   1 
  -4  -9   3 6.78705 8.31150   2 
  -3  -9   3 -11.136 5.39622   1 
  -3  -9   3 3.64403 5.20214   2 
  -2  -9   3 13.6744 5.79619   2 
  -2  -9   3 18.3074 10.1524   1 
  -1  -9   3 8.71581 9.25076   1 
  -1  -9   3 3.22775 5.75808   2 
   0  -9   3 26.3068 6.61656   2 
   0  -9   3 70.9796 11.9400   1 
   1  -9   3 -0.0638 8.57856   1 
   1  -9   3 11.5630 6.25496   2 
   2  -9   3 -5.6928 8.16695   1 
   2  -9   3 -0.3696 6.02231   2 
  -7  -3   7 12.9657 18.7969  -2 
   3  -9   3 12.9657 18.7969   1 
   3  -9   3 5.98200 6.59098   2 
   4  -9   3 1.14359 6.83959   2 
   4  -9   3 1.27818 9.20117   1 
   5  -9   3 0.46990 10.7899   1 
   5  -9   3 6.77332 7.32747   2 
   6  -9   3 4.81362 8.16951   2 
   6  -9   3 4.30127 10.8645   1 
   7  -9   3 18.2043 8.79803   2 
   7  -9   3 12.7838 11.6452   1 
   8  -9   3 -5.1155 8.11515   2 
   9  -9   3 -15.629 8.59295   2 
 -12  -8   3 1.50635 8.55043   1 
 -11  -8   3 14.9336 9.11681   1 
 -10  -8   3 1.34480 8.29214   1 
  -9  -8   3 32.5864 8.51028   1 
  -8  -8   3 45.1644 9.01082   1 
  -7  -8   3 -7.0760 6.19635   1 
  -6  -8   3 8.96016 6.61266   1 
  -5  -8   3 6.97500 6.51609   1 
  -5  -8   3 3.46258 7.70842   2 
  -4  -8   3 8.28716 4.67117   2 
  -4  -8   3 30.4121 6.88599   1 
  -3  -8   3 76.6364 6.72324   2 
  -3  -8   3 179.172 9.44103   1 
  -2  -8   3 0.46703 5.08466   1 
  -2  -8   3 4.02412 5.04734   2 
  -1  -8   3 128.179 8.23222   2 
  -1  -8   3 303.177 16.9933   1 
   0  -8   3 -5.4151 5.98052   2 
   0  -8   3 12.2579 8.83648   1 
   1  -8   3 45.7026 6.69658   2 
   1  -8   3 83.5450 11.5221   1 
   2  -8   3 18.8250 6.17993   2 
   2  -8   3 14.8130 9.82270   1 
   3  -8   3 0.48682 8.73090   1 
   3  -8   3 11.4177 6.26170   2 
   4  -8   3 2.35308 9.40912   1 
   4  -8   3 1.31571 5.99086   2 
   5  -8   3 19.9117 7.31124   2 
   5  -8   3 52.7775 13.0909   1 
   6  -8   3 2.63609 7.11861   2 
   6  -8   3 3.02975 9.76047   1 
   7  -8   3 57.2740 13.2406   1 
   7  -8   3 12.6206 7.99759   2 
   8  -8   3 3.29753 8.45898   2 
   8  -8   3 7.75132 12.0971   1 
   9  -8   3 13.0296 11.5969   2 
  10  -8   3 12.4840 9.63718   2 
 -12  -7   3 21.8511 9.48800   1 
 -11  -7   3 15.1472 9.09264   1 
 -10  -7   3 0.90120 7.53012   1 
  -9  -7   3 25.4313 8.03866   1 
  -8  -7   3 3.98162 6.75469   1 
  -7  -7   3 31.1029 7.65261   1 
  -7  -7   3 2.97420 7.70242   2 
  -6  -7   3 13.1708 7.08420   2 
  -6  -7   3 40.9793 7.71253   1 
  -5  -7   3 36.8407 8.24142   2 
  -5  -7   3 64.1776 7.98556   1 
  -4  -7   3 34.1236 6.59080   1 
  -4  -7   3 12.9285 3.95339   2 
  -3  -7   3 63.5901 5.82019   2 
  -3  -7   3 146.725 8.42334   1 
  -2  -7   3 15.9920 5.09043   2 
  -2  -7   3 44.6819 6.02445   1 
  -1  -7   3 -6.3335 4.65417   2 
  -2  -1   8 122.864 15.4070  -2 
  -1  -7   3 122.864 15.4070   1 
  -1  -7   3 9.42968 5.59898   1 
   0  -7   3 -7.5084 3.40728   1 
   1  -7   3 12.5316 5.40307   2 
   1  -7   3 26.0129 8.34746   1 
   2  -7   3 13.9029 7.85480   1 
   3  -7   3 47.3970 9.39942   2 
  -6  -2   6 146.773 14.4239  -2 
   3  -7   3 146.773 14.4239   1 
   4  -7   3 59.5008 10.8880   1 
   4  -7   3 33.4503 6.98772   2 
   5  -7   3 6.02379 6.57801   2 
   5  -7   3 -1.6658 8.38602   1 
   6  -7   3 5.01600 6.60709   2 
   6  -7   3 41.4693 12.4100   1 
   7  -7   3 -7.3640 10.2899   1 
   7  -7   3 -4.9647 6.72511   2 
   8  -7   3 10.9409 8.03267   2 
   8  -7   3 54.0420 13.2916   1 
   9  -7   3 1.94934 8.41922   2 
   9  -7   3 23.0472 12.0884   1 
  10  -7   3 8.70405 9.04863   2 
 -12  -6   3 6.04101 8.40456   1 
 -11  -6   3 32.3128 8.97898   1 
 -10  -6   3 9.59466 7.47638   1 
   6   1  11 53.8388 11.9281  -2 
  -9  -6   3 53.8388 11.9281   1 
  -8  -6   3 13.4086 7.15846   1 
  -8  -6   3 -9.8756 7.05721   2 
  -7  -6   3 31.3051 7.18102   1 
  -6  -6   3 4.06396 6.37765   2 
  -6  -6   3 23.2704 6.59769   1 
  -5  -6   3 -0.9354 5.68610   1 
  -5  -6   3 -1.5647 6.54876   2 
  -4  -6   3 89.2975 5.47981   2 
  -4  -6   3 222.598 9.74837   1 
  -3  -6   3 14.8367 4.06730   2 
  -3  -6   3 21.6458 5.43371   1 
  -2  -6   3 -7.3441 4.10471   1 
  -2  -6   3 -4.0677 4.06585   2 
  -1  -6   3 1.15660 4.18790   2 
  -1  -6   3 5.17706 3.98648   1 
   0  -6   3 140.195 5.95944   1 
   0  -6   3 54.1909 5.82555   2 
   1  -6   3 50.3406 8.87639   2 
   1  -6   3 9.41757 2.67869   1 
   2  -6   3 127.601 7.92901   2 
   2  -6   3 298.081 14.8755   1 
   3  -6   3 2.48937 5.09475   2 
   3  -6   3 20.3011 8.00806   1 
   4  -6   3 116.082 8.56772   2 
   4  -6   3 268.659 15.8000   1 
   5  -6   3 16.8429 8.44265   1 
   5  -6   3 10.1743 6.02186   2 
   6  -6   3 8.02131 6.39072   2 
   6  -6   3 5.72626 8.87441   1 
   7  -6   3 27.9697 7.65514   2 
   7  -6   3 84.0139 12.4616   1 
   8  -6   3 7.54927 7.85905   2 
   8  -6   3 12.2139 10.1338   1 
   9  -6   3 4.01192 10.9374   1 
   9  -6   3 1.13867 7.87843   2 
  11  -6   3 8.48007 8.65703   2 
 -13  -5   3 6.86342 8.27150   1 
 -12  -5   3 -7.2683 8.83096   1 
 -11  -5   3 21.2633 8.08477   1 
 -10  -5   3 51.8985 9.17390   1 
  -9  -5   3 21.0244 7.01748   1 
  -9  -5   3 -7.5959 7.91711   2 
  -8  -5   3 16.4039 6.44487   1 
  -8  -5   3 17.1441 7.61664   2 
  -7  -5   3 10.8552 5.84657   1 
  -7  -5   3 8.77086 6.60051   2 
  -6  -5   3 27.9884 6.57034   1 
  -6  -5   3 9.06816 6.39374   2 
  -5  -5   3 -5.0017 5.23622   1 
  -5  -5   3 6.11961 2.47000   2 
  -4  -5   3 98.9225 7.36836   1 
  -4  -5   3 36.9133 3.81703   2 
  -3  -5   3 17.0943 5.31061   1 
  -3  -5   3 1.00652 3.54226   2 
  -2  -5   3 501.585 11.3014   1 
  -2  -5   3 227.043 7.83420   2 
  -1  -5   3 2.58752 3.68156   1 
  -1  -5   3 3.52343 3.89843   2 
   0  -5   3 28.9135 3.87469   1 
   0  -5   3 8.41041 4.27799   2 
   1  -5   3 40.2391 5.29986   2 
   1  -5   3 84.3012 4.13281   1 
   2  -5   3 203.460 12.4886   1 
   2  -5   3 101.325 7.05051   2 
   3  -5   3 226.656 13.6778   1 
   3  -5   3 100.026 7.23549   2 
   4  -5   3 -7.1003 4.95253   2 
   4  -5   3 -11.697 6.87980   1 
   5  -5   3 18.9832 5.68687   2 
   5  -5   3 67.2404 9.37691   1 
   6  -5   3 7.41934 6.08348   2 
   6  -5   3 25.8305 8.97843   1 
   7  -5   3 16.9385 6.69256   2 
   7  -5   3 37.9446 10.1424   1 
   8  -5   3 3.82728 6.84971   2 
   8  -5   3 15.6349 9.66906   1 
 -11  -2   2 55.9553 18.4164  -2 
   9  -5   3 55.9553 18.4164   1 
   9  -5   3 11.9499 9.90609   2 
  10  -5   3 -7.1128 7.29178   2 
  10  -5   3 1.50085 10.2379   1 
  11  -5   3 5.73372 8.80882   2 
  12  -5   3 19.9307 9.85211   2 
 -13  -4   3 0.35224 8.38500   1 
 -12  -4   3 46.9060 9.44102   1 
 -11  -4   3 7.71627 9.24066   1 
 -11  -4   3 15.4507 10.8597   2 
   8   2  10 1.67706 10.0567  -2 
 -10  -4   3 1.67706 10.0567   1 
 -10  -4   3 -2.0784 9.30160   2 
  -9  -4   3 77.2809 8.66824   1 
  -9  -4   3 41.6153 9.86746   2 
  -8  -4   3 12.6508 6.52378   1 
  -8  -4   3 11.2044 7.35113   2 
  -7  -4   3 9.28194 5.75570   1 
  -7  -4   3 4.38404 6.99907   2 
  -6  -4   3 51.7300 7.74616   2 
  -6  -4   3 111.781 8.26321   1 
  -5  -4   3 21.8659 5.63560   1 
  -5  -4   3 11.6663 6.38718   2 
  -4  -4   3 92.4543 3.86236   2 
  -4  -4   3 137.547 7.78875   1 
  -3  -4   3 252.669 6.40451   2 
  -3  -4   3 531.566 11.9255   1 
  -2  -4   3 -3.1974 3.41160   2 
  -2  -4   3 0.10093 4.04261   1 
  -1  -4   3 342.801 8.37375   2 
  -1  -4   3 745.906 11.8100   1 
   0  -4   3 35.6903 6.02240   2 
   0  -4   3 82.7415 4.62106   1 
   1  -4   3 143.519 6.87848   2 
   1  -4   3 291.777 6.25380   1 
   2  -4   3 -4.0162 4.10125   2 
   2  -4   3 -2.2710 2.22588   1 
   3  -4   3 42.4392 3.28156   1 
   4  -4   3 77.4980 4.55070   1 
   4  -4   3 25.8996 5.57374   2 
   5  -4   3 223.285 7.73732   1 
   5  -4   3 54.9986 7.04473   2 
   6  -4   3 -1.7581 5.40758   2 
   6  -4   3 18.9930 4.94964   1 
   7  -4   3 28.9392 6.82069   2 
   7  -4   3 58.9940 6.79329   1 
   8  -4   3 19.9581 7.18216   2 
   8  -4   3 55.1182 10.9567   1 
   9  -4   3 18.6160 7.44577   2 
   9  -4   3 85.7110 12.6705   1 
  10  -4   3 15.9698 7.96595   2 
  10  -4   3 45.8651 11.5239   1 
  11  -4   3 20.4124 9.08506   2 
  11  -4   3 40.4275 10.9719   1 
  12  -4   3 11.0918 8.34640   2 
 -13  -3   3 30.4619 9.27262   1 
 -12  -3   3 8.94076 13.4779   2 
 -12  -3   3 4.93340 7.46405   1 
 -11  -3   3 17.5347 7.27350   1 
 -11  -3   3 33.8592 13.0178   2 
 -10  -3   3 7.25291 6.74333   1 
 -10  -3   3 -0.3663 10.3685   2 
  -9  -3   3 30.4219 9.79056   2 
  -9  -3   3 46.1932 7.80737   1 
  -8  -3   3 -5.7821 5.49916   1 
  -8  -3   3 4.67180 7.62498   2 
  -7  -3   3 271.834 10.9630   1 
  -7  -3   3 120.360 10.3736   2 
  -6  -3   3 -0.1399 5.05888   1 
  -5  -3   3 602.573 13.1987   1 
  -5  -3   3 297.752 12.0983   2 
  -4  -3   3 153.300 7.72031   1 
  -4  -3   3 84.5270 7.75258   2 
  -3  -3   3 232.066 8.30642   1 
  -3  -3   3 103.890 3.74534   2 
  -2  -3   3 77.1341 4.14371   2 
  -2  -3   3 141.784 6.65926   1 
  -1  -3   3 8.60121 3.62328   1 
  -1  -3   3 23.2855 3.74125   2 
   0  -3   3 245.836 6.62321   1 
   0  -3   3 117.441 6.78706   2 
   1  -3   3 -0.9334 2.85917   1 
   1  -3   3 -0.2869 2.97419   2 
   2  -3   3 15.8531 3.00360   1 
   2  -3   3 -2.3922 3.28396   2 
   3  -3   3 50.0753 4.50998   2 
   3  -3   3 122.895 5.02751   1 
   4  -3   3 20.4804 4.10322   2 
   4  -3   3 71.6268 4.98733   1 
   5  -3   3 96.7326 5.96523   1 
   5  -3   3 33.0395 4.72290   2 
   6  -3   3 107.689 6.69578   2 
   6  -3   3 250.751 9.03064   1 
   7  -3   3 5.85347 4.58565   2 
   7  -3   3 24.4996 6.02418   1 
   8  -3   3 72.7465 6.95513   2 
   8  -3   3 167.063 8.95613   1 
   9  -3   3 39.1991 7.86817   2 
   9  -3   3 43.0337 7.90336   1 
  10  -3   3 71.5774 12.5677   1 
  10  -3   3 41.2593 12.1028   2 
  11  -3   3 12.2897 10.0633   1 
  11  -3   3 20.3288 8.28071   2 
  12  -3   3 1.59825 9.82226   1 
  12  -3   3 9.15710 7.71518   2 
  13  -3   3 -10.782 7.94241   2 
 -13  -2   3 23.3860 13.9194   2 
 -13  -2   3 -32.827 10.6427   1 
 -12  -2   3 6.29088 7.26937   1 
 -12  -2   3 10.9077 13.1693   2 
 -11  -2   3 -12.066 10.3671   2 
 -11  -2   3 23.3802 7.36708   1 
 -10  -2   3 18.5851 10.4826   1 
 -10  -2   3 16.1475 10.0692   2 
  -9  -2   3 76.9985 8.24463   1 
  -9  -2   3 38.2587 9.67853   2 
  -8  -2   3 31.7806 8.32111   2 
  -8  -2   3 78.6835 8.14660   1 
  -7  -2   3 15.8660 3.95262   2 
  -7  -2   3 37.6168 6.20509   1 
  -6  -2   3 161.430 5.48537   2 
  -6  -2   3 333.363 10.4551   1 
  -5  -2   3 437.788 11.1836   1 
  -5  -2   3 202.748 11.0670   2 
  -4  -2   3 42.1861 6.92608   2 
  -4  -2   3 95.6609 6.42755   1 
  -3  -2   3 100.937 6.04884   1 
  -3  -2   3 57.6371 6.61296   2 
  -2  -2   3 16.9675 2.45374   2 
  -2  -2   3 39.8111 4.64729   1 
  -1  -2   3 10.9408 3.46298   1 
  -1  -2   3 -0.8873 2.27478   2 
   0  -2   3 53.9073 4.36672   2 
   0  -2   3 145.290 8.69909   1 
  -1   1   4 258.756 10.4833  -2 
   0  -2   3 258.756 10.4833   1 
   1  -2   3 73.0628 4.20821   1 
   1  -2   3 28.2920 4.29790   2 
   2  -2   3 209.193 10.2459   1 
   2  -2   3 97.6291 5.71444   2 
   3  -2   3 17.2329 4.47532   2 
   3  -2   3 42.7458 4.06603   1 
   4  -2   3 177.679 6.82081   1 
   4  -2   3 80.7624 6.27483   2 
   5  -2   3 129.598 7.52651   2 
   5  -2   3 330.664 13.4677   1 
  -6   0   2 416.728 14.6518  -2 
   5  -2   3 416.728 14.6518   1 
   6  -2   3 36.0185 6.10736   2 
   6  -2   3 113.920 7.01897   1 
   7  -2   3 182.556 8.59980   1 
   7  -2   3 64.3422 5.99318   2 
   8  -2   3 -0.5971 5.06729   1 
   9  -2   3 30.6622 5.89475   2 
  10   1   0 147.035 19.2990  -2 
   9  -2   3 147.035 19.2990   1 
   9  -2   3 50.9101 6.95529   1 
  10  -2   3 6.96115 5.00495   1 
  10  -2   3 4.95296 5.78115   2 
  11  -2   3 16.0086 5.77627   1 
  11  -2   3 7.80711 7.61568   2 
  12  -2   3 7.05397 8.23269   2 
  12  -2   3 -7.8794 9.33590   1 
  13  -2   3 4.39103 8.12586   2 
 -13  -1   3 7.84009 13.2419   1 
  11   4   9 11.8592 16.9510  -2 
 -12  -1   3 11.8592 16.9510   1 
 -12  -1   3 15.0179 12.9189   2 
 -11  -1   3 46.8199 8.16106   1 
 -11  -1   3 29.4661 12.6163   2 
 -10  -1   3 34.6998 11.8248   2 
 -10  -1   3 64.6038 8.71345   1 
  -9  -1   3 17.2423 8.82401   2 
  -9  -1   3 7.48821 6.03041   1 
  -8  -1   3 68.6945 5.93039   2 
  -8  -1   3 171.561 9.51156   1 
  -7  -1   3 111.255 12.5572   1 
  -7  -1   3 38.6707 4.59913   2 
  -6  -1   3 173.010 8.13345   1 
  -6  -1   3 82.3781 4.70728   2 
  -5  -1   3 -1.2437 2.54879   2 
  -5  -1   3 4.17319 4.15959   1 
  -4  -1   3 53.0415 4.94755   1 
  -4  -1   3 14.4110 2.00319   2 
  -3  -1   3 276.126 11.2036   2 
  -3  -1   3 620.947 11.0031   1 
  -2  -1   3 646.679 7.22649   2 
  -2  -1   3 1332.91 15.3457   1 
  -1  -1   3 264.365 6.82935   1 
  -1  -1   3 190.728 6.38708   2 
   0  -1   3 84.5276 4.63312   2 
   0  -1   3 181.820 5.89373   1 
   1  -1   3 142.137 6.00651   2 
   1  -1   3 301.187 6.65593   1 
   2  -1   3 62.2746 4.08973   1 
   2  -1   3 29.4306 4.40569   2 
   3  -1   3 62.6651 5.23649   2 
   3  -1   3 132.421 5.55334   1 
   4  -1   3 -1.8285 3.59276   1 
   4  -1   3 -2.7647 3.63365   2 
   5  -1   3 64.4440 4.52073   1 
   5  -1   3 32.7367 5.10521   2 
   6  -1   3 34.2505 4.39556   1 
   6  -1   3 13.9714 4.95166   2 
   7  -1   3 32.3563 4.59656   1 
   7  -1   3 11.8853 5.31355   2 
   8  -1   3 13.5682 3.97301   1 
   8  -1   3 12.9924 6.40499   2 
   9  -1   3 24.0435 4.41458   1 
   9  -1   3 9.87027 4.98174   2 
  10  -1   3 6.10946 5.02164   2 
  10  -1   3 16.9436 4.76672   1 
  11  -1   3 53.7251 5.91919   1 
  11  -1   3 10.3353 5.92133   2 
  12  -1   3 -1.3225 4.70430   1 
  12  -1   3 1.98079 7.21190   2 
  13  -1   3 10.9075 8.40091   2 
  13  -1   3 17.2916 8.08767   1 
 -13   0   3 4.47554 12.1997   1 
 -12   0   3 72.6748 15.8782   1 
 -12   0   3 36.1197 14.3505   2 
 -11   0   3 -2.7106 11.3306   2 
 -11   0   3 7.40198 6.43315   1 
 -10   0   3 -0.6771 11.3776   2 
 -10   0   3 11.8643 6.32313   1 
  -9   0   3 39.1848 10.7855   2 
  -9   0   3 66.0157 7.67562   1 
  -8   0   3 -2.6267 4.60128   1 
  -8   0   3 -2.9867 4.83974   2 
  -7   0   3 42.3529 5.14579   2 
  -7   0   3 94.5461 6.95740   1 
  -6   0   3 55.9412 5.71697   1 
  -6   0   3 31.9060 4.55441   2 
  -5   0   3 6.80712 4.02574   1 
  -5   0   3 12.0564 3.38429   2 
  -4   0   3 160.790 6.53612   1 
  -4   0   3 91.3117 4.19947   2 
  -3   0   3 36.9816 4.18665   1 
  -3   0   3 24.0528 2.74371   2 
  -2   0   3 46.2870 3.07721   2 
  -2   0   3 85.7489 4.96794   1 
  -1   0   3 1276.26 13.3251   1 
  -1   0   3 590.105 7.64366   2 
   0   0   3 616.535 8.51803   2 
   0   0   3 1293.88 13.1671   1 
   1   0   3 12.4223 3.19515   1 
   1   0   3 15.6801 4.78846   2 
   2   0   3 0.67323 3.40101   2 
   2   0   3 8.32556 3.18872   1 
   3   0   3 680.361 8.86530   1 
   3   0   3 326.361 8.18661   2 
   4   0   3 3.63683 4.07849   2 
   4   0   3 6.24619 3.94399   1 
   5   0   3 19.5520 4.71243   2 
   5   0   3 50.0158 5.31977   1 
   6   0   3 5.49789 4.32751   2 
   6   0   3 11.2050 3.90071   1 
   7   0   3 57.6601 5.22012   1 
   7   0   3 37.2680 5.61352   2 
   8   0   3 2.93492 4.17798   1 
   8   0   3 0.84549 4.74686   2 
   9   0   3 60.3873 6.06838   1 
   9   0   3 25.5697 6.35111   2 
  10   0   3 19.6115 6.30265   2 
  10   0   3 45.2984 7.67113   1 
  11   0   2 -0.4684 14.7543  -2 
  11   0   3 -0.4684 14.7543   1 
  11   0   3 18.4319 5.59976   2 
  12   0   3 45.6306 7.13974   1 
  12   0   3 26.8118 6.57753   2 
  13   0   3 -6.0717 5.53701   1 
  13   0   3 -14.834 8.98991   2 
  14   0   3 41.3854 14.3411   2 
  14   0   3 21.4645 13.5934   1 
 -13   1   3 19.2824 14.0247   1 
 -13   1   3 15.6259 13.4783   2 
 -12   1   3 -12.530 11.2177   1 
 -12   1   3 7.18621 12.4972   2 
 -11   1   3 42.7723 13.6781   2 
 -11   1   3 71.8729 14.7092   1 
 -10   1   3 -5.1526 5.62270   1 
 -10   1   3 5.27908 10.0103   2 
  -9   1   3 3.95414 5.23731   1 
  -9   1   3 5.98460 5.41252   2 
  -8   1   3 8.55610 5.65746   1 
  -8   1   3 9.22793 5.08977   2 
  -7   1   3 173.682 8.04619   1 
  -7   1   3 81.5842 6.34636   2 
  -6   1   3 4.20960 4.02573   1 
  -5   1   3 768.276 12.4262   1 
  -5   1   3 351.129 8.53223   2 
  -4   1   3 113.763 5.65571   1 
  -4   1   3 51.9161 4.20915   2 
  -3   1   3 175.197 5.58058   2 
  -3   1   3 379.506 7.43281   1 
  -2   1   3 36.7069 3.42716   2 
  -2   1   3 59.4660 3.74274   1 
  -1   1   3 5.79586 2.83610   1 
  -1   1   3 3.88117 3.15947   2 
   0   1   3 563.405 8.08706   2 
   0   1   3 1130.70 11.4911   1 
   1   1   3 57.1253 3.90161   2 
   1   1   3 107.305 3.78819   1 
   2   1   3 1713.94 16.6816   1 
   2   1   3 746.212 10.0276   2 
  -3   2   1 2676.42 23.7434  -2 
   3   1   3 2676.42 23.7434   1 
   3   1   3 1187.32 13.8181   2 
   4   1   3 419.438 8.91094   2 
   4   1   3 1022.86 14.5608   1 
   5   1   3 2.81111 3.30681   1 
   5   1   3 -2.3390 4.08225   2 
   6   1   3 585.959 10.4772   1 
   6   1   3 250.421 8.68067   2 
   7   1   3 23.7340 7.53584   1 
   7   1   3 14.0381 5.08979   2 
   7  -1   1 -0.5357 12.9181  -2 
   7   1   3 -0.5357 12.9181   1 
   8   1   3 267.097 9.07403   1 
   9   1   3 73.8515 6.52789   1 
  10   1   3 17.9108 5.53477   1 
  10   1   3 8.02821 5.82270   2 
  11   1   3 6.50735 5.84450   1 
  11   1   3 21.7388 6.51360   2 
  12   1   3 -4.5711 5.29177   2 
  12   1   3 6.16682 5.99420   1 
  13   1   3 -7.4606 4.73890   2 
  13   1   3 6.21356 6.62589   1 
  14   1   3 -13.685 9.38027   2 
  14   1   3 11.3539 7.34245   1 
 -13   2   3 -10.275 11.3413   1 
 -13   2   3 -5.8246 13.1246   2 
 -12   2   3 4.25554 11.9634   1 
 -12   2   3 1.45329 13.3703   2 
 -11   2   3 5.79137 12.0534   2 
 -11   2   3 11.9001 11.2857   1 
 -10   2   3 -9.9098 8.93006   1 
 -10   2   3 0.44258 5.71969   2 
  -9   2   3 21.4161 5.81585   1 
  -9   2   3 -3.0350 5.39114   2 
  -8   2   3 27.1255 5.60406   1 
  -8   2   3 7.27395 5.16157   2 
  -7   2   3 37.4838 5.64198   2 
  -7   2   3 80.4130 6.28259   1 
  -6   2   3 601.083 11.4376   1 
  -6   2   3 281.381 9.12284   2 
  -5   2   3 2.88336 3.63477   2 
  -5   2   3 2.05609 3.31040   1 
  -4   2   3 283.589 7.90741   2 
  -4   2   3 619.860 9.36223   1 
  -3   2   3 35.6247 3.17640   1 
  -3   2   3 5.50582 5.12020   2 
  -2   2   3 403.209 5.62628   1 
  -2   2   3 183.342 5.72806   2 
  -1   2   3 217.539 4.48498   1 
  -1   2   3 108.709 4.62378   2 
   0   2   3 58.2201 2.59499   1 
   0   2   3 28.5037 3.77744   2 
   1   2   3 -0.5743 2.71744   2 
   1   2   3 3.64528 2.86624   1 
   2   2   3 33.1491 3.56358   2 
   2   2   3 77.0447 4.70691   1 
   3   2   3 11.4282 3.28932   2 
   3   2   3 25.1377 4.32969   1 
   4   2   3 580.074 11.7188   1 
   4   2   3 244.944 6.79393   2 
   5   2   3 96.0683 5.83831   2 
   5   2   3 200.216 6.83186   1 
   6   2   3 18.9557 4.37178   2 
   6   2   3 44.5458 4.79653   1 
   7   2   3 292.406 8.83995   1 
   7   2   3 182.085 8.10542   2 
   8   2   3 27.0454 5.12649   1 
   8   2   3 16.6531 5.28072   2 
   9   2   3 81.9885 6.86871   1 
   9   2   3 38.0772 6.11198   2 
  10   2   3 9.78520 5.30692   1 
  10   2   3 -6.4391 4.91597   2 
  11   2   3 5.65145 5.45879   1 
  11   2   3 17.9036 9.44549   2 
  12   2   3 7.59093 6.27803   1 
  12   2   3 -6.6129 4.77858   2 
  13   2   3 1.96161 6.73012   1 
  13   2   3 -10.194 4.21879   2 
  14   2   3 5.78046 7.02132   1 
 -13   3   3 5.35506 13.4799   2 
 -13   3   3 1.35872 12.2448   1 
 -12   3   3 -5.4940 11.0342   1 
 -12   3   3 -6.6427 12.2089   2 
 -11   3   3 19.0226 11.2232   1 
 -11   3   3 16.2067 12.1590   2 
 -10   3   3 36.3137 7.85241   2 
 -10   3   3 88.5823 14.5646   1 
  -9   3   3 8.59245 6.19767   2 
  -9   3   3 -3.6350 10.1020   1 
  -8   3   3 188.786 8.83348   1 
  -8   3   3 88.3769 7.93055   2 
  -7   3   3 36.1669 6.05713   2 
  -7   3   3 66.3203 10.6151   1 
  -6   3   3 60.2284 6.21330   2 
  -6   3   3 148.052 6.66238   1 
  -5   3   3 88.2883 5.02327   1 
  -5   3   3 42.3621 5.32199   2 
  -4   3   3 9.13363 2.87568   1 
  -4   3   3 5.15344 3.84858   2 
  -3   3   3 274.218 5.05242   1 
  -3   3   3 137.404 6.29863   2 
  -2   3   3 252.794 7.14455   2 
  -2   3   3 588.570 14.7763   1 
  -1   3   3 375.188 4.88436   1 
  -1   3   3 160.851 6.00975   2 
   0   3   3 106.228 4.92706   2 
   0   3   3 223.660 5.20992   1 
   1   3   3 628.398 9.10864   1 
   1   3   3 315.130 6.61107   2 
   2   3   3 141.494 4.58404   2 
   2   3   3 301.912 7.54656   1 
   3   3   3 113.343 4.51834   2 
   3   3   3 227.199 7.38987   1 
   4   3   3 15.4455 3.24728   2 
   4   3   3 30.2917 4.68899   1 
   5   3   3 670.674 10.9661   1 
   5   3   3 320.761 7.82281   2 
   6   3   3 13.5077 4.21598   1 
   6   3   3 -3.6083 3.99488   2 
   7   3   3 41.3412 5.10421   2 
   7   3   3 69.1458 5.83113   1 
   8   3   3 68.2843 9.83442   2 
   8   3   3 10.4503 4.56482   1 
   9   3   3 6.56652 5.32483   2 
   8  -2   3 5.61308 9.08664  -2 
   9   3   3 5.61308 9.08664   1 
  10   3   3 -0.8198 5.01369   1 
  10   3   3 -5.0388 4.89377   2 
  11   3   3 22.3544 6.32961   2 
  11   3   3 40.0671 6.70964   1 
  12   3   3 8.91544 6.35695   1 
  12   3   3 9.33749 5.92202   2 
  12  -1   5 31.3277 10.7263  -2 
  13   3   3 31.3277 10.7263   1 
  13   3   3 8.93949 10.2378   2 
  14   3   3 20.5854 9.16634   1 
 -12   4   3 10.8346 14.0739   2 
 -12   4   3 26.2530 12.2032   1 
 -11   4   3 20.2285 8.51120   2 
 -11   4   3 13.2057 10.6569   1 
 -10   4   3 7.52928 8.00119   2 
  11   6   5 38.6703 14.3664  -2 
 -10   4   3 38.6703 14.3664   1 
  -9   4   3 61.8215 8.64898   2 
  -9   4   3 131.414 14.8657   1 
  -8   4   3 9.51022 5.04815   2 
  -8   4   3 16.8027 9.12742   1 
  -7   4   3 132.176 5.41118   1 
  -7   4   3 43.6698 7.13605   2 
   7   5   3 20.5658 12.4439  -2 
  -6   4   3 20.5658 12.4439   1 
  -6   4   3 3.81682 4.00097   2 
  -6   4   3 0.48549 2.90900   1 
  -5   4   3 9.70966 4.24746   2 
  -5   4   3 36.1876 3.86944   1 
  -4   4   3 9.28062 2.61235   1 
  -4   4   3 -6.4958 3.38833   2 
  -3   4   3 154.179 3.78933   1 
  -3   4   3 83.8235 5.75034   2 
  -2   4   3 -3.2754 3.02580   2 
  -2   4   3 -0.9132 4.82076   1 
  -1   4   3 138.632 5.99724   2 
  -1   4   3 278.993 5.08425   1 
   0   4   3 47.7782 3.85877   2 
   0   4   3 99.0764 4.42603   1 
   1   4   3 233.992 5.96663   2 
   1   4   3 444.486 8.23219   1 
   2   4   3 28.6628 2.84930   2 
   2   4   3 108.803 7.56290   1 
   3   4   3 13.6951 4.26160   1 
   3   4   3 -0.7847 2.16066   2 
   4   4   3 26.5070 4.71830   1 
   4   4   3 18.2118 2.92415   2 
   5   4   3 -1.4666 3.48831   1 
   5   4   3 -2.4402 3.02047   2 
   6   4   3 111.799 6.25518   1 
   6   4   3 56.8439 4.55698   2 
   7   4   3 52.6424 5.61081   1 
   7   4   3 11.2329 3.96532   2 
   8   4   3 10.4446 4.32330   2 
   8   4   3 28.0741 5.38697   1 
   9   4   3 11.1802 5.08199   1 
   9   4   3 5.84636 4.04607   2 
  10   4   3 71.4224 7.17987   1 
  10   4   3 15.4424 4.85049   2 
  11   4   3 -8.4760 5.32514   2 
  11   4   3 7.29158 5.72189   1 
  12   4   3 59.8025 8.00991   1 
  12   4   3 27.3195 9.91299   2 
  13   4   3 15.2146 7.06481   1 
  14   4   3 12.6476 7.62318   1 
 -12   5   3 4.01019 13.4585   2 
 -11   5   3 27.8783 12.3448   1 
 -11   5   3 14.8380 8.87582   2 
 -10   5   3 14.6839 7.78710   2 
 -10   5   3 3.95749 8.93863   1 
  -9   5   3 6.74663 5.56190   2 
  -9   5   3 -7.7504 8.43690   1 
  -8   5   3 42.2252 9.94851   1 
  -7   5   3 20.0900 5.15868   2 
  -7   5   3 43.2039 9.40127   1 
  -6   5   3 6.75472 4.37853   2 
  -6   5   3 -4.1693 3.41058   1 
  -5   5   3 93.7775 5.95227   2 
  -5   5   3 211.694 6.26636   1 
  -4   5   3 19.3118 4.04305   2 
  -4   5   3 32.7291 3.25941   1 
  -3   5   3 117.869 5.44349   2 
  -3   5   3 270.564 5.57920   1 
  -2   5   3 145.404 4.57377   1 
  -2   5   3 67.0266 5.38182   2 
  -1   5   3 191.829 5.62601   2 
  -1   5   3 412.427 7.11202   1 
   0   5   3 518.374 7.14490   2 
   0   5   3 1082.22 12.2472   1 
   1   5   3 200.449 5.71211   2 
   1   5   3 284.660 7.69697   1 
   2   5   3 19.5362 2.70630   2 
   3   5   3 -1.8417 5.73422   2 
   3   5   3 -2.3081 4.08972   1 
   4   5   3 1.58560 4.06006   1 
   4   5   3 1.04586 6.16120   2 
   5   5   3 22.8514 5.35089   1 
   5   5   3 6.28119 2.45393   2 
   6   5   3 33.3524 2.85358   2 
   6   5   3 68.0686 5.50937   1 
   7   5   3 -2.0641 4.14298   1 
   7   5   3 1.93313 3.04282   2 
   8   5   3 416.611 11.1935   1 
   8   5   3 208.458 7.96132   2 
   9   5   3 29.9595 5.90991   1 
   9   5   3 9.89637 7.73298   2 
  10   5   3 99.3659 8.27531   1 
  10   5   3 38.8742 10.1047   2 
  11   5   3 10.7727 6.18211   1 
  11   5   3 5.75554 9.04378   2 
  12   5   3 11.4473 6.54500   1 
  12   5   3 3.44400 9.16963   2 
  13   5   3 21.6773 7.55017   1 
  14   5   3 7.17084 7.45963   1 
 -12   6   3 0.93855 9.23486   2 
 -11   6   3 4.52123 8.69713   2 
 -10   6   3 -3.0228 6.31909   2 
  -9   6   3 5.96797 6.04247   2 
  -9   6   3 8.13201 9.02245   1 
  -8   6   3 10.3461 5.39790   2 
  -8   6   3 9.77860 8.48399   1 
  -7   6   3 -4.7475 4.76451   2 
  -7   6   3 17.5146 8.23924   1 
  -6   6   3 141.107 7.53984   2 
  -6   6   3 291.955 14.4047   1 
  -5   6   3 41.9906 6.28095   2 
  -5   6   3 62.7300 4.44649   1 
  -4   6   3 554.469 16.3131   1 
  -4   6   3 244.378 9.84132   2 
   6   6   1 548.920 11.2402  -2 
  -4   6   3 548.920 11.2402   1 
  -3   6   3 26.5756 3.44624   1 
  -3   6   3 11.5554 4.92047   2 
  -2   6   3 237.214 8.75208   2 
  -2   6   3 482.221 8.20773   1 
  -1   6   3 186.856 5.96086   1 
  -1   6   3 84.1939 5.52230   2 
   0   6   3 27.1960 3.14766   2 
  -2  -5   1 141.134 10.5604  -2 
   0   6   3 141.134 10.5604   1 
   0   6   3 66.7520 5.99765   1 
   1   6   3 14.9865 3.87615   1 
   1   6   3 -1.2986 2.22765   2 
   2   6   3 -1.3540 3.92930   1 
   2   6   3 -0.2456 2.32184   2 
   3   6   3 12.1978 6.82295   2 
   3   6   3 53.2383 5.60818   1 
   4   6   3 92.0389 10.0866   2 
   4   6   3 210.425 8.79502   1 
   3  -4   3 98.3204 8.97026  -2 
   5   6   3 98.3204 8.97026   1 
   5   6   3 37.6427 7.90447   2 
   6   6   3 113.042 6.52449   1 
   6   6   3 41.9578 3.06494   2 
   7   6   3 156.720 7.77103   1 
   7   6   3 71.4877 4.38969   2 
   8   6   3 9.22716 5.19513   1 
   8   6   3 6.03107 7.40803   2 
   9   6   3 99.5741 7.76896   1 
   9   6   3 57.8132 9.80807   2 
  10   6   3 10.6905 5.61613   1 
  10   6   3 1.27870 7.97212   2 
  11   6   3 28.8255 6.92850   1 
  11   6   3 21.1547 9.09795   2 
  12   6   3 -6.3847 5.97127   1 
  13   6   3 -0.2117 6.76795   1 
  14   6   3 12.2476 8.12969   1 
 -11   7   3 10.8343 8.94225   2 
 -10   7   3 1.85596 6.80741   2 
  -9   7   3 13.3815 6.39271   2 
  -8   7   3 8.96498 5.76669   2 
  -8   7   3 25.6285 9.40107   1 
  -7   7   3 -0.7034 5.15757   2 
  -7   7   3 7.22097 8.07001   1 
  -6   7   3 33.3854 7.11206   2 
  -5   7   3 20.6466 6.31817   2 
  -5   7   3 45.8859 7.81345   1 
  -4   7   3 105.196 5.34854   1 
  -4   7   3 38.6618 6.36189   2 
  -3   7   3 178.229 6.23408   1 
  -3   7   3 79.7378 7.10375   2 
  -2   7   3 32.8967 5.44981   2 
  -2   7   3 70.1078 4.59423   1 
  -1   7   3 6.23162 3.53636   1 
  -1   7   3 0.84511 3.85519   2 
   0   7   3 17.9611 4.07090   2 
   0   7   3 17.3801 3.89415   1 
   1   7   3 39.2098 4.78698   1 
   1   7   3 14.6112 3.48187   2 
   2   7   3 6.48459 4.58946   1 
   2   7   3 -4.6139 2.61321   2 
   3   7   3 191.815 8.11137   1 
   3   7   3 92.9377 9.82017   2 
   4   7   3 8.98771 4.85003   1 
   4   7   3 -4.8385 6.14398   2 
   5   7   3 143.225 11.0564   2 
   5   7   3 294.958 10.6500   1 
   6   7   3 16.8500 7.64811   2 
   6   7   3 21.8273 5.93200   1 
   7   7   3 53.8467 8.91345   2 
   7   7   3 96.3125 6.88148   1 
   8   7   3 34.0885 5.76382   1 
   8   7   3 27.1569 8.30683   2 
   9   7   3 2.02655 5.16664   1 
   9   7   3 -6.3530 6.86197   2 
  10   7   3 0.08256 5.26310   1 
  10   7   3 -2.9217 7.77145   2 
  11   7   3 2.01264 6.02457   1 
  12   7   3 2.83702 6.60100   1 
  13   7   3 3.02560 7.09972   1 
  14   7   3 18.2057 9.09342   1 
 -11   8   3 -7.4401 7.42585   2 
 -10   8   3 10.5150 7.21915   2 
  -9   8   3 1.22396 6.15270   2 
  -8   8   3 14.8015 6.23327   2 
  -6   8   3 -7.0801 6.29348   2 
  -5   8   3 15.0055 6.64576   2 
  -5   8   3 37.0957 7.30176   1 
  -4   8   3 2.50179 3.65800   1 
  -4   8   3 4.81185 5.51511   2 
  -3   8   3 5.16203 5.05367   2 
  -3   8   3 29.8649 5.98258   1 
  -2   8   3 17.4473 5.29384   2 
  -2   8   3 46.9757 4.64494   1 
  -1   8   3 235.404 8.76343   2 
  -1   8   3 526.283 10.0874   1 
   0   8   3 3.15072 3.80908   1 
   0   8   3 12.0560 3.96082   2 
   1   8   3 177.998 6.66870   2 
   1   8   3 390.502 9.71937   1 
   2   8   3 42.6439 3.92345   2 
   2   8   3 102.578 6.79202   1 
   3   8   3 14.9488 2.21078   2 
   3   8   3 26.1807 5.21957   1 
   4   8   3 46.4521 9.04235   2 
   4   8   3 93.8196 7.32033   1 
   5   8   3 29.6647 6.11920   1 
   5   8   3 7.72712 6.94371   2 
   6   8   3 37.4947 8.93270   2 
   6   8   3 82.0675 11.3538   1 
   3  -5   5 157.414 16.6921  -2 
   6   8   3 157.414 16.6921   1 
   7   8   3 -4.4418 5.64964   1 
   8   8   3 -1.7529 6.78974   2 
   8   8   3 -4.0181 4.88031   1 
   9   8   3 -2.2272 7.41312   2 
   9   8   3 -4.8415 5.28400   1 
   7  -4   7 88.7999 17.5014  -2 
  10   8   3 88.7999 17.5014   1 
  10   8   3 2.61159 7.25708   1 
  10   8   3 4.61482 8.16211   2 
   8  -4   7 40.6514 12.3522  -2 
  11   8   3 40.6514 12.3522   1 
  12   8   3 42.4552 8.40088   1 
  13   8   3 7.90564 7.38054   1 
 -10   9   3 -6.5461 8.69605   2 
  -9   9   3 -2.1873 6.28139   2 
  -8   9   3 21.0417 6.82246   2 
  -7   9   3 4.40228 7.43336   2 
  -6   9   3 1.03395 7.08539   2 
  -5   9   3 1.82909 6.63127   2 
  -4   9   3 -7.3430 5.68764   2 
  -3   9   3 11.2082 6.17324   2 
  -3   9   3 21.0125 4.26371   1 
  -2   9   3 34.3799 6.04749   2 
  -2   9   3 73.0310 5.46207   1 
  -1   9   3 6.21199 4.04270   1 
  -1   9   3 3.29777 4.47648   2 
   0   9   3 126.997 7.18220   2 
   0   9   3 297.336 8.90223   1 
   1   9   3 -2.4350 3.66553   2 
   1   9   3 1.17483 4.37105   1 
   2   9   3 45.9667 4.53987   2 
   2   9   3 115.223 7.34126   1 
   3   9   3 -0.6538 1.97672   2 
   0  -6   4 47.6663 12.4965  -2 
   3   9   3 47.6663 12.4965   1 
   4   9   3 31.2540 6.02737   1 
   4   9   3 7.92207 7.90165   2 
   5   9   3 -1.6641 4.88835   1 
   5   9   3 2.17029 7.66096   2 
   6   9   3 36.4273 6.91679   1 
   6   9   3 16.3996 8.05260   2 
   7   9   3 12.4776 6.44523   1 
   7   9   3 5.93847 7.58785   2 
   8   9   3 95.2536 9.63864   1 
   8   9   3 36.3627 9.11917   2 
   9   9   3 4.36052 5.73091   1 
   9   9   3 4.75043 8.09301   2 
  10   9   3 36.1284 7.27455   1 
  11   9   3 25.3334 7.37741   1 
  12   9   3 -3.7129 6.78695   1 
  13   9   3 45.3505 9.20605   1 
  -9  10   3 -14.380 6.45523   2 
  -8  10   3 6.08557 6.82381   2 
  -7  10   3 -4.2172 7.64658   2 
  -6  10   3 2.97252 7.37899   2 
  -5  10   3 16.6636 7.29625   2 
  -4  10   3 42.2352 7.89547   2 
  -3  10   3 0.21367 6.06773   2 
  -2  10   3 271.032 13.5578   1 
  -2  10   3 109.208 10.5605   2 
  -1  10   3 7.23009 5.27795   2 
  -1  10   3 7.84300 4.31337   1 
   0  10   3 16.5473 4.73231   1 
   1  10   3 70.2646 6.51817   1 
   1  10   3 39.5764 5.35087   2 
   2  10   3 0.04054 4.97474   1 
   2  10   3 -7.1407 3.56440   2 
   3  10   3 24.5668 5.92894   1 
   3  10   3 3.27204 7.85643   2 
   4  10   3 10.5099 8.30142   2 
   4  10   3 3.52305 5.96216   1 
   5  10   3 10.8094 5.95175   1 
   5  10   3 27.7892 9.43765   2 
   6  10   3 26.7538 9.21889   2 
   6  10   3 47.4597 7.62391   1 
   7  10   3 41.4122 7.70473   1 
   7  10   3 26.6817 8.49463   2 
   8  10   3 7.55568 7.07104   1 
   8  10   3 8.37957 8.27534   2 
   9  10   3 8.21188 7.69451   2 
   9  10   3 45.2715 9.00145   1 
  10  10   3 9.61766 10.9153   1 
  11  10   3 0.25261 8.31671   1 
  12  10   3 25.3442 9.86895   1 
  13  10   3 -10.247 13.6176   1 
  -9  11   3 3.23231 7.82003   2 
  -8  11   3 8.92843 7.18877   2 
  -7  11   3 -2.2379 8.95208   2 
  -6  11   3 23.8409 14.0653   2 
  -5  11   3 11.7767 8.85790   2 
  -4  11   3 -3.4928 6.71521   2 
  -3  11   3 59.7335 9.33784   2 
  -2  11   3 7.36340 5.79594   2 
  -1  11   3 10.8547 8.61432   1 
  -1  11   3 -1.4785 5.69388   2 
   0  11   3 -0.3988 5.07543   2 
   0  11   3 -3.7289 8.11815   1 
   1  11   3 7.36530 5.31004   1 
   1  11   3 1.01558 4.84593   2 
   2  11   3 9.03566 5.58603   1 
   2  11   3 -2.8643 7.59858   2 
   3  11   3 13.7346 6.38867   1 
   3  11   3 3.57930 8.24106   2 
   4  11   3 24.0726 6.64607   1 
   4  11   3 14.8768 8.87562   2 
   5  11   3 -10.266 7.34200   2 
   5  11   3 -1.9142 6.14534   1 
   6  11   3 11.2586 6.71153   1 
   7  11   3 -1.0287 6.85750   1 
   7  11   3 -0.2913 7.90607   2 
   8  11   3 5.46371 7.17724   1 
   5  -6   8 -3.1379 11.7523  -2 
   9  11   3 -3.1379 11.7523   1 
  10  11   3 2.00991 8.02659   1 
  11  11   3 -8.1628 8.07899   1 
  12  11   3 -10.986 8.66249   1 
  -8  12   3 6.02625 7.75146   2 
  -7  12   3 21.9303 9.86987   2 
  -6  12   3 -2.8658 8.39466   2 
  -5  12   3 7.19655 7.93317   2 
  -4  12   3 6.79845 7.45811   2 
  -3  12   3 3.48259 6.94125   2 
  -2  12   3 -10.725 5.91646   2 
  -1  12   3 16.7373 9.61145   1 
  -1  12   3 4.62461 10.1530   2 
   0  12   3 2.57315 5.78622   2 
   0  12   3 7.19405 9.21193   1 
  -3  -8   5 35.8200 16.5925  -2 
   1  12   3 35.8200 16.5925   1 
   1  12   3 23.6530 10.0969   2 
   2  12   3 -9.1772 7.85072   2 
   2  12   3 -5.3181 8.86843   1 
   3  12   3 17.7500 6.56275   1 
   3  12   3 -6.5738 8.11032   2 
   4  12   3 24.7817 6.91977   1 
   4  12   3 7.34670 9.05450   2 
   5  12   3 -13.281 8.17302   2 
   5  12   3 14.4579 7.37335   1 
   6  12   3 13.8066 7.28853   1 
   6  12   3 5.30319 9.03171   2 
   7  12   3 1.04293 9.12594   2 
   7  12   3 -12.243 9.70739   1 
   8  12   3 34.4252 9.34521   1 
   9  12   3 19.3502 8.48768   1 
  10  12   3 1.86467 8.13851   1 
  11  12   3 3.27905 8.52190   1 
  -7  13   3 4.07162 11.2999   2 
  -6  13   3 12.1273 9.35069   2 
  -5  13   3 8.89212 8.80262   2 
  -4  13   3 10.2122 8.42363   2 
  -3  13   3 9.11827 7.74155   2 
  -2  13   3 1.87826 7.11908   2 
  -1  13   3 1.52928 8.90602   2 
   0  13   3 20.2876 11.8058   2 
   0  13   3 18.0394 10.4199   1 
   1  13   3 30.8371 11.1623   1 
   1  13   3 19.5415 11.1479   2 
   2  13   3 111.344 14.2762   1 
   2  13   3 81.8101 13.4102   2 
   3  13   3 5.96473 9.81604   2 
   3  13   3 -3.5405 10.4553   1 
   4  13   3 -5.8261 8.60299   2 
   4  13   3 15.2475 7.42143   1 
   5  13   3 -6.9856 7.44174   1 
   5  13   3 7.99005 10.6871   2 
   6  13   3 -3.8239 7.12757   1 
   6  13   3 9.39960 9.97914   2 
   7  13   3 15.7650 7.59386   1 
   7  13   3 9.81052 9.29856   2 
   3  -7   9 -16.972 21.0182  -2 
   8  13   3 -16.972 21.0182   1 
   8  13   3 8.07160 11.0181   1 
   9  13   3 -4.5430 8.58110   1 
  10  13   3 13.7914 9.48923   1 
  11  13   3 2.36279 12.7357   1 
  -5  14   3 1.96432 8.82203   2 
  -4  14   3 9.75839 12.9687   2 
  -3  14   3 -4.1655 7.61548   2 
  -2  14   3 -7.1126 9.56286   2 
  -1  14   3 -7.8598 9.75504   2 
   0  14   3 5.39214 12.5061   2 
   1  14   3 22.7902 11.6277   1 
   1  14   3 5.16112 10.6532   2 
   2  14   3 2.83402 10.2596   2 
   2  14   3 42.6778 13.3322   1 
   3  14   3 23.8980 12.3237   1 
   3  14   3 24.8226 11.5301   2 
   4  14   3 34.1447 13.4938   1 
   4  14   3 16.8681 11.0201   2 
   5  14   3 -10.083 11.4579   1 
   5  14   3 -5.1841 9.74077   2 
   6  14   3 13.6406 12.7688   1 
   6  14   3 7.78932 10.4210   2 
   7  14   3 7.07121 8.72932   1 
   8  14   3 0.49185 8.72959   1 
   9  14   3 22.6705 9.49822   1 
  -4  15   3 -6.5650 8.68536   2 
  -3  15   3 0.39202 12.2645   2 
  -2  15   3 5.38908 11.4934   2 
  -1  15   3 2.50855 12.0220   2 
   0  15   3 4.70138 12.3104   2 
   1  15   3 -9.5815 10.6963   2 
   1  15   3 -5.1435 10.8821   1 
   2  15   3 -1.9410 11.9521   1 
   2  15   3 -7.3888 10.2650   2 
   3  15   3 -8.5121 10.3530   2 
   3  15   3 6.97290 12.3922   1 
   4  15   3 -5.2593 10.3759   2 
   4  15   3 10.1981 12.6780   1 
   5  15   3 10.2996 13.0413   1 
   5  15   3 2.42208 10.3577   2 
   6  15   3 12.8730 14.3892   1 
   6  15   3 13.4311 11.8243   2 
   7  15   3 -8.7752 12.3115   1 
   8  15   3 -1.2900 14.2931   1 
  -1  16   3 -13.370 12.1784   2 
   0  16   3 1.87596 11.9657   2 
   1  16   3 -14.816 10.9998   2 
   2  16   3 2.49009 12.3349   1 
   2  16   3 -19.001 9.87810   2 
   3  16   3 -2.8105 12.0546   2 
   4  16   3 -13.919 10.5248   2 
   4  16   3 2.78778 13.7130   1 
   5  16   3 -19.331 13.0856   1 
   5  16   3 7.57827 12.1617   2 
   6  16   3 10.9601 15.5749   1 
  -5 -13   4 -18.338 16.1450   1 
  -4 -13   4 1.34577 14.4318   1 
  -3 -13   4 9.13855 14.1799   1 
  -2 -13   4 -5.8542 13.1986   1 
  -1 -13   4 -32.360 10.5496   1 
   0 -13   4 -11.030 14.1125   1 
   0 -13   4 0.05516 11.1388   2 
   1 -13   4 4.98228 12.2306   2 
   1 -13   4 -1.6057 13.7129   1 
   2 -13   4 16.3375 13.9004   1 
   2 -13   4 10.0043 8.87078   2 
  -7 -12   4 10.6660 14.0925   1 
  -6 -12   4 9.24207 13.6244   1 
  -5 -12   4 2.20051 13.2176   1 
  -4 -12   4 16.2221 13.3641   1 
  -3 -12   4 5.58872 12.4423   1 
  -2 -12   4 -2.9011 12.4161   1 
  -4  -3  12 -9.8337 16.8602  -2 
  -1 -12   4 -9.8337 16.8602   1 
  -1 -12   4 -11.581 8.71508   2 
   0 -12   4 28.2259 13.2409   1 
   1 -12   4 -12.041 12.9810   1 
   1 -12   4 -1.1205 7.46975   2 
   2 -12   4 2.61487 7.98071   2 
   2 -12   4 18.7431 14.1157   1 
   3 -12   4 -6.0147 8.22803   2 
   3 -12   4 20.3653 14.0619   1 
   4 -12   4 15.6779 15.0486   1 
   4 -12   4 17.6828 9.54199   2 
   4  -1  15 -7.1913 19.7487  -2 
  -9 -11   4 -7.1913 19.7487   1 
  -9 -11   4 -14.814 12.3095   1 
  -8 -11   4 14.5082 9.58031   1 
  -7 -11   4 8.77712 12.2772   1 
  -6 -11   4 1.35094 12.6388   1 
  -5 -11   4 0.08787 11.4690   1 
  -4 -11   4 18.3748 12.5252   1 
  -3 -11   4 1.60573 11.8648   1 
  -2 -11   4 7.35570 10.5731   2 
  -2 -11   4 11.3632 11.3824   1 
  -1 -11   4 5.97063 7.19582   2 
  -1 -11   4 -3.3335 11.1519   1 
   0 -11   4 79.1328 14.5118   1 
   0 -11   4 33.2337 8.36606   2 
   1 -11   4 -8.1331 7.00757   2 
   1 -11   4 -2.9793 11.2367   1 
   2 -11   4 4.10450 7.64656   2 
   2 -11   4 -13.139 11.4273   1 
   3 -11   4 21.6779 8.28831   2 
   3 -11   4 38.1851 13.2864   1 
   4 -11   4 2.27478 8.16171   2 
   4 -11   4 -15.228 9.79759   1 
   5 -11   4 25.2897 9.54452   2 
   6 -11   4 1.10688 13.1721   1 
   6 -11   4 -1.2678 9.03337   2 
 -10 -10   4 10.1049 10.1510   1 
  -9 -10   4 -0.5407 9.13428   1 
  -8 -10   4 -0.2163 8.43576   1 
  -7 -10   4 8.52259 8.52306   1 
  -6 -10   4 18.6961 8.47198   1 
  -5 -10   4 3.55517 11.5317   1 
  -4 -10   4 9.59519 10.5927   1 
  -3 -10   4 13.5310 9.43531   2 
  -3 -10   4 9.07787 11.3705   1 
  -2 -10   4 3.73234 6.87533   2 
  -2 -10   4 10.2376 11.0154   1 
  -1 -10   4 35.3417 7.50279   2 
  -1 -10   4 65.8440 14.0255   1 
   0 -10   4 6.30407 6.61118   2 
   0 -10   4 4.05760 10.5916   1 
   1 -10   4 8.08439 6.94723   2 
   1 -10   4 19.2347 11.2717   1 
   2 -10   4 28.5421 15.3720   1 
   2 -10   4 11.5446 6.79806   2 
   3 -10   4 -6.8040 6.49037   2 
   3 -10   4 20.7248 11.2671   1 
   4 -10   4 -2.4161 10.7156   1 
   4 -10   4 6.25468 7.54742   2 
   5 -10   4 14.2978 9.10949   2 
   5 -10   4 22.3231 12.5239   1 
   6 -10   4 1.50604 12.6750   1 
   6 -10   4 0.16632 8.62336   2 
   7 -10   4 6.93521 13.8614   1 
   7 -10   4 -3.1417 9.27638   2 
 -11  -9   4 -2.7877 15.9099   1 
   6   0  14 -17.977 15.8577  -2 
 -10  -9   4 -17.977 15.8577   1 
  -9  -9   4 -3.0951 7.93924   1 
  -8  -9   4 3.97117 8.27633   1 
  -7  -9   4 27.4901 12.3931   1 
   3   0  13 55.2794 20.5234  -2 
  -7  -9   4 55.2794 20.5234   1 
  -6  -9   4 4.20883 7.19887   1 
  -5  -9   4 30.7185 7.88872   1 
  -4  -9   4 13.7005 8.72616   2 
  -4  -9   4 1.17721 6.61554   1 
  -1  -1  11 139.521 18.3863  -2 
  -3  -9   4 139.521 18.3863   1 
  -3  -9   4 17.1103 9.54779   2 
  -2  -9   4 23.4922 10.5070   1 
  -2  -9   4 15.7172 6.06546   2 
  -1  -9   4 -1.4141 8.32382   2 
  -1  -9   4 15.6057 10.2859   1 
   0  -9   4 5.03810 6.50551   2 
   0  -9   4 1.52519 9.33495   1 
  -5  -2   9 -1.6156 14.7552  -2 
   1  -9   4 -1.6156 14.7552   1 
   2  -9   4 5.43798 10.0420   1 
   2  -9   4 1.69136 6.33792   2 
   3  -9   4 2.82454 6.17733   2 
   3  -9   4 16.9744 10.5572   1 
   4  -9   4 16.4443 7.54773   2 
   4  -9   4 56.0192 12.9433   1 
   5  -9   4 -12.344 11.0807   1 
   5  -9   4 -2.1668 7.48996   2 
   6  -9   4 -0.3347 7.98834   2 
   6  -9   4 5.38688 12.0504   1 
   7  -9   4 14.6731 12.7781   1 
   7  -9   4 8.82185 8.78227   2 
   8  -9   4 21.4817 9.56511   2 
   8  -9   4 93.3934 16.2121   1 
 -11  -8   4 -8.4174 8.27641   1 
 -10  -8   4 -2.3380 8.07054   1 
  -9  -8   4 15.4455 8.57782   1 
  -8  -8   4 30.3577 8.30229   1 
  -7  -8   4 15.9013 7.96417   1 
  -6  -8   4 21.4730 9.66293   2 
  -6  -8   4 32.7800 8.48971   1 
  -5  -8   4 10.9964 8.96981   2 
  -5  -8   4 26.6817 7.48407   1 
  -4  -8   4 -0.2115 6.25298   1 
  -4  -8   4 7.60855 8.59927   2 
  -3  -8   4 -0.6582 5.03554   2 
  -3  -8   4 14.4747 5.97079   1 
  -2  -8   4 24.8807 6.16742   1 
  -2  -8   4 4.06611 8.00006   2 
  -1  -8   4 37.6268 10.0269   1 
  -1  -8   4 21.4107 6.22312   2 
   0  -8   4 7.62152 5.75625   2 
   0  -8   4 2.32529 8.71696   1 
   1  -8   4 -0.5674 8.86726   1 
   1  -8   4 6.02272 5.52408   2 
   2  -8   4 80.6738 12.4002   1 
   2  -8   4 28.1004 6.73734   2 
   3  -8   4 13.2283 9.10346   1 
   3  -8   4 8.56782 6.39525   2 
   4  -8   4 27.9480 7.51728   2 
   4  -8   4 68.8698 12.6230   1 
   5  -8   4 7.08026 6.89448   2 
   5  -8   4 22.4176 11.4438   1 
   6  -8   4 13.8710 8.23191   2 
   6  -8   4 47.6634 13.1937   1 
   7  -8   4 -1.9302 11.8070   1 
   7  -8   4 -1.9015 7.78486   2 
   8  -8   4 0.15733 8.62587   2 
   8  -8   4 -5.8271 12.2294   1 
   9  -8   4 2.62981 11.9274   2 
 -12  -7   4 -0.2397 8.24476   1 
 -11  -7   4 -5.0729 7.95848   1 
 -10  -7   4 14.7747 8.32330   1 
  -9  -7   4 -6.2552 7.00273   1 
  -8  -7   4 89.8661 10.1670   1 
  -7  -7   4 -1.6865 6.63040   1 
  -7  -7   4 1.30497 8.29468   2 
  -6  -7   4 32.3855 7.41741   1 
  -6  -7   4 9.48640 8.29310   2 
  -5  -7   4 6.95831 6.37965   1 
  -5  -7   4 0.51950 7.63088   2 
   1   0  10 -7.9645 10.6939  -2 
  -4  -7   4 -7.9645 10.6939   1 
  -4  -7   4 -2.7369 8.21635   2 
  -3  -7   4 2.01511 4.59095   2 
  -3  -7   4 17.8888 6.14056   1 
  -2  -7   4 80.8779 6.87586   2 
  -2  -7   4 136.612 8.17429   1 
  -1  -7   4 1.09626 4.83079   2 
  -1  -7   4 -2.3618 4.69718   1 
   0  -7   4 54.9648 6.59336   2 
   0  -7   4 106.474 11.5709   1 
   1  -7   4 33.9004 6.47628   2 
   1  -7   4 40.9405 9.38953   1 
   2  -7   4 25.3354 10.1075   1 
   2  -7   4 24.7054 6.22890   2 
   3  -7   4 74.4401 11.9696   1 
   3  -7   4 33.6142 6.98538   2 
   4  -7   4 1.56396 5.99775   2 
   4  -7   4 9.83063 8.97330   1 
   5  -7   4 17.5195 7.36075   2 
   5  -7   4 49.8982 11.5655   1 
   6  -7   4 -14.923 9.78757   1 
   7  -7   4 1.81345 6.87812   2 
 -10  -2   5 19.1145 18.8112  -2 
   7  -7   4 19.1145 18.8112   1 
   8  -7   4 21.4555 12.5365   1 
   8  -7   4 2.31723 11.6457   2 
   9  -7   4 9.53415 8.92135   2 
   9  -7   4 -15.426 11.8995   1 
  10  -7   4 -5.3368 8.02415   2 
 -12  -6   4 25.6023 9.83960   1 
 -11  -6   4 10.5040 8.46397   1 
 -10  -6   4 19.7599 8.24622   1 
  -9  -6   4 31.3233 7.88979   1 
  -8  -6   4 -10.126 6.45322   1 
  -8  -6   4 -1.9999 7.61167   2 
  -7  -6   4 12.2571 6.67788   1 
  -7  -6   4 5.45442 7.88690   2 
  -6  -6   4 10.6507 7.75985   2 
  -6  -6   4 12.5391 6.36464   1 
  -5  -6   4 5.76970 7.73085   2 
  -5  -6   4 2.83669 6.05427   1 
  -4  -6   4 0.09710 3.37524   2 
  -4  -6   4 14.0493 5.88833   1 
  -3  -6   4 7.76859 4.42549   2 
  -3  -6   4 29.0985 5.92579   1 
  -2  -6   4 9.42297 4.48403   2 
  -2  -6   4 8.36787 5.12337   1 
  -1  -6   4 69.9088 6.22244   2 
  -1  -6   4 140.465 7.39398   1 
   0  -6   4 76.5008 5.49728   1 
   0  -6   4 36.1114 7.45042   2 
   1  -6   4 38.9715 5.92826   2 
   1  -6   4 87.7603 4.98518   1 
   2  -6   4 33.4536 9.37530   1 
   2  -6   4 13.3788 5.35745   2 
   3  -6   4 143.110 12.9645   1 
   3  -6   4 66.4835 7.14233   2 
   4  -6   4 -0.6882 5.35091   2 
   4  -6   4 -9.7558 8.16672   1 
   5  -6   4 15.5317 9.69127   1 
   5  -6   4 9.98560 6.41403   2 
   6  -6   4 0.30716 6.55275   2 
   6  -6   4 10.2279 9.34472   1 
   7  -6   4 9.79350 7.27943   2 
   7  -6   4 27.3705 11.9226   1 
   8  -6   4 0.22704 7.24047   2 
   8  -6   4 13.6791 11.0323   1 
   9  -6   4 65.1616 13.7469   1 
   9  -6   4 26.8177 9.09570   2 
  10  -6   4 3.83228 8.64952   2 
  10  -6   4 9.60346 11.9988   1 
  11  -6   4 -5.2733 8.95983   2 
 -12  -5   4 7.85316 8.55732   1 
 -11  -5   4 30.5317 8.89883   1 
 -10  -5   4 6.56740 7.10425   1 
  -9  -5   4 2.07369 6.29613   1 
  -9  -5   4 5.97651 7.83981   2 
  -8  -5   4 1.47944 6.31165   1 
  -8  -5   4 9.21574 8.46606   2 
  -7  -5   4 -1.3997 6.01238   1 
  -7  -5   4 -1.9741 7.39211   2 
  -6  -5   4 -0.9594 5.85475   1 
  -6  -5   4 2.78437 6.80719   2 
  -5  -5   4 178.544 9.76466   1 
  -5  -5   4 79.8217 9.15013   2 
  -4  -5   4 38.2330 6.19622   1 
  -4  -5   4 15.2210 2.90947   2 
  -3  -5   4 76.0320 5.18679   2 
  -3  -5   4 165.898 8.31623   1 
  -2  -5   4 59.6669 5.92852   1 
  -2  -5   4 31.1157 4.76455   2 
  -1  -5   4 13.2124 4.18527   1 
   0  -5   4 20.3705 4.21041   1 
   0  -5   4 5.80721 4.33863   2 
   1  -5   4 3.80203 3.18178   1 
   1  -5   4 3.26665 4.44609   2 
   2  -5   4 37.9486 5.88349   2 
   2  -5   4 75.5260 4.19498   1 
   3  -5   4 97.6683 7.67644   2 
   3  -5   4 229.569 14.1352   1 
   4  -5   4 22.0478 8.35652   1 
   4  -5   4 1.41846 5.20430   2 
   5  -5   4 15.3861 6.42049   2 
   5  -5   4 30.4496 10.3163   1 
   6  -5   4 113.553 12.5548   1 
   6  -5   4 45.9490 7.63709   2 
  -9  -1   4 39.1412 16.7867  -2 
   7  -5   4 39.1412 16.7867   1 
   7  -5   4 24.9307 7.63651   2 
   8  -5   4 19.3290 7.29540   2 
   8  -5   4 70.6322 12.6235   1 
   9  -5   4 1.45387 7.32525   2 
   9  -5   4 16.2465 11.5864   1 
  10  -5   4 23.9658 9.16704   2 
  10  -5   4 29.4368 13.0159   1 
  11  -5   4 -3.4222 8.02321   2 
  11  -5   4 26.1771 13.4963   1 
 -13  -4   4 3.46680 8.21548   1 
 -12  -4   4 -6.9042 7.61031   1 
 -11  -4   4 8.38348 7.66780   1 
 -11  -4   4 2.56526 10.6513   2 
 -10  -4   4 0.14021 6.85595   1 
  -9  -4   4 67.8564 8.98316   1 
  -9  -4   4 21.2601 9.63310   2 
  -8  -4   4 9.94051 6.02613   1 
  -8  -4   4 4.44417 7.66938   2 
  -7  -4   4 60.1701 7.58528   1 
  -6  -4   4 142.654 9.15324   1 
  -6  -4   4 58.2202 8.95588   2 
  -5  -4   4 27.2637 8.91667   1 
   3   2   9 38.4129 12.3339  -2 
  -5  -4   4 38.4129 12.3339   1 
  -5  -4   4 8.78225 6.83548   2 
  -4  -4   4 123.158 7.73287   1 
  -4  -4   4 60.6938 8.19504   2 
  -3  -4   4 71.5309 6.31164   1 
  -3  -4   4 30.3202 3.66056   2 
  -2  -4   4 351.949 9.95613   1 
  -2  -4   4 160.689 6.33013   2 
  -1   1   7 44.6017 6.80577  -2 
  -1  -4   4 44.6017 6.80577   1 
  -1  -4   4 15.0614 4.36875   2 
   0  -4   4 3.02416 3.58640   1 
   0  -4   4 2.85587 3.74452   2 
   1  -4   4 -0.8485 4.25214   2 
   1  -4   4 0.49516 3.29538   1 
   2  -4   4 24.7115 5.01962   2 
   2  -4   4 68.8745 4.45095   1 
   3  -4   4 4.85821 3.90760   2 
   3  -4   4 8.67364 2.97593   1 
   4  -4   4 352.670 8.06286   1 
   4  -4   4 169.710 7.60933   2 
   5  -4   4 38.5065 5.39567   2 
   5  -4   4 103.580 6.17282   1 
   6  -4   4 43.4913 5.98955   2 
   6  -4   4 94.1427 11.5058   1 
   7  -4   4 43.0836 10.6889   1 
   8  -4   4 3.38833 6.68920   2 
   8  -4   4 25.9169 11.6441   1 
   9  -4   4 31.0379 8.28769   2 
   9  -4   4 90.0218 14.0513   1 
  10  -4   4 3.39089 7.75633   2 
  10  -4   4 -8.0444 10.1088   1 
  11  -4   4 -0.4676 8.16503   2 
  11  -4   4 25.3341 13.0131   1 
  12  -4   4 -9.1431 7.73937   2 
  11   4  12 15.8223 24.5799  -2 
 -13  -3   4 15.8223 24.5799   1 
 -12  -3   4 -4.6375 7.02402   1 
 -12  -3   4 -9.4019 12.5723   2 
 -11  -3   4 3.80567 7.33845   1 
 -11  -3   4 -5.2896 11.0268   2 
 -10  -3   4 101.126 9.88876   1 
 -10  -3   4 48.5334 12.4825   2 
  -9  -3   4 37.3198 12.8437   1 
  -9  -3   4 35.0955 10.4278   2 
  -8  -3   4 98.9623 11.2957   2 
  -8  -3   4 211.714 10.9911   1 
  -7  -3   4 3.18085 5.38406   1 
  -7  -3   4 2.17035 7.57905   2 
  -6  -3   4 71.1697 8.86331   2 
  -6  -3   4 162.241 8.93923   1 
  -5  -3   4 31.9801 7.18410   2 
  -5  -3   4 96.7222 7.46298   1 
  -4  -3   4 -4.5205 4.48686   1 
  -4  -3   4 -4.7073 5.81007   2 
  -3  -3   4 56.0239 5.69081   1 
  -3  -3   4 27.0051 2.78132   2 
  -2  -3   4 94.8331 6.25458   1 
  -2  -3   4 50.5123 4.11428   2 
  -1  -3   4 6.79901 3.91767   1 
  -1  -3   4 8.20380 4.31833   2 
   0  -3   4 339.713 8.40316   1 
   0  -3   4 158.240 5.44516   2 
   1  -3   4 5.64726 3.34591   1 
   1  -3   4 1.11402 3.08976   2 
   2  -3   4 44.0522 4.28151   2 
   2  -3   4 102.388 5.22390   1 
   3  -3   4 81.8143 5.38197   2 
   3  -3   4 188.289 6.28721   1 
   4  -3   4 30.9431 4.52728   2 
   4  -3   4 58.9041 4.84010   1 
   5  -3   4 219.863 8.18183   2 
   5  -3   4 479.604 10.9951   1 
   6  -3   4 6.05638 4.58095   2 
   6  -3   4 13.2514 6.23876   1 
   7  -3   4 107.889 7.91272   1 
   7  -3   4 49.0136 6.04443   2 
   8  -3   4 7.28936 5.28897   2 
   8  -3   4 0.96082 5.72178   1 
   9  -3   4 -5.0667 4.92369   2 
   9  -3   4 1.84788 9.52020   1 
  10  -3   4 10.0614 11.0709   1 
  10  -3   4 0.63332 7.28992   2 
  11  -3   4 2.78610 8.13011   2 
  11  -3   4 3.35040 11.5138   1 
  12  -3   4 0.13757 11.4354   1 
  12  -3   4 6.86970 7.37812   2 
 -13  -2   4 15.1849 15.0346   2 
 -13  -2   4 -8.4570 13.2784   1 
 -12  -2   4 35.6397 15.0150   2 
 -12  -2   4 20.8798 14.8821   1 
 -11  -2   4 17.1109 12.9662   2 
 -11  -2   4 23.2034 6.95449   1 
 -10  -2   4 17.3964 11.9678   2 
 -10  -2   4 49.0787 8.06298   1 
  -9  -2   4 153.559 10.2247   1 
  -9  -2   4 81.3084 12.9204   2 
  -8  -2   4 0.93499 8.43784   2 
  -8  -2   4 -0.1571 5.39833   1 
  -7  -2   4 262.260 10.6030   1 
  -7  -2   4 129.718 11.2851   2 
  -6  -2   4 22.8436 7.27797   2 
  -6  -2   4 26.0426 5.52944   1 
  -5  -2   4 14.9262 6.83696   2 
  -5  -2   4 30.2231 5.23997   1 
  -4  -2   4 59.1255 5.84712   1 
  -4  -2   4 35.9248 6.91773   2 
  -3  -2   4 95.6666 6.11930   1 
  -3  -2   4 40.1856 6.92388   2 
  -2  -2   4 88.4872 5.95780   1 
  -2  -2   4 33.3172 3.88309   2 
  -1  -2   4 47.5148 4.94447   1 
  -1  -2   4 3.31116 4.86394   2 
   0  -2   4 15.4788 3.95692   1 
   1  -2   4 106.910 5.86198   2 
   1  -2   4 234.259 6.98696   1 
   2  -2   4 20.0645 3.72904   1 
   2  -2   4 11.4536 4.14814   2 
   3  -2   4 231.097 6.91651   1 
   3  -2   4 106.242 6.59649   2 
   4  -2   4 90.7384 5.56224   1 
   4  -2   4 38.3181 5.60313   2 
   5  -2   4 10.7154 4.84134   2 
  -6   1   3 54.9588 7.93636  -2 
   5  -2   4 54.9588 7.93636   1 
   6  -2   4 24.6521 5.87346   2 
   6  -2   4 61.6430 6.23458   1 
   7  -2   4 16.7313 5.83043   2 
   7  -2   4 45.6023 6.44210   1 
   8  -2   4 -4.8884 4.51354   2 
   8  -2   4 5.16683 6.10719   1 
 -10   0   1 90.3884 9.70498  -2 
   9  -2   4 90.3884 9.70498   1 
   9  -2   4 26.3771 6.15552   2 
  10  -2   4 8.01435 7.32232   1 
  10  -2   4 -1.5699 5.34871   2 
  11  -2   4 48.4253 13.5572   1 
  11  -2   4 13.1161 6.57630   2 
  12  -2   4 43.3539 13.3017   1 
  12  -2   4 -2.5761 7.35695   2 
  13  -2   4 -14.649 11.9391   1 
  13  -2   4 24.8350 8.87533   2 
 -13  -1   4 25.1969 15.2819   1 
 -13  -1   4 -3.4794 13.5691   2 
 -12  -1   4 16.6301 13.3138   2 
 -12  -1   4 2.22530 13.0196   1 
 -11  -1   4 43.9526 7.81291   1 
 -11  -1   4 14.0203 12.5050   2 
 -10  -1   4 6.97132 7.33909   1 
 -10  -1   4 3.89452 9.84726   2 
   9   4   9 4.00901 17.9509  -2 
 -10  -1   4 4.00901 17.9509   1 
  -9  -1   4 20.2405 6.13966   1 
  -8  -1   4 26.7430 6.24562   1 
  -8  -1   4 11.4086 8.16305   2 
  -7  -1   4 47.0678 6.23728   1 
  -7  -1   4 25.3017 7.86037   2 
  -6  -1   4 0.04500 4.60521   1 
  -6  -1   4 6.00406 7.15278   2 
  -5  -1   4 293.371 9.39526   1 
  -5  -1   4 148.306 10.2910   2 
  -4  -1   4 341.894 9.54525   1 
  -4  -1   4 181.509 10.3643   2 
  -3  -1   4 322.762 8.85237   1 
  -3  -1   4 157.898 9.95435   2 
  -2  -1   4 45.4326 3.50211   2 
  -2  -1   4 79.8937 6.43617   1 
  -1  -1   4 1.25516 3.19714   2 
  -1  -1   4 4.62316 3.62176   1 
   0  -1   4 42.8404 4.59597   2 
   0  -1   4 81.4495 5.21565   1 
   1  -1   4 16.6078 3.72105   1 
   1  -1   4 10.7990 3.99343   2 
   2  -1   4 19.5135 4.50094   2 
   2  -1   4 41.8561 4.47795   1 
   3  -1   4 39.7789 4.29636   1 
   3  -1   4 12.6161 4.43373   2 
   4  -1   4 6.92786 4.41495   2 
   4  -1   4 16.8697 4.22089   1 
   5  -1   4 11.6270 4.65618   2 
   5  -1   4 6.35078 4.13255   1 
   6  -1   4 202.761 7.35466   1 
   6  -1   4 77.4501 6.71443   2 
   7  -1   4 81.8671 5.93635   1 
   7  -1   4 26.2636 5.85179   2 
   8  -1   4 200.514 8.24873   1 
   9  -1   4 10.6205 6.14002   2 
   9  -1   4 32.2631 5.70284   1 
  10  -1   4 116.417 7.96339   1 
  10  -1   4 45.1290 6.58250   2 
  11  -1   4 21.0745 6.18293   1 
  11  -1   4 10.0968 5.85732   2 
  12  -1   4 19.3603 6.59044   1 
  12  -1   4 15.8723 6.43278   2 
  13  -1   4 0.36700 7.61090   2 
 -13   0   4 -5.8731 13.0328   1 
 -13   0   4 8.47414 14.1796   2 
 -12   0   4 8.40535 13.9750   2 
 -12   0   4 75.0493 16.5616   1 
 -11   0   4 0.53222 11.1083   1 
 -11   0   4 2.06073 10.9075   2 
 -10   0   4 15.3164 6.74485   1 
 -10   0   4 10.5346 10.3959   2 
  -9   0   4 49.5728 7.04177   1 
  -8   0   4 12.0361 5.31491   1 
  -8   0   4 3.68345 9.48029   2 
  -7   0   4 79.7023 5.63832   2 
  -7   0   4 156.271 8.44046   1 
  -6   0   4 302.816 9.66435   1 
  -6   0   4 122.392 5.85046   2 
  -5   0   4 67.7441 4.05852   2 
  -5   0   4 110.284 6.48044   1 
  -4   0   4 299.534 8.47843   1 
  -4   0   4 145.096 4.75229   2 
  -3   0   4 414.935 9.02647   1 
  -3   0   4 213.125 5.31740   2 
  -2   0   4 276.935 7.59106   1 
  -2   0   4 137.221 4.63716   2 
  -1   0   4 184.924 5.75775   2 
  -1   0   4 382.704 8.46630   1 
   0   0   4 168.927 6.31292   1 
   0   0   4 87.9732 4.80739   2 
   1   0   4 57.7842 4.51548   1 
   1   0   4 21.0419 4.11126   2 
   2   0   4 91.2147 5.11255   1 
   2   0   4 39.2562 4.41766   2 
   3   0   4 22.2015 4.48314   2 
   3   0   4 59.7648 4.85563   1 
   4   0   4 564.946 9.26136   1 
   4   0   4 247.680 8.46596   2 
   5   0   4 9.32735 6.04525   2 
   5   0   4 4.63791 3.68173   1 
   6   0   4 285.360 8.13306   1 
   6   0   4 119.006 7.55496   2 
   7   0   4 19.3327 5.32175   2 
   7   0   4 55.4377 6.48354   1 
   8   0   4 27.7048 5.83232   1 
   8   0   4 14.7816 5.51685   2 
   9   0   4 43.4086 6.97033   2 
   9   0   4 115.828 9.04847   1 
  10   0   4 -2.9545 5.91209   2 
  10   0   4 1.81923 6.28768   1 
  11   0   4 81.4882 9.75815   1 
  11  -1   1 91.4912 20.8355  -2 
  11   0   4 91.4912 20.8355   1 
  11   0   4 41.4905 7.85298   2 
  12   0   4 14.0580 6.20320   1 
  12   0   4 14.5790 5.99667   2 
  13   0   4 -5.2361 6.49547   1 
  13   0   4 1.77346 6.37785   2 
 -13   1   4 5.54374 12.2655   1 
 -13   1   4 -26.544 12.8461   2 
 -12   1   4 16.2449 12.6342   1 
 -12   1   4 -14.519 11.7895   2 
 -11   1   4 15.8136 11.8273   1 
 -11   1   4 7.96655 11.6162   2 
 -10   1   4 18.2496 11.8925   2 
 -10   1   4 2.14618 11.3121   1 
  -9   1   4 2.63447 5.42610   1 
  -9   1   4 8.62624 10.7549   2 
  -8   1   4 144.531 8.23791   1 
  -8   1   4 63.7518 6.46298   2 
  -7   1   4 74.3633 6.41466   1 
  -7   1   4 31.5743 4.94331   2 
  -6   1   4 97.9099 5.82691   2 
  -6   1   4 255.101 8.27894   1 
  -5   1   4 157.758 6.34214   2 
  -5   1   4 329.449 8.76705   1 
  -4   1   4 73.5480 4.92629   1 
  -4   1   4 22.8251 3.64549   2 
  -3   1   4 16.9184 3.82400   1 
  -3   1   4 4.87360 3.17726   2 
  -2   1   4 296.820 7.09758   1 
  -2   1   4 151.021 5.58500   2 
  -1   1   4 139.426 8.55194   2 
  -1   1   4 249.620 6.60314   1 
   0   1   4 36.6965 3.95715   2 
   0   1   4 68.6759 4.47412   1 
   1   1   4 244.377 6.76356   1 
   1   1   4 131.455 5.92244   2 
   2   1   4 110.890 4.46662   1 
   2   1   4 49.0702 4.48275   2 
   3   1   4 438.594 9.58278   1 
   3   1   4 190.113 7.14166   2 
   4   1   4 6.40663 4.10560   1 
   4   1   4 2.78765 3.99786   2 
   5   1   4 553.516 11.5685   2 
   5   1   4 1226.51 17.7950   1 
   6   1   4 6.99226 4.66392   1 
   6   1   4 10.5415 4.65890   2 
  -7   2   0 318.355 11.9912  -2 
   7   1   4 318.355 11.9912   1 
   7   1   4 108.196 7.61654   2 
   8   1   4 12.8199 5.31482   2 
   8   1   4 28.5699 6.33392   1 
   9   1   4 4.64284 6.11226   1 
   9   1   4 -2.1828 5.14775   2 
  10   1   4 8.96504 6.87697   1 
  10   1   4 25.4508 9.23982   2 
  11   1   4 5.83161 6.22292   2 
  11  -1   2 28.0482 15.1886  -2 
  11   1   4 28.0482 15.1886   1 
  11   1   4 0.09192 9.98053   1 
  12   1   4 5.50502 7.60363   1 
  12   1   4 10.7445 10.5148   2 
  13   1   4 16.7570 8.43994   1 
  13   1   4 2.87674 9.45418   2 
  14   1   4 9.20233 6.47223   2 
  14   1   4 1.75833 7.22300   1 
 -13   2   4 4.62783 12.5947   1 
 -13   2   4 21.1009 14.1813   2 
 -12   2   4 32.4038 14.3948   1 
 -12   2   4 15.7333 13.5132   2 
 -11   2   4 -4.7693 11.1762   2 
 -11   2   4 4.15115 10.3981   1 
 -10   2   4 156.539 17.8217   1 
 -10   2   4 89.5987 14.6560   2 
  -9   2   4 27.7489 10.3353   1 
  -9   2   4 20.7972 6.13823   2 
  -8   2   4 -4.4399 4.74954   2 
  -8   2   4 -2.5174 4.54032   1 
  -7   2   4 402.598 10.5095   1 
  -7   2   4 182.582 8.25062   2 
  -6   2   4 1.09759 3.73635   1 
  -6   2   4 -5.4033 3.85719   2 
  -5   2   4 210.717 6.93151   1 
  -5   2   4 101.681 6.13194   2 
  -4   2   4 12.9695 3.43770   1 
  -4   2   4 11.4240 3.79973   2 
  -3   2   4 6.63912 2.84657   1 
  -3   2   4 2.29951 3.28097   2 
  -2   2   4 45.9373 4.18050   2 
  -2   2   4 102.683 4.37004   1 
  -1   2   4 527.136 8.00265   1 
  -1   2   4 256.647 7.20100   2 
   0   2   4 494.023 8.81225   2 
   0   2   4 983.205 11.5357   1 
   1   2   4 927.999 9.43234   1 
   1   2   4 448.208 8.46658   2 
   2   2   4 333.033 7.93360   1 
   2   2   4 158.171 6.16478   2 
   3   2   4 662.834 11.5525   1 
   3   2   4 301.589 7.52114   2 
   4   2   4 12.4315 3.87940   2 
   4   2   4 15.5352 4.54706   1 
   5   2   4 30.1358 5.36487   1 
   5   2   4 2.56299 4.24856   2 
   6   2   4 138.142 7.02678   2 
   6   2   4 316.537 10.4833   1 
   7   2   4 49.8363 6.88857   1 
   7   2   4 22.9772 5.05312   2 
   8   2   4 -6.0718 5.27098   1 
   8   2   4 -2.1312 4.59326   2 
   9   2   4 2.82872 5.23609   2 
   9   2   4 10.8591 6.59058   1 
  10   2   4 9.58383 5.41882   1 
  10   2   4 1.22325 5.44750   2 
  11   2   4 5.87203 7.21645   1 
  11   2   4 3.41456 5.93677   2 
  12   2   4 47.2403 9.24514   1 
  12   2   4 23.3828 7.35933   2 
  13   2   4 -1.6148 8.09742   1 
  13   2   4 0.47711 7.37840   2 
  14   2   4 2.64658 7.88901   2 
  14   2   4 34.7198 10.3985   1 
 -13   3   4 27.4383 13.9207   1 
 -12   3   4 21.9740 13.8503   2 
 -12   3   4 30.6512 13.6084   1 
 -11   3   4 76.0521 15.0635   1 
 -10   3   4 -6.0054 10.3976   2 
 -10   3   4 4.98167 10.5800   1 
  -9   3   4 16.3066 10.0859   2 
  -9   3   4 36.1983 10.7481   1 
  -8   3   4 57.9266 6.96786   2 
  -8   3   4 105.248 13.3745   1 
  -7   3   4 3.43351 3.81293   1 
  -7   3   4 7.51426 5.08137   2 
  -6   3   4 -4.6909 3.24975   1 
  -6   3   4 -1.2359 4.52062   2 
  -5   3   4 73.1523 4.47601   1 
  -5   3   4 37.5891 5.14993   2 
  -4   3   4 1.49317 3.83620   2 
  -4   3   4 9.02335 2.70211   1 
  -3   3   4 66.6532 5.12126   2 
  -3   3   4 150.774 3.73767   1 
  -2   3   4 21.5408 4.05032   2 
  -2   3   4 48.0869 7.38094   1 
  -1   3   4 22.4848 2.58605   1 
  -1   3   4 7.49106 3.55446   2 
   0   3   4 219.426 7.13721   2 
   0   3   4 379.743 7.20073   1 
   1   3   4 100.321 5.20623   1 
   1   3   4 47.5748 4.47187   2 
   2   3   4 58.3759 4.14486   2 
   2   3   4 160.050 6.30281   1 
   3   3   4 225.120 6.49898   2 
   3   3   4 470.812 9.98313   1 
   4   3   4 21.0836 4.74763   1 
   4   3   4 13.1486 3.57458   2 
   5   3   4 19.3876 5.05256   1 
   5   3   4 5.89892 3.62260   2 
   6   3   4 39.9410 6.07286   1 
   7   3   4 0.24404 4.12724   2 
   6  -3   1 102.208 10.7088  -2 
   7   3   4 102.208 10.7088   1 
   8   3   4 74.2573 6.67041   2 
   8   3   4 195.502 10.3175   1 
   9   3   4 29.2881 5.60042   1 
   9   3   4 5.32401 5.59481   2 
  10   3   4 45.5162 7.06832   2 
  10   3   4 139.203 8.68429   1 
  11   3   4 25.0563 6.55743   1 
  11   3   4 9.03285 6.00928   2 
  12   3   4 2.07443 7.75210   1 
  12   3   4 -0.8300 5.52513   2 
  13   3   4 4.10445 9.37953   2 
  13   3   4 58.7315 10.4470   1 
  14   3   4 8.92391 9.13156   1 
 -12   4   4 35.8989 13.0500   1 
 -12   4   4 34.6106 15.2609   2 
 -11   4   4 15.8976 11.2050   1 
 -11   4   4 -5.1383 11.3731   2 
 -10   4   4 6.37280 6.80387   2 
 -10   4   4 9.53027 10.6339   1 
  -9   4   4 5.89248 6.42933   2 
  -8   4   4 4.68995 5.90247   2 
  -8   4   4 -4.3487 7.86322   1 
  -7   4   4 31.6569 6.34574   2 
  -7   4   4 56.0583 10.6317   1 
   7   6   4 44.6238 11.7334  -2 
  -6   4   4 44.6238 11.7334   1 
  -6   4   4 29.6013 6.06092   2 
  -6   4   4 54.3782 5.42268   1 
  -5   4   4 71.6282 6.45278   2 
  -5   4   4 131.702 11.1680   1 
   6   6   4 234.577 7.59327  -2 
  -5   4   4 234.577 7.59327   1 
  -4   4   4 563.971 17.8420   1 
  -4   4   4 268.572 9.10074   2 
  -3   4   4 2.57373 3.74080   2 
  -3   4   4 3.68820 5.95820   1 
  -2   4   4 557.679 16.4064   1 
  -2   4   4 240.773 7.61873   2 
  -1   4   4 4.74919 3.79416   2 
   2   5   2 17.6824 10.6263  -2 
  -1   4   4 17.6824 10.6263   1 
   0   4   4 45.4983 3.55944   1 
   0   4   4 28.2164 3.94542   2 
   1   4   4 159.534 6.31534   2 
   1   4   4 309.589 7.40534   1 
   2   4   4 -2.8157 3.04615   2 
   2   4   4 4.39733 3.49779   1 
  -2   4   0 232.011 17.1339  -2 
   3   4   4 232.011 17.1339   1 
   3   4   4 35.9721 3.60388   2 
   3   4   4 100.771 9.44186   1 
   4   4   4 11.4248 3.13726   2 
   4   4   4 21.5226 4.91539   1 
   5   4   4 5.82561 3.25773   2 
   5   4   4 7.41976 4.88400   1 
   6   4   4 135.827 8.09099   1 
   6   4   4 55.0844 4.77838   2 
   7   4   4 264.814 10.8397   1 
   7   4   4 123.652 6.68673   2 
   8   4   4 89.5793 6.38648   2 
   8   4   4 206.194 10.6480   1 
   9   4   4 87.5195 7.16693   1 
   9   4   4 34.0902 5.83711   2 
  10   4   4 25.5470 6.25297   1 
  10   4   4 1.75141 5.34167   2 
  11   4   4 30.6912 6.68631   2 
  11   4   4 47.1579 7.32991   1 
  12   4   4 -1.7611 6.16012   1 
  12   4   4 9.20509 9.32789   2 
  13   4   4 3.31950 8.37938   1 
  13   4   4 1.59477 9.30984   2 
  14   4   4 -7.8471 8.64024   1 
 -12   5   4 12.6141 12.8790   1 
 -12   5   4 9.72252 14.2364   2 
 -11   5   4 -15.173 11.3574   2 
 -11   5   4 11.6686 10.7190   1 
 -10   5   4 2.33057 10.2776   1 
 -10   5   4 3.44654 7.49654   2 
  -9   5   4 0.35053 6.63230   2 
  -9   5   4 -6.1678 8.84993   1 
  -8   5   4 224.136 16.0511   1 
  -8   5   4 107.796 9.37652   2 
  -7   5   4 7.61058 5.77592   2 
  -7   5   4 7.61768 8.13542   1 
  -6   5   4 226.361 14.1853   1 
  -6   5   4 107.127 8.24182   2 
  -5   5   4 77.2260 7.02142   2 
  -5   5   4 169.499 4.76555   1 
  -4   5   4 25.1636 5.39958   2 
  -4   5   4 67.4784 8.84933   1 
  -3   5   4 501.285 15.6346   1 
  -3   5   4 242.878 8.57625   2 
  -2   5   4 19.5642 4.45285   2 
  -2   5   4 57.9033 7.53418   1 
  -1   5   4 75.3043 3.62288   1 
  -1   5   4 30.1224 4.05968   2 
   0   5   4 38.4946 4.48662   2 
   0   5   4 75.0266 7.64489   1 
   1   5   4 59.5377 4.79004   1 
   1   5   4 24.6410 3.96321   2 
   2   5   4 29.1604 4.62578   1 
   2   5   4 9.91524 3.44970   2 
   3   5   4 44.4804 3.30705   2 
   3   5   4 106.189 6.30803   1 
   4   5   4 -5.4810 3.83746   1 
   4   5   4 1.72448 2.36264   2 
   5   5   4 262.336 9.51292   1 
   5   5   4 114.519 4.86218   2 
   6   5   4 1.79664 3.24028   2 
   6   5   4 12.7627 5.05004   1 
   7   5   4 309.614 11.6470   1 
   7   5   4 158.247 6.74842   2 
   8   5   4 9.56298 4.27810   2 
   8   5   4 14.6969 6.39516   1 
   9   5   4 52.1912 6.83828   1 
   9   5   4 34.2423 5.36068   2 
  10   5   4 -1.5713 4.98445   1 
  10   5   4 0.58193 7.35329   2 
  11   5   4 0.23962 5.51816   1 
  11   5   4 -4.1956 8.21261   2 
  12   5   4 14.2014 6.74230   1 
  12   5   4 4.31462 10.0524   2 
  13   5   4 23.5457 9.40114   1 
  13   5   4 9.45258 9.91580   2 
  14   5   4 -1.5970 8.26296   1 
 -12   6   4 -2.8223 14.3665   2 
 -11   6   4 12.8338 8.57124   2 
 -10   6   4 12.2274 11.9451   2 
 -10   6   4 37.2806 12.4808   1 
  -9   6   4 12.6421 10.2123   1 
  -9   6   4 3.59321 7.38264   2 
  -8   6   4 6.13285 7.31349   2 
  -8   6   4 -8.2629 7.92935   1 
  -7   6   4 143.866 10.2111   2 
  -7   6   4 353.990 17.6993   1 
  -6   6   4 -3.6763 4.40734   2 
  -6   6   4 1.57632 8.47214   1 
  -5   6   4 78.0871 6.09546   2 
  -5   6   4 184.449 12.1424   1 
  -4   6   4 1.11409 3.88435   2 
  -4   6   4 -1.0758 5.89161   1 
  -3   6   4 6.51359 3.67542   2 
  -3   6   4 12.4897 5.99434   1 
  -2   6   4 49.9320 3.19927   1 
  -2   6   4 25.3073 3.74596   2 
  -1   6   4 28.2684 4.45091   2 
  -1   6   4 88.6249 4.49396   1 
   0   6   4 76.0706 5.03252   2 
   0   6   4 163.341 5.99181   1 
   1   6   4 133.900 6.09709   1 
   1   6   4 55.6783 4.37279   2 
   2   6   4 144.945 6.78922   1 
   2   6   4 74.9912 4.50185   2 
   3   6   4 4.01790 2.14881   2 
   3   6   4 10.9009 4.51869   1 
   4   6   4 135.684 7.52807   1 
   4   6   4 44.3934 7.75952   2 
   5   6   4 42.2993 6.09581   1 
   5   6   4 3.80260 6.81366   2 
   6   6   4 202.457 9.64161   1 
   6   6   4 94.0878 4.32821   2 
   7   6   4 -8.5176 5.09622   1 
   7   6   4 -2.5011 2.62062   2 
   8   6   4 59.5512 8.21533   1 
   8   6   4 32.0736 10.3624   2 
   9   6   4 1.53480 7.91079   2 
   7  -4   4 38.4125 8.31914  -2 
   9   6   4 38.4125 8.31914   1 
  10   6   4 14.3249 8.76757   2 
  10   6   4 31.1967 6.48615   1 
  11   6   4 10.3332 6.00248   1 
  11   6   4 7.73547 9.23309   2 
  12   6   4 -7.9225 8.89644   2 
  12   6   4 12.0022 8.47853   1 
  13   6   4 2.27420 11.7735   1 
  11  -3   6 -21.666 21.0219  -2 
  13   6   4 -21.666 21.0219   1 
  14   6   4 13.5146 9.11301   1 
 -11   7   4 11.1117 9.26670   2 
 -10   7   4 2.24512 8.19101   2 
  -9   7   4 30.7634 8.99259   2 
  -8   7   4 -5.9924 5.80970   2 
  -8   7   4 3.34221 7.79792   1 
  -7   7   4 6.92095 5.36771   2 
  -7   7   4 -2.3452 7.48140   1 
  -6   7   4 7.19742 5.12824   2 
  -6   7   4 17.8293 7.93838   1 
  -5   7   4 6.95434 4.59754   2 
  -5   7   4 2.12397 6.87850   1 
  -4   7   4 -1.1841 3.79787   2 
  -4   7   4 -1.5056 5.71022   1 
  -3   7   4 6.29230 3.90326   2 
  -3   7   4 19.3139 3.28636   1 
  -2   7   4 40.8166 4.41856   2 
  -2   7   4 79.9992 4.30782   1 
  -1   7   4 66.1733 4.55500   2 
  -1   7   4 107.735 5.20375   1 
   0   7   4 65.5602 4.97295   2 
   0   7   4 162.031 6.26533   1 
  -1  -6   1 225.420 12.4300  -2 
   1   7   4 225.420 12.4300   1 
   1   7   4 87.3556 5.01840   2 
   1   7   4 203.838 11.3355   1 
   2   7   4 147.599 7.12511   1 
   2   7   4 73.8984 4.40826   2 
   3   7   4 78.1033 6.29328   1 
   3   7   4 9.73800 2.56523   2 
   4   7   4 26.4566 5.57319   1 
   4   7   4 15.3309 7.43320   2 
   5   7   4 7.65450 7.00797   2 
   5   7   4 43.4892 6.17417   1 
   6   7   4 13.3717 7.41810   2 
   6   7   4 22.5717 6.02599   1 
   7   7   4 13.1080 5.82757   1 
   7   7   4 0.41627 6.69664   2 
   8   7   4 56.3008 8.08658   1 
   8   7   4 15.5978 8.06593   2 
   9   7   4 11.5721 7.91151   2 
   9   7   4 -2.5259 6.14327   1 
  10   7   4 55.8020 9.44403   1 
  10   7   4 23.2456 9.38740   2 
  11   7   4 5.39433 7.45691   1 
  11   7   4 -9.6613 7.53427   2 
  12   7   4 15.0709 8.79173   1 
  13   7   4 25.2361 10.4719   1 
  14   7   4 0.70321 9.70378   1 
 -11   8   4 7.32307 9.66303   2 
 -10   8   4 5.28931 9.49757   2 
  -9   8   4 -2.1903 6.14319   2 
  -8   8   4 14.4510 6.21303   2 
  -7   8   4 11.4212 5.91744   2 
  -7   8   4 0.00294 7.62758   1 
  -6   8   4 -4.0873 4.96148   2 
  -6   8   4 -5.9236 7.04916   1 
  -5   8   4 -7.4497 4.81376   2 
  -5   8   4 11.8698 6.86002   1 
  -4   8   4 65.0087 6.03766   2 
  -4   8   4 136.209 10.3337   1 
  -3   8   4 2.97952 3.37827   1 
  -2   8   4 237.525 7.50650   2 
  -2   8   4 545.866 9.78480   1 
  -1   8   4 25.3485 4.00400   1 
  -1   8   4 18.1514 3.67362   2 
   0   8   4 75.4189 4.42960   2 
   0   8   4 170.678 6.90735   1 
   1   8   4 116.369 6.54825   1 
   1   8   4 58.8155 4.77137   2 
   2   8   4 -1.9328 2.88675   2 
   2   8   4 2.19250 4.43131   1 
   3   8   4 70.2991 6.55092   1 
   3   8   4 42.9596 3.04672   2 
   4   8   4 47.1717 6.51719   1 
   4   8   4 16.6425 8.41843   2 
   5   8   4 100.983 7.88162   1 
   5   8   4 48.4045 9.27940   2 
   6   8   4 33.9014 8.87900   2 
   6   8   4 96.9307 8.45756   1 
   7   8   4 43.2484 7.50182   1 
   7   8   4 4.04380 8.45045   2 
   8   8   4 12.5079 6.25541   1 
   8   8   4 -3.7062 7.18956   2 
   9   8   4 98.5899 9.92783   1 
   9   8   4 52.6878 10.6337   2 
  10   8   4 16.5779 8.79909   2 
  10   8   4 17.9622 7.63947   1 
  11   8   4 11.5413 7.81995   1 
  11   8   4 -8.8274 7.55610   2 
  12   8   4 12.7396 9.72932   1 
  13   8   4 4.34962 8.74573   1 
 -10   9   4 -16.227 8.89688   2 
  -9   9   4 -1.1422 6.57296   2 
  -8   9   4 21.7463 6.87858   2 
  -7   9   4 3.54792 6.06495   2 
  -6   9   4 15.6256 5.97327   2 
  -5   9   4 11.6712 5.39672   2 
  -4   9   4 9.20456 4.68332   2 
  -4   9   4 36.4515 7.37246   1 
  -3   9   4 27.0157 5.01829   2 
  -3   9   4 73.5501 8.40127   1 
  -2   9   4 18.0062 4.27358   2 
  -2   9   4 -4.1330 3.74643   1 
  -1   9   4 289.353 8.48940   1 
  -1   9   4 118.814 7.71627   2 
   0   9   4 23.6163 4.78170   1 
   0   9   4 11.4453 3.53781   2 
   1   9   4 20.7907 3.30112   2 
   1   9   4 59.9074 5.98231   1 
   2   9   4 2.53858 4.68584   1 
   2   9   4 -5.9634 2.95109   2 
   3   9   4 7.31280 2.84255   2 
   3   9   4 26.6465 7.91725   1 
   4   9   4 -9.2099 6.91796   2 
   4   9   4 4.26505 5.07845   1 
   5   9   4 79.0844 10.9935   2 
   5   9   4 146.880 9.24205   1 
   6   9   4 -7.1169 7.45372   2 
   6   9   4 -7.5672 5.52725   1 
   7   9   4 85.3994 8.74805   1 
   7   9   4 41.8508 9.49457   2 
   8   9   4 26.3560 7.26128   1 
   8   9   4 -3.1452 7.42536   2 
   9   9   4 22.8960 8.18509   1 
   9   9   4 20.3791 13.7115   2 
  10   9   4 -3.1503 6.43457   1 
  10   9   4 0.07260 8.27848   2 
  11   9   4 13.7165 8.19048   1 
  12   9   4 -1.0745 8.12630   1 
  13   9   4 22.5748 9.83940   1 
  -9  10   4 8.59244 7.59970   2 
  -8  10   4 4.23574 6.83929   2 
  -7  10   4 55.8143 7.92451   2 
  -6  10   4 0.01173 6.62366   2 
  -5  10   4 8.92611 5.46540   2 
  -4  10   4 -3.1782 4.83415   2 
  -3  10   4 3.99998 5.86723   2 
  -2  10   4 97.6119 6.44365   1 
  -2  10   4 41.6582 6.85392   2 
  -1  10   4 109.709 7.93714   2 
  -1  10   4 230.051 11.4764   1 
  -4  -8   2 207.152 17.5968  -2 
  -1  10   4 207.152 17.5968   1 
   0  10   4 21.8876 4.09922   2 
   0  10   4 55.2498 5.55942   1 
   1  10   4 20.8354 3.63967   2 
   1  10   4 61.2623 6.15851   1 
   2  10   4 6.25775 3.39549   2 
   2  10   4 2.90112 5.10663   1 
   3  10   4 8.03426 5.42492   1 
   3  10   4 -4.8762 7.71422   2 
   4  10   4 50.8368 7.46698   1 
   4  10   4 20.6433 10.0772   2 
   5  10   4 17.6545 6.69669   1 
   5  10   4 22.6691 9.48641   2 
   6  10   4 182.698 10.8652   1 
   6  10   4 82.1379 11.9681   2 
   7  10   4 10.3152 6.94941   1 
   7  10   4 -15.283 7.06373   2 
   8  10   4 101.373 10.1781   1 
   8  10   4 31.0729 9.81415   2 
   9  10   4 12.6668 7.75360   1 
   9  10   4 -5.0060 7.87751   2 
  10  10   4 6.65390 7.58417   1 
  10  10   4 -4.6206 8.65303   2 
  11  10   4 4.85952 8.01974   1 
  12  10   4 -1.2689 8.32755   1 
  13  10   4 -7.3439 9.31983   1 
  -9  11   4 3.00564 7.98758   2 
  -8  11   4 14.8030 7.79029   2 
  -7  11   4 -2.8974 6.82515   2 
  -6  11   4 1.26218 5.90780   2 
  -5  11   4 -3.2105 5.86670   2 
  -4  11   4 9.07435 5.40527   2 
  -3  11   4 -5.5387 6.97378   2 
  -1  11   4 -6.2642 7.07010   1 
  -1  11   4 7.34447 5.75498   2 
   0  11   4 21.2454 5.24345   1 
   0  11   4 -5.5002 5.02967   2 
   1  11   4 13.8655 5.44066   1 
   1  11   4 4.81541 3.56866   2 
   2  11   4 79.0581 10.5399   1 
  -2  -8   4 58.9579 15.1069  -2 
   2  11   4 58.9579 15.1069   1 
   2  11   4 16.0716 9.06993   2 
   3  11   4 13.5961 8.97664   2 
   3  11   4 0.11483 5.53754   1 
   4  11   4 14.3476 6.13945   1 
   4  11   4 2.72007 9.05684   2 
   5  11   4 26.2413 7.08515   1 
   5  11   4 14.9060 9.21521   2 
   6  11   4 9.30247 8.62015   2 
   6  11   4 -4.9968 6.48903   1 
   7  11   4 20.0145 10.3520   1 
   3  -7   6 36.4292 16.2678  -2 
   7  11   4 36.4292 16.2678   1 
   7  11   4 0.86334 8.34867   2 
   8  11   4 16.6411 8.02811   1 
   8  11   4 6.94913 9.09062   2 
   9  11   4 4.04796 8.62352   2 
   9  11   4 5.69142 7.82152   1 
  10  11   4 7.94543 11.5004   1 
   6  -6   8 16.8976 22.4151  -2 
  10  11   4 16.8976 22.4151   1 
  11  11   4 -2.6679 8.36027   1 
  12  11   4 14.9973 9.32634   1 
  -8  12   4 3.75006 7.85104   2 
  -7  12   4 -1.3730 6.47775   2 
  -6  12   4 -3.2090 6.44277   2 
  -5  12   4 0.75667 7.28791   2 
  -4  12   4 6.24072 5.65388   2 
  -3  12   4 -8.7618 6.35513   2 
  -2  12   4 5.01715 8.71063   2 
  -1  12   4 -3.0285 6.05736   2 
   0  12   4 5.28658 5.94253   2 
   0  12   4 18.9592 8.95788   1 
   1  12   4 7.45855 9.45155   2 
   1  12   4 3.86770 8.57648   1 
   2  12   4 -6.9177 8.24030   2 
   2  12   4 -3.2642 5.48509   1 
   3  12   4 21.1017 10.6986   2 
   3  12   4 60.4060 8.29652   1 
   4  12   4 0.74833 6.33531   1 
   4  12   4 -9.4989 8.06628   2 
   5  12   4 -1.3067 6.41411   1 
   5  12   4 -11.580 7.75585   2 
   6  12   4 4.68264 7.13053   1 
   6  12   4 -5.9912 9.18760   2 
   7  12   4 22.7130 9.77756   2 
   7  12   4 51.9206 8.86193   1 
   8  12   4 -10.539 6.88300   1 
   8  12   4 -1.2551 8.44489   2 
   9  12   4 7.03717 7.99537   1 
  10  12   4 -2.5667 8.36923   1 
  11  12   4 28.3024 9.85260   1 
  12  12   4 8.40347 13.3736   1 
  -7  13   4 -12.969 6.94593   2 
  -6  13   4 6.94073 6.90181   2 
  -5  13   4 10.2875 6.53798   2 
  -4  13   4 7.49792 6.13884   2 
  -3  13   4 8.38643 7.78877   2 
  -2  13   4 9.17270 7.75276   2 
  -1  13   4 14.8794 7.28641   2 
   0  13   4 10.5135 10.9692   2 
   0  13   4 -6.3807 9.09626   1 
   1  13   4 8.28494 10.0718   1 
   1  13   4 11.1257 10.2044   2 
   2  13   4 -12.116 9.28780   1 
   2  13   4 16.1480 10.3208   2 
   3  13   4 -4.5266 6.49648   1 
   4  13   4 20.2795 11.0431   2 
   4  13   4 19.0687 6.93847   1 
   5  13   4 56.3521 9.29831   1 
   5  13   4 10.8359 10.2600   2 
   6  13   4 1.05056 6.98382   1 
   6  13   4 -27.705 8.32732   2 
   7  13   4 3.29139 7.25329   1 
   7  13   4 -4.8634 8.59610   2 
   8  13   4 1.97261 8.60143   2 
   8  13   4 3.24287 7.95714   1 
   9  13   4 16.9678 8.81630   1 
  10  13   4 -5.3860 8.45482   1 
  11  13   4 -13.264 8.08586   1 
  -5  14   4 1.40429 6.41530   2 
  -4  14   4 -3.5352 5.95507   2 
  -3  14   4 -5.9751 5.82740   2 
  -2  14   4 -4.5051 11.4121   2 
  -1  14   4 -9.7197 9.60282   2 
   0  14   4 -5.9816 9.81173   2 
   1  14   4 6.86923 10.4372   2 
   1  14   4 34.3765 11.8627   1 
   2  14   4 26.7805 10.9559   2 
   2  14   4 7.75364 11.2486   1 
   3  14   4 1.51679 11.0290   1 
   3  14   4 2.68934 10.1112   2 
   4  14   4 30.2656 12.5836   1 
   4  14   4 2.52494 10.0045   2 
   5  14   4 -7.3784 11.3919   1 
   5  14   4 15.8335 11.7978   2 
   6  14   4 3.40915 10.4554   2 
   6  14   4 29.1031 8.69108   1 
   7  14   4 1.25185 7.85017   1 
   7  14   4 -3.7395 9.40250   2 
   8  14   4 16.4605 9.06987   1 
   4  -8   9 4.70227 12.4442  -2 
   9  14   4 4.70227 12.4442   1 
  10  14   4 5.49211 9.08596   1 
  -4  15   4 13.2186 8.41272   2 
  -3  15   4 10.4239 13.9521   2 
  -2  15   4 29.4205 13.6771   2 
  -1  15   4 8.30140 12.7610   2 
   0  15   4 13.0643 12.2006   2 
   1  15   4 4.47833 11.2857   2 
   2  15   4 15.6058 12.2355   1 
   2  15   4 23.1042 12.0994   2 
   3  15   4 5.21437 11.8605   2 
   3  15   4 5.37440 12.0808   1 
   4  15   4 4.52349 12.6140   1 
   4  15   4 -6.6768 9.87712   2 
   5  15   4 -9.2914 10.1920   2 
   5  15   4 -6.7723 13.5112   1 
   6  15   4 -12.111 12.7117   1 
   6  15   4 -11.665 9.08959   2 
   7  15   4 -7.4680 13.3815   1 
   8  15   4 3.83267 8.45797   1 
  -2  16   4 10.1830 13.0713   2 
  -1  16   4 -5.0910 11.7475   2 
   0  16   4 4.68886 12.1542   2 
   1  16   4 -3.2680 11.2072   2 
   2  16   4 2.96465 13.0339   2 
   3  16   4 -5.1700 11.7615   1 
   3  16   4 6.46470 12.4024   2 
   5  16   4 -6.0434 11.5309   2 
   5  16   4 3.41640 12.0229   1 
   6  16   4 5.99145 14.2541   1 
   6  16   4 8.24640 11.8563   2 
   7  16   4 -4.9907 13.9530   1 
  -3 -13   5 7.47054 14.2937   1 
  -2 -13   5 -3.5480 12.4186   1 
  -1 -13   5 -2.3899 14.9552   1 
   0 -13   5 6.55185 13.9777   1 
  -6 -12   5 -3.3089 12.1094   1 
  -5 -12   5 16.1880 14.8523   1 
  -4 -12   5 6.28049 13.7149   1 
  -3 -12   5 11.5359 13.6639   1 
  -2 -12   5 9.22390 12.1855   1 
  -1 -12   5 12.6245 13.2833   1 
   0 -12   5 11.9274 8.59635   2 
   0 -12   5 -17.414 12.4777   1 
   1 -12   5 12.1847 12.2250   2 
   1 -12   5 16.0150 13.2122   1 
   2 -12   5 -1.1496 13.2066   1 
   2 -12   5 -3.4045 7.77734   2 
   3 -12   5 11.7428 13.3645   1 
   3 -12   5 21.7975 9.35656   2 
  -8 -11   5 13.8393 12.6534   1 
  -7 -11   5 -27.710 11.3165   1 
  -6 -11   5 7.96940 12.8183   1 
  -5 -11   5 10.4911 13.2457   1 
  -4 -11   5 -12.944 10.4986   1 
  -3 -11   5 27.7298 12.9520   1 
  -2 -11   5 -10.941 11.1766   1 
  -1 -11   5 -17.587 10.9795   1 
  -1 -11   5 12.5469 11.1682   2 
   0 -11   5 6.36937 12.8681   1 
   0 -11   5 3.59262 7.57129   2 
   1 -11   5 -5.0791 7.41209   2 
   1 -11   5 -7.9570 11.8662   1 
   2 -11   5 0.21766 13.1468   1 
   2 -11   5 -0.2046 7.77496   2 
   3 -11   5 -14.721 7.32214   2 
   3 -11   5 -3.1036 12.2138   1 
   4 -11   5 0.39846 8.17942   2 
   4 -11   5 -14.390 12.3329   1 
   5 -11   5 25.6687 13.9341   1 
   5 -11   5 10.1019 8.92923   2 
  -9 -10   5 9.26994 9.12451   1 
  -8 -10   5 -8.8688 8.29387   1 
  -7 -10   5 3.94459 8.95612   1 
  -6 -10   5 -1.4012 12.1385   1 
  -5 -10   5 -5.4384 10.8589   1 
  -4 -10   5 36.8490 13.2492   1 
  -3 -10   5 22.0363 12.0261   1 
  -2 -10   5 49.3240 13.3729   1 
  -2 -10   5 43.1559 13.4858   2 
  -1 -10   5 30.5722 7.80258   2 
  -1 -10   5 32.5464 12.5950   1 
   0 -10   5 24.7009 7.92676   2 
   0 -10   5 22.4517 13.7757   1 
   1 -10   5 -0.1760 6.81469   2 
   1 -10   5 15.3083 12.3472   1 
   2 -10   5 2.58839 10.8488   1 
   2 -10   5 -1.9607 6.59370   2 
   3 -10   5 -5.9616 7.07651   2 
  -7  -2  10 23.8480 21.3767  -2 
   3 -10   5 23.8480 21.3767   1 
   4 -10   5 27.8393 13.3083   1 
   4 -10   5 -4.8739 7.43164   2 
   5 -10   5 -6.6527 7.83106   2 
   5 -10   5 -0.8322 11.9030   1 
   6 -10   5 2.89141 8.86614   2 
   6 -10   5 20.8988 14.1679   1 
   7 -10   5 -21.871 12.0816   1 
   7 -10   5 4.36430 9.28101   2 
 -10  -9   5 21.4001 9.43710   1 
  -9  -9   5 7.36328 9.32744   1 
  -8  -9   5 18.2318 9.15251   1 
  -7  -9   5 -15.982 7.45402   1 
  -6  -9   5 41.4489 9.35795   1 
  -5  -9   5 4.46686 7.73039   1 
  -4  -9   5 1.44027 10.0940   1 
  -4  -9   5 -1.3263 9.92097   2 
  -3  -9   5 8.98086 10.6403   1 
  -3  -9   5 -3.5025 9.03187   2 
  -2  -9   5 9.87072 6.81666   2 
  -2  -9   5 16.0104 10.8669   1 
  -3  -1  11 31.5012 16.8284  -2 
  -1  -9   5 31.5012 16.8284   1 
  -1  -9   5 6.86694 6.48088   2 
   0  -9   5 8.10328 6.66258   2 
   0  -9   5 20.4390 10.8487   1 
   1  -9   5 -5.4874 6.31942   2 
   1  -9   5 9.11774 10.0481   1 
   2  -9   5 11.6898 6.98854   2 
   2  -9   5 5.89368 10.4185   1 
   3  -9   5 14.8305 7.54188   2 
   3  -9   5 25.3372 12.1626   1 
   4  -9   5 0.99093 7.27757   2 
   4  -9   5 -20.804 9.83650   1 
  -9  -2   8 19.1530 19.7996  -2 
   5  -9   5 19.1530 19.7996   1 
   6  -9   5 6.73524 12.6848   1 
   6  -9   5 27.7308 13.3724   2 
   7  -9   5 10.0040 9.12169   2 
   7  -9   5 2.13661 13.0329   1 
   8  -9   5 -6.9627 13.6723   1 
   8  -9   5 1.65052 10.9040   2 
 -11  -8   5 18.4624 15.5986   1 
 -10  -8   5 25.4898 9.45747   1 
  -9  -8   5 16.8905 8.83709   1 
  -8  -8   5 22.1315 9.07245   1 
  -7  -8   5 20.8157 8.21555   1 
  -6  -8   5 6.14899 10.0883   2 
  -6  -8   5 27.5147 8.09873   1 
  -5  -8   5 6.33678 7.06258   1 
  -4  -8   5 -9.3648 6.24456   1 
  -4  -8   5 -5.1913 9.11553   2 
  -3  -8   5 4.24007 6.37194   1 
  -2  -8   5 -0.1392 5.71904   2 
  -2  -8   5 -4.4737 8.76468   1 
  -1  -8   5 69.4699 13.1115   1 
  -1  -8   5 20.5198 6.54804   2 
   0  -8   5 -1.7234 5.65413   2 
   0  -8   5 25.0155 10.3908   1 
   1  -8   5 146.155 15.0257   1 
   1  -8   5 55.2806 7.99061   2 
   2  -8   5 6.43842 6.16992   2 
   2  -8   5 15.5251 10.0697   1 
   3  -8   5 95.7201 13.5085   1 
   3  -8   5 53.8073 8.45631   2 
   4  -8   5 5.61552 6.91332   2 
   4  -8   5 -5.4690 10.2354   1 
   5  -8   5 0.05602 7.40606   2 
   5  -8   5 12.2929 11.0626   1 
   6  -8   5 -3.4273 7.59460   2 
   6  -8   5 13.4799 12.6914   1 
   7  -8   5 47.5097 14.6381   1 
   7  -8   5 1.96459 8.86224   2 
   8  -8   5 9.44967 9.15584   2 
   8  -8   5 -2.8909 12.7216   1 
   9  -8   5 10.6009 9.72820   2 
   9  -8   5 34.7302 16.3916   1 
 -11  -7   5 31.9931 9.96018   1 
 -10  -7   5 -0.2143 7.58867   1 
  -9  -7   5 12.5832 8.34769   1 
  -8  -7   5 0.56632 7.58032   1 
  -7  -7   5 -0.5948 6.83036   1 
  -7  -7   5 8.92968 9.39719   2 
  -6  -7   5 19.3241 8.73424   1 
  -5  -7   5 64.3549 8.64351   1 
  -5  -7   5 32.8709 10.0046   2 
  -4  -7   5 11.5759 6.69745   1 
  -3  -7   5 5.56162 5.72670   1 
  -3  -7   5 -0.4585 4.99781   2 
  -2  -7   5 14.5902 5.49152   2 
  -2  -7   5 22.7687 6.16416   1 
  -1  -7   5 51.5054 6.66476   2 
  -1  -7   5 124.669 8.01024   1 
   0  -7   5 11.5969 5.64522   2 
   0  -7   5 13.0182 8.93226   1 
   1  -7   5 -2.9927 7.92167   1 
   1  -7   5 -5.6429 4.99712   2 
   2  -7   5 27.1059 6.82276   2 
   2  -7   5 66.2960 11.8713   1 
   3  -7   5 7.90397 6.37958   2 
   3  -7   5 34.7604 10.6831   1 
   4  -7   5 31.6722 11.0221   1 
   4  -7   5 3.28212 6.62177   2 
  -8  -1   7 27.9928 14.5748  -2 
   5  -7   5 27.9928 14.5748   1 
   5  -7   5 3.19063 7.33737   2 
   6  -7   5 0.29887 6.82081   2 
   6  -7   5 26.0066 12.6145   1 
   7  -7   5 -2.6085 7.32949   2 
   7  -7   5 -1.1458 12.0487   1 
   8  -7   5 4.08844 8.48884   2 
   8  -7   5 21.0562 13.6713   1 
   9  -7   5 -2.0748 8.48496   2 
   9  -7   5 -0.5719 12.4675   1 
  10  -7   5 7.64702 9.78715   2 
  10  -7   5 9.72890 14.6861   1 
 -12  -6   5 -8.3364 8.52806   1 
 -11  -6   5 -1.3847 8.26293   1 
 -10  -6   5 16.9745 8.34713   1 
  -9  -6   5 24.2514 8.10093   1 
  -8  -6   5 -0.7209 7.23031   1 
  -8  -6   5 -2.0261 7.85066   2 
   4   2  12 31.2488 9.92585  -2 
  -7  -6   5 31.2488 9.92585   1 
  -7  -6   5 12.9906 9.19999   2 
  -6  -6   5 15.6025 7.11335   1 
  -6  -6   5 15.0214 9.35355   2 
  -5  -6   5 22.1403 9.01942   2 
  -5  -6   5 28.8582 6.97770   1 
  -4  -6   5 13.0204 5.89980   1 
  -4  -6   5 2.69675 8.36660   2 
   0   1  10 78.0445 9.31335  -2 
  -3  -6   5 78.0445 9.31335   1 
  -3  -6   5 14.6050 5.29140   2 
  -2  -6   5 232.908 9.83473   1 
  -2  -6   5 104.257 7.04964   2 
  -1  -6   5 -3.9872 4.33340   2 
  -1  -6   5 13.4135 4.87117   1 
   0  -6   5 13.9741 7.01368   2 
   0  -6   5 18.2021 4.71520   1 
   1  -6   5 5.05051 5.23620   2 
   1  -6   5 4.18687 7.67775   1 
   2  -6   5 7.30307 5.65982   2 
   2  -6   5 33.6729 9.80222   1 
   3  -6   5 14.1738 9.45611   1 
   3  -6   5 21.9032 6.28876   2 
   4  -6   5 54.7928 7.75417   2 
   4  -6   5 132.871 13.9892   1 
   5  -6   5 5.91505 9.32990   1 
   5  -6   5 7.64454 6.33381   2 
   6  -6   5 72.1881 13.4497   1 
   7  -6   5 -11.323 10.5490   1 
   7  -6   5 2.61146 7.34147   2 
   8  -6   5 -6.1660 7.00206   2 
   8  -6   5 33.2817 13.7986   1 
   9  -6   5 44.6086 15.8823   1 
   9  -6   5 31.0185 9.41690   2 
  10  -6   5 -11.180 8.41642   2 
  10  -6   5 -4.7716 11.5439   1 
 -12  -5   5 10.4852 8.44613   1 
 -11  -5   5 2.32677 8.30644   1 
 -10  -5   5 22.6240 8.59019   1 
  -9  -5   5 2.58887 7.29948   1 
  -9  -5   5 4.54712 9.15513   2 
  -8  -5   5 14.3462 7.40476   1 
  -8  -5   5 27.5532 9.21854   2 
  -7  -5   5 52.3247 8.09512   1 
  -7  -5   5 25.1955 8.33442   2 
  -6  -5   5 68.6850 8.43850   1 
  -6  -5   5 15.0722 8.41538   2 
  -5  -5   5 6.28380 7.91653   2 
  -5  -5   5 22.5613 6.68460   1 
  -4  -5   5 21.6187 6.25803   1 
  -4  -5   5 16.5867 8.28753   2 
  -3  -5   5 23.4639 5.88078   1 
  -3  -5   5 10.4279 3.76169   2 
  -2  -5   5 41.3256 5.85727   1 
  -2  -5   5 26.0723 5.00038   2 
  -1  -5   5 14.9232 4.89250   2 
  -1  -5   5 49.4658 5.74401   1 
   0  -5   5 77.5137 5.92769   1 
   0  -5   5 41.3284 5.72938   2 
   1  -5   5 1.52443 3.65349   1 
   1  -5   5 0.06148 4.48717   2 
   2  -5   5 89.2894 5.06359   1 
   2  -5   5 43.5149 6.36150   2 
   3  -5   5 56.9758 10.2171   2 
   3  -5   5 110.679 12.4353   1 
   4  -5   5 43.8018 7.24677   2 
   4  -5   5 97.1805 22.9981   1 
   5  -5   5 123.273 13.0801   1 
   5  -5   5 65.5592 8.14710   2 
   6  -5   5 12.1239 9.42886   1 
   6  -5   5 14.4031 6.97852   2 
   7  -5   5 41.7926 8.38010   2 
   7  -5   5 67.3514 12.5660   1 
   8  -5   5 2.44396 7.34461   2 
   8  -5   5 12.5258 11.4508   1 
   9  -5   5 2.93017 7.61257   2 
   9  -5   5 -0.5904 11.8720   1 
  10  -5   5 -2.5668 8.39484   2 
  10  -5   5 15.9851 13.2953   1 
  11  -5   5 0.74656 12.4833   1 
  11  -5   5 7.42302 9.06817   2 
 -12  -4   5 23.4967 8.80461   1 
 -11  -4   5 0.85361 7.07919   1 
 -11  -4   5 18.8985 11.8420   2 
 -10  -4   5 44.4991 8.85109   1 
 -10  -4   5 4.69690 10.2115   2 
  -9  -4   5 43.9892 8.21805   1 
  -9  -4   5 2.70090 9.07974   2 
  -8  -4   5 7.18119 6.45202   1 
  -8  -4   5 6.09906 8.24622   2 
  -7  -4   5 1.62142 7.83631   2 
  -7  -4   5 22.7937 6.76020   1 
  -6  -4   5 -2.0278 7.13318   2 
  -6  -4   5 -0.7984 5.36593   1 
  -5  -4   5 20.1141 7.86931   2 
  -5  -4   5 72.8889 7.87853   1 
  -4  -4   5 22.4260 5.89361   1 
  -4  -4   5 13.2137 7.01169   2 
  -3  -4   5 14.8645 5.21194   1 
  -2  -4   5 29.4232 4.17237   2 
  -2  -4   5 50.6659 5.71049   1 
  -1  -4   5 127.003 6.82361   1 
  -1  -4   5 60.8451 5.49451   2 
   0  -4   5 5.87898 4.50694   2 
   0  -4   5 10.4375 4.16239   1 
   1  -4   5 263.896 9.45937   2 
   1  -4   5 538.191 10.7618   1 
   2  -4   5 1.28866 3.63240   1 
   2  -4   5 8.66841 3.92106   2 
  -5   1   6 470.473 10.3901  -2 
   3  -4   5 470.473 10.3901   1 
   3  -4   5 196.406 7.71011   2 
   4  -4   5 11.1217 4.74035   2 
   4  -4   5 41.0224 4.87990   1 
   5  -4   5 136.811 13.2476   1 
   5  -4   5 59.3498 6.28281   2 
   6  -4   5 49.8188 6.22074   2 
   6  -4   5 132.068 13.6943   1 
  -9   0   4 27.0442 14.5021  -2 
   7  -4   5 27.0442 14.5021   1 
   7  -4   5 7.09017 5.30497   2 
   8  -4   5 -3.5930 6.36765   2 
   8  -4   5 10.8444 10.6349   1 
   9  -4   5 4.86996 6.93013   2 
   9  -4   5 10.8516 11.5156   1 
  10  -4   5 2.43034 7.65277   2 
  10  -4   5 16.9295 12.2850   1 
  11  -4   5 -8.2666 12.1743   2 
  12  -4   5 3.94717 9.15758   2 
  12  -4   5 17.9868 13.6247   1 
 -12  -3   5 21.8999 15.1891   1 
 -12  -3   5 -0.7731 12.3204   2 
 -11  -3   5 39.5874 13.3554   2 
 -11  -3   5 65.4389 9.58794   1 
 -10  -3   5 -1.9677 10.9257   2 
 -10  -3   5 -3.6571 6.96090   1 
   7   4  11 40.3874 11.2336  -2 
  -9  -3   5 40.3874 11.2336   1 
  -9  -3   5 28.6616 10.7221   2 
  -8  -3   5 19.5686 6.14411   1 
  -8  -3   5 7.42343 8.87331   2 
  -7  -3   5 6.45286 6.12575   1 
  -7  -3   5 0.97955 7.07964   2 
  -6  -3   5 5.91263 6.57818   2 
  -6  -3   5 6.36969 5.67738   1 
  -5  -3   5 131.693 8.39885   1 
  -5  -3   5 68.7686 8.74833   2 
  -4  -3   5 5.38679 4.92909   1 
  -4  -3   5 2.54825 6.27625   2 
  -3  -3   5 218.750 5.45108   2 
  -3  -3   5 415.506 11.1675   1 
  -2  -3   5 -1.6988 4.48602   1 
  -2  -3   5 -1.4336 3.12717   2 
  -1  -3   5 48.8754 3.74819   2 
  -1  -3   5 103.977 6.42390   1 
   0  -3   5 164.748 7.29585   1 
   0  -3   5 82.5534 4.68685   2 
   1  -3   5 17.4275 4.41219   1 
   1  -3   5 13.1491 4.64959   2 
   2  -3   5 129.279 7.35920   2 
   2  -3   5 317.978 8.58648   1 
   3  -3   5 5.53135 3.97057   1 
   3  -3   5 9.40998 4.84210   2 
   4  -3   5 81.4478 7.39439   2 
   4  -3   5 185.940 7.54568   1 
   5  -3   5 14.7499 7.54623   2 
   5  -3   5 1.36181 4.34504   1 
   6  -3   5 5.70063 4.98262   2 
   6  -3   5 32.9018 5.32624   1 
   7  -3   5 20.2354 6.06546   1 
   7  -3   5 4.87956 4.91048   2 
   8  -3   5 35.7407 11.4461   1 
   8  -3   5 7.46958 5.19564   2 
   9  -3   5 -12.933 9.33119   1 
   9  -3   5 -2.5780 5.63265   2 
  10  -3   5 30.9908 7.08147   2 
  10  -3   5 78.8304 14.1859   1 
  11  -3   5 -9.9705 11.2109   1 
  11  -3   5 5.44264 7.42721   2 
  12  -3   5 26.3752 13.9905   1 
  12  -3   5 7.11118 8.53790   2 
 -13  -2   5 -1.9970 14.0438   1 
 -12  -2   5 7.56653 12.4293   1 
 -12  -2   5 -3.7848 13.6874   2 
 -11  -2   5 0.46081 6.96994   1 
 -11  -2   5 20.4644 12.9258   2 
 -10  -2   5 32.3092 7.89187   1 
  -9  -2   5 20.5597 6.50328   1 
  -9  -2   5 17.6782 11.2309   2 
  -8  -2   5 -1.7190 5.35580   1 
  -8  -2   5 -9.2375 8.30015   2 
  -7  -2   5 76.0747 7.60410   1 
  -7  -2   5 26.1400 8.53997   2 
  -6  -2   5 26.2062 5.84532   1 
  -6  -2   5 6.56312 6.88886   2 
  -5  -2   5 46.4615 6.31777   1 
  -5  -2   5 24.1888 7.74166   2 
  -4  -2   5 228.055 11.8170   2 
  -4  -2   5 475.923 11.9659   1 
  -3  -2   5 137.179 7.36028   1 
  -3  -2   5 69.8922 8.34970   2 
  -2  -2   5 26.5695 3.52519   2 
  -2  -2   5 56.6087 5.67803   1 
  -1  -2   5 174.955 7.39982   1 
  -1  -2   5 77.2627 5.09201   2 
   0  -2   5 -3.8997 3.80743   1 
   0  -2   5 -5.9680 3.79138   2 
   1  -2   5 0.93516 3.90780   1 
   1  -2   5 0.29357 4.01452   2 
   2  -2   5 30.9203 4.53667   1 
   2  -2   5 10.9416 4.47385   2 
   3  -2   5 32.0377 4.57000   1 
   3  -2   5 15.8100 4.84458   2 
   4  -2   5 217.836 7.98595   1 
   5  -2   5 25.8221 4.86490   1 
   5  -2   5 15.2075 5.62433   2 
   6  -2   5 59.2692 7.16975   2 
   6  -2   5 170.992 8.45611   1 
   7  -2   5 95.2692 7.71399   1 
   7  -2   5 35.4557 6.82205   2 
   8  -2   5 86.0286 12.6222   1 
   8  -2   5 48.1704 7.56265   2 
   9  -2   5 117.216 9.55121   1 
   9  -2   5 49.2668 6.97837   2 
  10  -2   5 7.88850 6.29209   2 
  10  -2   5 5.00888 10.1748   1 
  11  -2   5 74.2321 15.3584   1 
  11  -2   5 9.66568 6.36207   2 
  12  -2   5 1.14734 12.2244   1 
  12  -2   5 4.45927 8.48545   2 
  13  -2   5 -6.0241 8.59586   2 
 -13  -1   5 4.60907 15.1593   2 
 -13  -1   5 -3.5023 12.7635   1 
 -12  -1   5 10.6983 13.5070   1 
 -12  -1   5 13.7429 15.0676   2 
 -11  -1   5 9.23392 12.7747   1 
 -11  -1   5 -21.900 12.0637   2 
 -10  -1   5 1.92447 6.72210   1 
 -10  -1   5 3.83756 11.5402   2 
  -9  -1   5 16.8904 10.4918   2 
  -9  -1   5 46.5348 7.62257   1 
  -8  -1   5 27.0275 10.1561   2 
  -8  -1   5 23.3839 6.29665   1 
  -7  -1   5 29.2982 6.16902   1 
  -7  -1   5 8.24006 8.34134   2 
  -6  -1   5 318.138 17.4966   1 
  -6  -1   5 130.941 11.1708   2 
   4   4   8 222.340 10.3229  -2 
  -5  -1   5 222.340 10.3229   1 
  -5  -1   5 45.2751 8.38150   2 
  -4  -1   5 140.204 10.3481   2 
  -4  -1   5 299.026 9.51385   1 
  -3  -1   5 92.7363 3.66551   2 
  -3  -1   5 156.755 7.52094   1 
  -2  -1   5 37.5716 4.39165   2 
  -2  -1   5 59.0535 5.41426   1 
   0   3   6 213.819 13.8686  -2 
  -1  -1   5 213.819 13.8686   1 
  -1  -1   5 118.695 5.53906   2 
  -1  -1   5 207.879 11.0094   1 
   0  -1   5 163.309 7.00772   1 
   0  -1   5 92.1884 5.56783   2 
   1  -1   5 11.6289 4.08379   1 
   1  -1   5 8.58167 4.31333   2 
   2  -1   5 128.627 6.31780   1 
   2  -1   5 62.7188 8.40854   2 
   3  -1   5 157.004 6.80106   1 
   3  -1   5 72.5295 6.17268   2 
   4  -1   5 40.8521 5.12123   1 
   4  -1   5 15.2377 5.02980   2 
   5  -1   5 192.418 8.17741   1 
   5  -1   5 82.6099 6.91722   2 
   6  -1   5 17.5381 5.41508   2 
   6  -1   5 51.9041 6.53562   1 
   7  -1   5 231.589 10.0798   1 
   7  -1   5 100.208 7.89415   2 
   8  -1   5 33.9948 7.12827   2 
   8  -1   5 80.9007 7.83224   1 
   9  -1   5 1.31270 5.89027   2 
   9  -1   5 27.0775 7.10149   1 
  10  -1   5 5.93567 6.94405   1 
  10  -1   5 7.31899 6.89269   2 
  11  -1   5 9.76446 5.89239   2 
  11  -1   5 11.3185 7.19777   1 
  12  -1   5 -3.5165 10.7130   1 
  13  -1   5 5.21637 6.86956   2 
  13  -1   5 -18.163 11.8239   1 
 -13   0   5 28.6208 14.6887   1 
 -13   0   5 -8.3840 13.5990   2 
 -12   0   5 25.1610 14.7318   1 
 -12   0   5 31.3044 15.4149   2 
 -11   0   5 11.0609 12.9789   1 
 -11   0   5 -15.221 11.8468   2 
 -10   0   5 69.0195 15.2849   1 
 -10   0   5 34.4983 12.5881   2 
  -9   0   5 14.7753 10.5094   2 
  -9   0   5 20.8191 6.32331   1 
  -8   0   5 20.8342 5.97938   1 
  -8   0   5 14.6112 8.71265   2 
  -7   0   5 199.034 9.31773   1 
  -7   0   5 101.642 11.4159   2 
  -6   0   5 22.2633 5.21939   1 
  -6   0   5 18.9847 3.51414   2 
  -5   0   5 115.932 4.82570   2 
  -5   0   5 239.846 8.75632   1 
  -4   0   5 1.85444 2.56032   2 
  -4   0   5 1.53420 4.04701   1 
  -3   0   5 13.1886 2.97375   2 
  -3   0   5 34.4126 4.83264   1 
  -2   0   5 -4.8536 2.90411   2 
  -2   0   5 0.43591 3.71817   1 
  -1   0   5 23.7905 4.65756   1 
  -1   0   5 4.74162 3.44242   2 
   0   0   5 4.41676 5.57189   2 
   0   0   5 5.12621 3.82283   1 
   1   0   5 166.670 6.85574   2 
   1   0   5 382.523 9.39302   1 
   2   0   5 212.035 7.44675   1 
   2   0   5 92.7155 5.81184   2 
   3   0   5 80.6364 6.01636   2 
   3   0   5 168.496 7.18134   1 
   4   0   5 289.143 8.81431   1 
   4   0   5 124.476 7.13839   2 
   5   0   5 115.529 7.46407   2 
   5   0   5 255.837 7.56990   1 
   6   0   5 8.37215 4.96118   2 
   6   0   5 9.10623 4.03219   1 
   7   0   5 17.5538 4.67320   1 
   7   0   5 8.15149 4.99095   2 
   8   0   5 27.0714 5.29800   1 
   8   0   5 14.4088 5.77529   2 
   9   0   5 -5.5446 5.59446   2 
   9   0   5 6.51493 5.06769   1 
  10   0   5 -0.1477 6.00343   2 
  10   0   5 4.41441 5.27016   1 
  11   0   5 8.34812 6.45100   2 
  11   0   5 6.27066 5.83582   1 
  12   0   5 5.18903 6.25441   1 
  12   0   5 16.6461 6.58901   2 
  13   0   5 3.48843 8.23351   1 
  13   0   5 3.05349 6.22720   2 
 -13   1   5 2.36348 15.4694   2 
 -12   1   5 20.5884 13.5202   1 
 -11   1   5 44.8772 15.1416   2 
 -11   1   5 68.1285 15.2993   1 
 -10   1   5 11.5087 11.3259   1 
 -10   1   5 8.34987 11.9285   2 
  -9   1   5 40.7388 12.2309   2 
  -9   1   5 80.3515 13.9330   1 
  -8   1   5 11.0042 9.36628   2 
  -8   1   5 27.2448 5.61043   1 
  -7   1   5 19.9147 5.24404   1 
  -7   1   5 8.71441 4.57956   2 
  -6   1   5 0.75448 4.36176   1 
  -6   1   5 11.6500 4.01788   2 
  -5   1   5 -3.3602 3.68620   1 
  -5   1   5 1.54911 3.42853   2 
  -4   1   5 9.01981 3.40485   2 
  -4   1   5 17.9163 4.28121   1 
  -3   1   5 615.630 10.8706   1 
  -3   1   5 333.080 7.73298   2 
  -2   1   5 56.6666 4.29584   2 
  -2   1   5 107.302 5.47825   1 
  -1   1   5 23.0949 3.94058   1 
  -1   1   5 5.75989 3.60294   2 
   0   1   5 84.6863 5.23443   1 
   0   1   5 38.4241 4.24638   2 
   1   1   5 205.909 7.07636   1 
   1   1   5 102.485 5.61084   2 
   2   1   5 167.918 7.00475   2 
   2   1   5 353.701 8.93456   1 
   3   1   5 154.859 5.72747   1 
   3   1   5 65.8144 5.42269   2 
   4   1   5 1010.99 12.9352   1 
   4   1   5 403.978 9.82898   2 
  -5   3   2 637.225 19.3657  -2 
   5   1   5 637.225 19.3657   1 
   6   1   5 954.708 17.3186   1 
   6   1   5 386.418 11.0213   2 
   7   1   5 10.9224 5.07742   2 
   7   1   5 25.1967 5.90172   1 
   8   1   5 148.618 9.86401   1 
   8   1   5 59.8819 7.12245   2 
   9   1   5 6.70887 5.63674   2 
  -9   2   0 -2.4844 13.8064  -2 
   9   1   5 -2.4844 13.8064   1 
  10   1   5 129.097 10.7989   1 
  10   1   5 27.1594 10.3070   2 
  11   1   5 0.02187 6.24530   2 
  11   1   5 7.77983 7.18234   1 
  12   1   5 16.5860 7.11064   1 
  12   1   5 -1.0785 6.39390   2 
  13   1   5 7.12553 8.77025   1 
  13   1   5 -2.7777 6.00261   2 
 -12   2   5 -1.2443 12.9913   2 
 -12   2   5 40.6872 15.1829   1 
 -11   2   5 6.49792 11.1006   1 
 -11   2   5 6.56343 12.1277   2 
 -10   2   5 26.2008 12.5931   1 
 -10   2   5 11.7200 11.4445   2 
  -9   2   5 6.96756 10.3857   2 
  -9   2   5 7.70429 10.1863   1 
  -8   2   5 8.28319 5.54940   2 
  -8   2   5 9.03481 5.01990   1 
   7   6   7 88.0773 7.65779  -2 
  -7   2   5 88.0773 7.65779   1 
  -7   2   5 13.1502 5.19740   2 
  -6   2   5 9.76941 4.56844   2 
  -6   2   5 13.9680 4.51536   1 
  -5   2   5 17.0312 4.21883   2 
  -5   2   5 18.0819 3.90776   1 
  -4   2   5 143.520 6.41070   2 
  -4   2   5 293.276 7.49289   1 
   3   5   5 101.758 6.51201  -2 
  -3   2   5 101.758 6.51201   1 
  -3   2   5 40.2277 4.45236   2 
  -2   2   5 402.911 9.08717   2 
  -2   2   5 777.652 10.7013   1 
  -1   2   5 58.3506 4.33768   1 
  -1   2   5 32.7953 6.67484   2 
   0   2   5 135.583 5.68485   1 
   0   2   5 64.9227 4.92639   2 
   1   2   5 188.443 6.62798   1 
   1   2   5 105.645 5.53787   2 
   2   2   5 180.256 5.71962   1 
   2   2   5 74.9898 5.17716   2 
   3   2   5 57.5272 5.12566   2 
   3   2   5 147.965 6.96782   1 
   4   2   5 175.056 7.93429   1 
   4   2   5 74.1751 5.63656   2 
   5   2   5 165.364 8.26538   1 
   5   2   5 74.9008 5.85290   2 
   6   2   5 206.364 8.29585   2 
   6   2   5 511.788 12.9793   1 
   7   2   5 24.0758 5.89355   1 
   7   2   5 8.42905 4.81123   2 
   8   2   5 21.9912 6.38012   1 
   8   2   5 0.80777 4.94000   2 
   9   2   5 193.664 11.0906   1 
   9   2   5 73.8028 7.59024   2 
  10   2   5 8.93626 5.86831   2 
  10   2   5 9.56452 6.94245   1 
  11   2   5 15.4519 6.73687   2 
  11   2   5 72.7627 9.77090   1 
  12   2   5 4.17936 6.44092   2 
  12   2   5 1.45554 7.45539   1 
  13   2   5 4.71253 7.13283   2 
  13   2   5 11.8263 8.71601   1 
  14   2   5 2.63227 8.92139   1 
  14   2   5 10.5578 11.5472   2 
 -12   3   5 -0.1137 12.1814   1 
 -12   3   5 16.2017 15.7559   2 
 -11   3   5 -9.0788 10.8393   1 
 -11   3   5 18.5172 14.5211   2 
 -10   3   5 6.67883 11.5141   2 
 -10   3   5 11.8041 10.7965   1 
  -9   3   5 18.4727 11.2774   2 
  -9   3   5 23.4335 10.7820   1 
  -8   3   5 98.4808 13.7747   1 
  -8   3   5 54.4544 7.46673   2 
  -7   3   5 -1.3443 5.43912   2 
  -7   3   5 4.44412 4.06345   1 
  -6   3   5 229.035 7.34356   1 
  -6   3   5 105.145 7.20058   2 
  -5   3   5 144.646 5.58939   1 
  -5   3   5 83.5402 6.14583   2 
  -4   3   5 118.399 4.85770   1 
  -3   3   5 39.2193 3.09105   1 
  -3   3   5 20.2050 4.17365   2 
  -2   3   5 46.4303 4.62096   2 
  -2   3   5 89.4017 4.11455   1 
  -1   3   5 401.986 7.62459   1 
  -1   3   5 172.011 7.48958   2 
   0   3   5 16.0113 3.46003   1 
   0   3   5 -4.8948 4.16927   2 
   1   3   5 86.8614 5.46174   2 
   1   3   5 184.179 6.53440   1 
   2   3   5 45.7244 4.56818   2 
   2   3   5 98.2806 5.88040   1 
   3   3   5 161.707 7.15765   1 
   3   3   5 66.7221 5.04961   2 
   4   3   5 175.104 7.77982   1 
   4   3   5 73.3263 5.40999   2 
   5   3   5 122.496 6.48449   2 
   5   3   5 310.216 10.1956   1 
   6   3   5 47.2446 5.39615   2 
   6   3   5 115.277 7.93525   1 
   7   3   5 538.649 14.3879   1 
   7   3   5 223.848 8.72960   2 
   8   3   5 29.9605 5.79362   2 
   8   3   5 55.8655 7.60813   1 
   9   3   5 35.0056 6.36992   2 
   9   3   5 59.9243 7.88359   1 
  10   3   5 3.95781 7.26866   2 
  10   3   5 31.0145 7.96197   1 
  10  -3   2 22.8375 23.5317  -2 
  11   3   5 22.8375 23.5317   1 
  11   3   5 0.93477 5.25233   2 
  11   3   5 3.11092 9.80234   1 
  12   3   5 13.5086 6.34744   2 
  12   3   5 17.8775 8.50581   1 
  13   3   5 4.21569 8.32740   1 
  13   3   5 -6.8351 9.21541   2 
  14   3   5 9.49321 12.2471   2 
  14   3   5 10.1755 9.39177   1 
 -12   4   5 -13.745 12.8989   2 
 -12   4   5 34.9669 14.1327   1 
 -11   4   5 -4.9725 11.3660   1 
 -11   4   5 0.41782 12.7678   2 
 -10   4   5 19.8235 11.0818   1 
 -10   4   5 19.1131 12.1594   2 
  -9   4   5 10.5791 10.4718   1 
  -9   4   5 17.8613 7.26152   2 
  -8   4   5 2.12265 6.45140   2 
  -8   4   5 11.5655 8.94200   1 
  -7   4   5 446.305 20.2085   1 
  -7   4   5 183.833 10.1140   2 
  -6   4   5 31.7493 6.27637   2 
  -6   4   5 67.9334 10.6280   1 
  -5   4   5 143.987 4.69473   1 
  -5   4   5 82.1656 6.85126   2 
  -4   4   5 23.7673 4.81132   2 
  -4   4   5 47.8571 8.74150   1 
  -3   4   5 192.312 11.9545   1 
  -3   4   5 80.4310 6.17225   2 
  -2   4   5 0.03392 3.79299   2 
  -2   4   5 8.40315 5.70373   1 
  -1   4   5 105.803 4.06029   1 
  -1   4   5 63.4208 5.11860   2 
   0   4   5 117.187 9.58964   1 
   0   4   5 66.2493 5.46503   2 
   1   4   5 68.2361 5.11913   2 
   1   4   5 140.409 6.05420   1 
   2   4   5 27.9141 4.57857   1 
   2   4   5 12.1050 3.74236   2 
  -2   5   1 770.402 13.6459  -2 
   3   4   5 770.402 13.6459   1 
   3   4   5 224.354 7.12651   2 
   4   4   5 78.2005 5.12051   2 
   4   4   5 151.214 7.52943   1 
   5   4   5 66.7805 5.24102   2 
   5   4   5 164.269 8.48718   1 
   6   4   5 78.1932 5.61030   2 
   6   4   5 209.049 9.55725   1 
   7   4   5 7.70901 4.38340   2 
   6  -4   1 94.9191 10.1791  -2 
   7   4   5 94.9191 10.1791   1 
   8   4   5 176.976 10.4080   1 
   8   4   5 72.1183 6.31883   2 
   9   4   5 3.03523 5.14724   2 
   9   4   5 6.26651 6.10147   1 
  10   4   5 -1.7031 6.44695   1 
  10   4   5 -2.3742 4.87958   2 
  10  -3   3 56.7868 23.5456  -2 
  11   4   5 56.7868 23.5456   1 
  11   4   5 14.9274 10.2739   1 
  11   4   5 -0.1040 5.68114   2 
  12   4   5 25.8126 8.36161   1 
  12   4   5 2.55989 10.3130   2 
  13   4   5 15.2514 8.84753   1 
  13   4   5 -10.442 9.58007   2 
  14   4   5 41.4611 10.5470   1 
  14   4   5 -0.8854 10.6158   2 
 -12   5   5 28.1441 16.3714   2 
 -12   5   5 26.9221 13.5413   1 
 -11   5   5 62.9189 15.7582   1 
 -10   5   5 26.9589 11.5285   1 
 -10   5   5 -14.754 10.1308   2 
  -9   5   5 48.2670 9.14029   2 
  -9   5   5 95.7359 13.9453   1 
  -8   5   5 11.4807 6.98910   2 
  -7   5   5 1.80467 8.80378   1 
  -7   5   5 -3.0286 5.87458   2 
  -6   5   5 68.0214 7.61042   2 
  -6   5   5 159.600 13.2662   1 
  -5   5   5 15.4419 7.71754   1 
  -5   5   5 3.26324 4.93956   2 
  -4   5   5 8.58436 6.81218   1 
  -4   5   5 0.45832 4.23294   2 
  -3   5   5 38.7805 5.34450   2 
  -3   5   5 94.5884 9.34055   1 
  -2   5   5 97.5715 9.21042   1 
  -2   5   5 42.7225 5.07880   2 
  -1   5   5 159.572 4.52615   1 
  -1   5   5 94.6099 6.25032   2 
   0   5   5 159.795 5.47525   1 
   0   5   5 85.7127 5.66508   2 
   1   5   5 111.988 5.48971   1 
   1   5   5 71.5406 5.33890   2 
   2   5   5 214.832 6.80757   2 
   2   5   5 432.920 9.88898   1 
   3   5   5 80.1887 9.81041   1 
   4   5   5 280.610 9.31738   1 
   4   5   5 130.468 5.41533   2 
   5   5   5 5.39253 4.79802   1 
   5   5   5 6.51483 3.24178   2 
   6   5   5 26.0625 6.16580   1 
   6   5   5 14.7329 3.83587   2 
   7   5   5 27.8312 4.69190   2 
   7   5   5 47.2255 7.08059   1 
   8   5   5 -0.0877 5.77866   1 
   8   5   5 -3.1780 3.95629   2 
   9   5   5 -3.8378 5.65856   1 
   9   5   5 5.42960 4.57679   2 
  10   5   5 102.434 10.2571   1 
  10   5   5 43.9033 10.4280   2 
  11   5   5 -8.5891 7.78389   1 
  11   5   5 3.17856 9.56892   2 
  12   5   5 7.76277 10.0648   2 
  12   5   5 9.33702 7.68689   1 
  13   5   5 12.1981 9.95443   2 
  13   5   5 1.91328 8.47779   1 
  14   5   5 14.4624 9.55712   1 
 -11   6   5 -5.4602 9.43347   1 
 -11   6   5 -6.5463 12.8785   2 
 -10   6   5 22.4922 9.13576   2 
 -10   6   5 92.5682 15.1013   1 
  -9   6   5 -3.3777 7.72040   2 
  -9   6   5 5.43637 9.13170   1 
  -8   6   5 28.8501 10.6614   1 
  -8   6   5 2.02813 7.31199   2 
  -7   6   5 1.66296 6.15394   2 
  -7   6   5 10.5734 8.79040   1 
  -6   6   5 -10.387 8.56079   2 
  -6   6   5 -1.6158 7.38211   1 
  -5   6   5 -0.6786 5.19971   2 
  -5   6   5 3.55550 7.33863   1 
  -4   6   5 71.0884 6.84484   2 
  -4   6   5 157.723 11.4745   1 
  -3   6   5 -3.7856 5.76772   1 
  -3   6   5 5.10938 4.44804   2 
  -2   6   5 285.060 9.29007   2 
  -2   6   5 584.506 17.7207   1 
  -1   6   5 6.63661 3.69963   2 
  -1   6   5 -3.3669 2.49464   1 
   0   6   5 225.218 6.58447   1 
   0   6   5 97.4779 6.06764   2 
   1   6   5 139.520 6.62040   2 
   1   6   5 263.823 7.86378   1 
   2   6   5 65.1689 5.49406   1 
   2   6   5 27.6649 3.88216   2 
   3   6   5 163.640 7.56380   1 
   3   6   5 69.8267 4.29954   2 
   4   6   5 -3.6290 4.22176   1 
   4   6   5 -4.7397 2.76955   2 
   5   6   5 51.2398 3.49697   2 
   5   6   5 98.3140 7.53824   1 
   6   6   5 186.264 9.56101   1 
   6   6   5 91.0406 4.75040   2 
   7   6   5 4.70709 3.59809   2 
   7   6   5 2.63563 5.81609   1 
   8   6   5 40.8303 7.74300   1 
   8   6   5 8.70520 4.28686   2 
   9   6   5 37.1647 8.12391   1 
   9   6   5 33.5355 10.0510   2 
  10   6   5 21.3970 7.16499   1 
  11   6   5 62.7046 10.0824   1 
  12   6   5 6.41805 9.87455   2 
  12   6   5 -1.0569 8.11243   1 
  11  -4   5 57.2506 19.4469  -2 
  13   6   5 57.2506 19.4469   1 
  13   6   5 8.13151 13.6092   1 
  14   6   5 9.19331 9.23387   1 
 -11   7   5 -3.9419 13.4701   2 
 -10   7   5 18.1042 9.46714   2 
  -9   7   5 13.0160 9.98040   1 
  -9   7   5 9.67727 11.5321   2 
  -8   7   5 3.66709 8.51155   1 
  -8   7   5 2.63692 7.28733   2 
  -7   7   5 -1.3100 7.57254   2 
  -7   7   5 10.7384 8.79449   1 
  -6   7   5 26.7428 6.95372   2 
  -6   7   5 70.0972 10.2994   1 
   7   8   3 33.3856 12.8499  -2 
  -5   7   5 33.3856 12.8499   1 
  -5   7   5 22.3179 6.19641   2 
  -4   7   5 134.557 11.2310   1 
  -3   7   5 52.3550 6.08967   2 
  -3   7   5 130.174 10.4230   1 
  -2   7   5 77.2666 6.31876   2 
  -2   7   5 174.061 4.62046   1 
   3   7   1 383.482 8.28387  -2 
  -1   7   5 383.482 8.28387   1 
  -1   7   5 104.907 6.43739   2 
   0   7   5 -3.2503 3.30708   1 
   0   7   5 27.5875 8.12049   2 
   1   7   5 7.41972 3.89617   2 
   1   7   5 26.9956 4.51255   1 
   2   7   5 79.1292 6.01227   1 
   2   7   5 35.5240 4.35380   2 
   3   7   5 -2.2506 2.73597   2 
   3   7   5 28.0945 7.81554   1 
   4   7   5 2.94555 7.13188   2 
   4   7   5 -0.4210 4.53146   1 
   5   7   5 67.3493 6.94806   1 
   5   7   5 26.3943 8.86962   2 
   6   7   5 2.69184 7.66406   2 
   6   7   5 4.73669 5.22135   1 
   7   7   5 110.238 11.7666   2 
   7   7   5 299.712 12.2233   1 
   8   7   5 18.9169 9.43713   2 
   8   7   5 17.2624 6.83680   1 
   9   7   5 31.0167 9.36114   2 
   9   7   5 79.1358 9.50665   1 
  10   7   5 16.7547 7.11747   1 
  10   7   5 6.42448 8.47376   2 
  11   7   5 7.59800 9.30110   2 
  11   7   5 11.6617 8.10429   1 
  12   7   5 18.9987 8.79565   1 
  12   7   5 -0.8150 9.14023   2 
  13   7   5 -8.2131 8.33001   1 
  14   7   5 -24.055 14.3682   1 
  -9   8   5 9.60487 8.43063   2 
  -8   8   5 24.8488 8.81968   2 
  -7   8   5 7.59006 7.19841   2 
  -7   8   5 20.9442 9.52620   1 
  -6   8   5 141.343 12.5272   1 
  -6   8   5 59.6805 8.45747   2 
  -5   8   5 11.1576 7.95885   1 
  -5   8   5 15.1582 6.22262   2 
  -4   8   5 9.21594 6.93063   2 
  -4   8   5 33.0003 7.99740   1 
  -3   8   5 66.7618 6.90701   2 
  -3   8   5 169.316 11.6368   1 
  -2   8   5 53.2232 4.10031   1 
  -2   8   5 18.3853 5.05902   2 
  -1   8   5 -0.7939 3.32111   1 
  -1   8   5 8.19255 4.11751   2 
   0   8   5 62.7898 5.30979   2 
   0   8   5 136.751 6.54741   1 
   1   8   5 61.3676 5.15562   2 
   1   8   5 150.443 6.93145   1 
   2   8   5 -0.6606 3.31864   2 
   2   8   5 21.4695 4.98221   1 
   3   8   5 41.8042 3.42026   2 
   3   8   5 97.4085 7.18857   1 
   4   8   5 -4.8372 4.70767   1 
   5   8   5 49.9129 9.86656   2 
   5   8   5 90.4110 8.11247   1 
   6   8   5 45.4141 9.86469   2 
   6   8   5 97.0509 8.56134   1 
   7   8   5 9.48729 6.33683   1 
   7   8   5 10.6999 8.06024   2 
   8   8   5 91.0634 9.60020   1 
   8   8   5 36.6572 9.65241   2 
   9   8   5 13.4165 9.92861   2 
   9   8   5 8.92459 7.23532   1 
  10   8   5 -1.3286 7.67172   1 
  10   8   5 -2.3658 7.55397   2 
  11   8   5 -1.9480 7.92595   1 
  11   8   5 4.81431 9.12747   2 
  12   8   5 8.23711 9.35014   2 
  12   8   5 -1.9061 9.52720   1 
  13   8   5 0.98541 8.89734   1 
 -10   9   5 -5.2622 9.22750   2 
  -9   9   5 4.26509 9.04214   2 
  -8   9   5 10.1242 8.20577   2 
  -7   9   5 5.52161 7.90913   2 
  -6   9   5 86.8855 11.0674   1 
  -6   9   5 33.0570 8.05312   2 
  -5   9   5 9.17909 7.32811   1 
  -5   9   5 2.55028 6.13579   2 
  -4   9   5 10.1799 4.82589   2 
  -4   9   5 34.0721 8.02362   1 
  -3   9   5 5.59702 4.37645   2 
  -3   9   5 1.91635 6.59570   1 
  -2   9   5 10.3784 5.11962   2 
  -2   9   5 44.2552 7.52947   1 
  -1   9   5 4.69538 4.59567   2 
  -1   9   5 13.5710 4.33883   1 
   0   9   5 22.2039 4.57243   2 
   0   9   5 63.9194 5.42773   1 
   1   9   5 2.84264 3.70958   2 
   1   9   5 14.5883 6.09940   1 
   2   9   5 360.470 10.8671   1 
   2   9   5 173.774 6.91934   2 
   3   9   5 -8.0953 2.83415   2 
   3   9   5 -7.9703 4.53659   1 
   4   9   5 109.165 8.25344   1 
   4   9   5 34.8636 9.76171   2 
   2  -7   3 47.0457 7.99895  -2 
   5   9   5 47.0457 7.99895   1 
   5   9   5 18.1486 8.78150   2 
   6   9   5 39.5951 9.89144   2 
   6   9   5 67.8782 8.38206   1 
   7   9   5 10.2995 6.49255   1 
   7   9   5 11.0375 9.05084   2 
   8   9   5 -4.9212 7.40329   2 
   8   9   5 11.4333 7.05275   1 
   6  -6   5 67.1771 12.0148  -2 
   9   9   5 67.1771 12.0148   1 
   9   9   5 -0.7144 8.07716   2 
  10   9   5 3.55256 9.08355   2 
  10   9   5 4.66068 7.53918   1 
  11   9   5 -1.9239 7.52645   1 
  11   9   5 -9.2280 8.57938   2 
  12   9   5 24.7770 9.97303   1 
  13   9   5 -6.4075 8.46756   1 
  -9  10   5 7.20192 9.16510   2 
  -8  10   5 24.9352 9.57869   2 
  -7  10   5 4.35026 7.87639   2 
  -6  10   5 1.19781 11.7155   2 
  -5  10   5 8.01177 5.53798   2 
  -4  10   5 -0.2607 4.48594   2 
  -3  10   5 -0.4979 9.11410   2 
  -3  10   5 15.2620 7.06879   1 
  -2  10   5 18.1090 4.60158   2 
  -2  10   5 26.0734 7.29112   1 
  -1  10   5 16.4297 4.44742   1 
  -1  10   5 4.33019 5.10513   2 
   0  10   5 372.747 10.1984   1 
   0  10   5 149.156 7.87640   2 
   1  10   5 5.42529 4.90347   1 
   1  10   5 2.56322 3.90351   2 
   2  10   5 5.84076 5.26639   1 
   2  10   5 0.87591 3.62265   2 
   3  10   5 118.267 8.30013   1 
   3  10   5 61.5682 10.8953   2 
   4  10   5 9.63256 6.07382   1 
   4  10   5 12.6879 8.76823   2 
   5  10   5 42.6053 7.24262   1 
   5  10   5 32.7736 9.51849   2 
   6  10   5 27.0114 6.95230   1 
   6  10   5 -4.8902 8.10218   2 
   7  10   5 38.4290 7.84882   1 
   7  10   5 11.6810 8.56915   2 
   8  10   5 14.9759 7.48357   1 
   8  10   5 -5.6697 7.98251   2 
   9  10   5 3.23301 8.43738   2 
   9  10   5 1.09979 7.36730   1 
  10  10   5 0.16449 7.43377   1 
  10  10   5 0.77147 7.72340   2 
  11  10   5 20.0904 9.75749   1 
  11  10   5 5.58234 8.55465   2 
  12  10   5 -1.2983 9.03878   1 
  13  10   5 7.15637 9.53395   1 
  -8  11   5 -3.8681 8.49032   2 
  -7  11   5 -7.2250 6.36920   2 
  -6  11   5 11.8720 6.22620   2 
  -5  11   5 0.63176 5.73652   2 
  -4  11   5 13.6863 5.71923   2 
  -3  11   5 1.76595 5.46377   2 
  -2  11   5 -0.5411 4.32721   2 
  -1  11   5 113.198 6.60416   2 
  -1  11   5 263.161 13.4970   1 
   0  11   5 34.7695 5.66227   2 
   0  11   5 103.341 10.2249   1 
  -4  -9   2 97.5420 15.3883  -2 
   0  11   5 97.5420 15.3883   1 
   1  11   5 38.0044 6.27613   1 
   1  11   5 16.2620 4.73118   2 
   2  11   5 -0.6360 5.52347   1 
   3  11   5 0.24590 5.75233   1 
   3  11   5 12.2059 9.17752   2 
   4  11   5 -1.3743 8.54028   2 
   4  11   5 4.34015 6.05399   1 
   5  11   5 2.83102 5.90617   1 
   5  11   5 9.14378 8.85720   2 
   6  11   5 14.7117 6.89562   1 
   6  11   5 -5.9686 8.51148   2 
   7  11   5 25.2331 7.93597   1 
   8  11   5 18.8082 7.96776   1 
   8  11   5 20.5012 10.1273   2 
   9  11   5 15.1882 8.27999   1 
   9  11   5 -9.9509 8.41530   2 
  10  11   5 11.4949 7.93078   1 
  10  11   5 4.04019 9.47139   2 
   7  -7   7 -43.622 20.7235  -2 
  11  11   5 -43.622 20.7235   1 
  11  11   5 7.54466 12.1119   1 
  12  11   5 1.82161 9.16867   1 
  -8  12   5 -3.0285 8.69058   2 
  -7  12   5 2.34835 6.68303   2 
  -6  12   5 -6.4180 6.17716   2 
  -5  12   5 9.24058 6.22097   2 
  -4  12   5 13.1725 5.94007   2 
  -3  12   5 13.5615 5.44573   2 
  -2  12   5 0.33424 4.85840   2 
  -1  12   5 -3.3731 5.35011   2 
   0  12   5 51.6970 9.33698   1 
   0  12   5 5.81740 5.24121   2 
   1  12   5 7.07717 5.54774   1 
   1  12   5 13.8884 9.70063   2 
   2  12   5 14.3553 6.36732   1 
   2  12   5 -1.4168 8.65437   2 
   3  12   5 1.32009 8.73719   2 
   3  12   5 -8.0972 8.06486   1 
  -1  -9   4 11.3002 12.9700  -2 
   3  12   5 11.3002 12.9700   1 
   4  12   5 -0.0673 6.16179   1 
   4  12   5 4.73308 9.86880   2 
   5  12   5 0.47334 8.88223   2 
   5  12   5 17.2712 7.54589   1 
   6  12   5 3.20622 10.2009   2 
   6  12   5 35.2179 7.93724   1 
   3  -8   6 20.7348 15.2279  -2 
   7  12   5 20.7348 15.2279   1 
   7  12   5 20.9320 10.9327   2 
   8  12   5 14.6656 8.16065   1 
   8  12   5 3.38394 9.19196   2 
   9  12   5 19.8152 8.20570   1 
   9  12   5 5.75803 9.10880   2 
  10  12   5 19.6929 8.99802   1 
  11  12   5 6.00628 9.00590   1 
  12  12   5 -4.4661 9.21330   1 
  -7  13   5 -3.0122 6.94909   2 
  -6  13   5 27.4180 7.42211   2 
  -5  13   5 -0.5074 12.3857   2 
  -4  13   5 23.3985 6.49327   2 
  -3  13   5 -6.7995 5.99735   2 
  -2  13   5 4.05945 5.55278   2 
  -1  13   5 3.45191 4.88544   2 
   0  13   5 3.56127 8.86543   2 
   1  13   5 -1.4861 8.99228   2 
   1  13   5 10.5849 9.49109   1 
   2  13   5 13.9673 6.55788   1 
   2  13   5 -0.1382 9.88616   2 
   3  13   5 5.57726 6.79492   1 
   3  13   5 -4.2281 9.36775   2 
   4  13   5 46.5654 12.3225   2 
   4  13   5 110.468 10.0465   1 
   5  13   5 8.63928 10.1992   2 
   5  13   5 39.3197 8.90139   1 
   6  13   5 29.3508 8.54771   1 
   6  13   5 16.6444 10.0985   2 
   7  13   5 22.1690 7.76977   1 
   7  13   5 14.1193 9.99644   2 
   8  13   5 1.62208 7.57664   1 
   8  13   5 1.60969 9.12584   2 
   9  13   5 15.6589 10.1920   2 
   9  13   5 7.31947 8.36327   1 
  10  13   5 3.74078 8.78207   1 
  11  13   5 4.74693 9.77899   1 
  -5  14   5 4.20603 6.83092   2 
  -4  14   5 17.3198 6.64885   2 
  -3  14   5 2.53870 5.91154   2 
  -2  14   5 11.8161 7.01445   2 
  -1  14   5 -0.9816 11.0352   2 
   0  14   5 23.7624 11.9504   2 
   1  14   5 -4.7303 10.5425   2 
   2  14   5 9.08308 10.4250   2 
  -3 -10   5 -5.6603 18.3967  -2 
   2  14   5 -5.6603 18.3967   1 
   3  14   5 21.9869 11.8451   1 
   4  14   5 9.98195 10.6202   2 
   4  14   5 2.65164 7.51028   1 
   5  14   5 21.1427 11.6344   2 
   5  14   5 28.4715 8.47666   1 
   6  14   5 17.8251 8.53916   1 
   6  14   5 10.1178 11.1555   2 
   7  14   5 17.2919 9.10155   1 
   7  14   5 11.3856 9.90572   2 
   8  14   5 -1.3063 8.07244   1 
   8  14   5 -1.6892 10.5740   2 
   9  14   5 -1.8308 8.65147   1 
  10  14   5 12.0776 9.19651   1 
  -4  15   5 -0.4123 6.42364   2 
  -3  15   5 -2.3894 12.8200   2 
  -2  15   5 12.2969 13.4042   2 
  -1  15   5 -0.0761 10.8332   2 
   0  15   5 -17.551 10.0224   2 
   1  15   5 19.1818 12.3989   2 
   2  15   5 1.21658 10.3729   2 
   3  15   5 6.69819 11.7900   1 
   4  15   5 4.31405 12.6850   1 
   4  15   5 -7.4487 11.4649   2 
   5  15   5 2.10038 11.3516   2 
   5  15   5 -14.099 11.5452   1 
   6  15   5 21.5556 13.2931   1 
   6  15   5 -0.4138 10.5268   2 
   7  15   5 26.2939 9.09638   1 
   7  15   5 -11.686 10.0154   2 
   8  15   5 3.40111 8.80568   1 
   9  15   5 19.8547 9.45958   1 
  -2  16   5 -15.511 11.2294   2 
  -1  16   5 -16.465 12.0054   2 
   0  16   5 -3.8104 11.0703   2 
   1  16   5 3.51804 12.5729   2 
   2  16   5 8.91481 12.8321   2 
   3  16   5 0.97866 11.8297   2 
   4  16   5 -2.4853 10.6255   2 
   4  16   5 -17.095 11.8888   1 
   5  16   5 -10.206 13.1608   1 
   5  16   5 -19.723 10.7428   2 
   6  16   5 2.07297 14.4627   1 
   6  16   5 -5.6144 10.7264   2 
   7  16   5 -3.1294 11.3357   2 
   7  16   5 21.3365 14.0124   1 
   2  17   5 16.1119 13.5197   2 
   3  17   5 -0.1521 12.2672   2 
  -4 -12   6 7.37254 13.6922   1 
  -3 -12   6 13.9751 14.9473   1 
  -2 -12   6 1.88772 12.6394   1 
  -1 -12   6 1.39900 13.9030   1 
   0 -12   6 -0.9930 13.2476   2 
   0 -12   6 23.2104 14.6149   1 
  -6  -2  13 0.96344 23.6299  -2 
   1 -12   6 0.96344 23.6299   1 
   1 -12   6 -12.766 12.1155   2 
  -6 -11   6 34.9385 14.9097   1 
  -5 -11   6 2.06191 13.0823   1 
  -4 -11   6 4.41205 11.3522   1 
  -3 -11   6 9.41197 12.5449   1 
  -2 -11   6 8.18008 11.5586   2 
  -2 -11   6 14.4625 12.8103   1 
  -1 -11   6 4.75735 12.0044   1 
  -1 -11   6 3.44816 11.5354   2 
   0 -11   6 12.0908 11.2112   2 
   0 -11   6 7.15450 13.6932   1 
   1 -11   6 8.55127 7.87460   2 
   1 -11   6 -10.839 12.3071   1 
   2 -11   6 17.7928 13.5974   1 
   2 -11   6 11.3032 7.67913   2 
   3 -11   6 4.15453 8.66526   2 
   3 -11   6 13.4491 13.7353   1 
   4 -11   6 3.40674 8.62239   2 
   4 -11   6 -3.2900 13.3107   1 
  -8 -10   6 -0.2984 12.2223   1 
  -7 -10   6 11.0443 13.4239   1 
  -6 -10   6 -2.0313 11.9734   1 
  -5 -10   6 2.77241 11.5694   1 
  -4 -10   6 0.41305 12.0529   1 
  -3 -10   6 -24.227 9.21687   2 
  -3 -10   6 8.32705 11.5981   1 
  -2 -10   6 13.4926 10.8488   2 
  -2 -10   6 16.8646 12.0087   1 
  -1 -10   6 -1.1140 11.4565   1 
  -1 -10   6 0.63745 10.7742   2 
   0 -10   6 -4.6226 6.84815   2 
   0 -10   6 -1.0107 11.6219   1 
   1 -10   6 16.4833 7.82481   2 
   1 -10   6 14.6758 12.5585   1 
   2 -10   6 -1.3616 6.78670   2 
   2 -10   6 -15.699 10.9616   1 
   3 -10   6 21.6435 8.40253   2 
   3 -10   6 9.92333 12.8572   1 
   4 -10   6 12.9180 7.82806   2 
   4 -10   6 12.9017 13.6098   1 
   5 -10   6 24.1213 14.1972   1 
   5 -10   6 -6.2765 8.18354   2 
   6 -10   6 4.34682 8.57268   2 
   6 -10   6 0.47421 13.7545   1 
  -9  -9   6 -4.4687 9.04588   1 
  -8  -9   6 -3.9545 11.3081   1 
  -7  -9   6 3.86795 8.96878   1 
  -6  -9   6 9.49493 8.20914   1 
  -5  -9   6 42.9224 13.2488   1 
  -4  -9   6 5.53423 11.8258   1 
  -4  -9   6 -3.2675 10.1556   2 
  -3  -9   6 0.85799 10.6183   1 
  -3  -9   6 15.7188 11.9610   2 
  -2  -9   6 -3.5820 9.82666   2 
  -2  -9   6 3.67376 10.3417   1 
  -3   0  12 100.219 18.0513  -2 
  -1  -9   6 100.219 18.0513   1 
  -1  -9   6 53.4394 8.28188   2 
   0  -9   6 9.38672 6.72805   2 
   0  -9   6 6.59350 11.0616   1 
   1  -9   6 -1.4719 6.57557   2 
   1  -9   6 6.60993 10.8911   1 
   2  -9   6 4.01131 11.5774   1 
   2  -9   6 -3.9820 6.13401   2 
   3  -9   6 1.69904 7.33077   2 
   3  -9   6 2.59341 11.0440   1 
   4  -9   6 1.07920 6.86440   2 
   4  -9   6 4.60772 11.4834   1 
   5  -9   6 14.1930 13.5695   1 
   5  -9   6 5.37440 8.20090   2 
   6  -9   6 0.97936 8.04403   2 
   6  -9   6 17.5800 14.8852   1 
   7  -9   6 10.0536 14.0503   1 
   7  -9   6 2.50589 9.14249   2 
 -10  -8   6 18.4997 9.68856   1 
  -9  -8   6 34.7179 11.8001   1 
   5   2  15 24.3177 19.2755  -2 
  -9  -8   6 24.3177 19.2755   1 
  -8  -8   6 0.19387 8.03679   1 
  -7  -8   6 34.5475 8.76364   1 
  -6  -8   6 1.66828 7.36766   1 
  -6  -8   6 -8.8355 9.90374   2 
  -5  -8   6 -1.2651 10.5277   2 
  -5  -8   6 21.0316 8.08840   1 
  -4  -8   6 28.8987 8.01877   1 
  -4  -8   6 16.7466 10.8792   2 
  -3  -8   6 8.87240 9.94606   1 
  -3  -8   6 11.1078 10.2109   2 
  -2  -8   6 0.87231 10.1932   2 
  -2  -8   6 -12.594 8.98241   1 
  -1  -8   6 13.0549 6.43168   2 
  -1  -8   6 40.7028 12.1075   1 
   0  -8   6 29.3444 11.3664   1 
   0  -8   6 1.28348 5.88185   2 
   1  -8   6 11.9535 6.42807   2 
   1  -8   6 -5.3580 9.36343   1 
   2  -8   6 9.41814 6.86494   2 
   2  -8   6 6.62361 10.2599   1 
   3  -8   6 4.21218 11.0438   1 
   4  -8   6 5.15172 7.36702   2 
   4  -8   6 6.72105 12.0702   1 
   5  -8   6 -8.8926 11.2316   1 
   5  -8   6 -4.3065 7.42686   2 
   6  -8   6 21.8602 13.0321   1 
   6  -8   6 21.7657 8.68242   2 
   7  -8   6 -15.090 12.6981   1 
   7  -8   6 -6.7266 7.86800   2 
   8  -8   6 22.1124 14.5669   1 
   8  -8   6 8.04495 9.09506   2 
 -10  -7   6 -7.1623 7.78396   1 
  -9  -7   6 -4.9791 8.26893   1 
  -8  -7   6 16.6170 8.03029   1 
  -7  -7   6 6.67722 7.47204   1 
  -7  -7   6 -12.677 9.16104   2 
  -6  -7   6 42.5588 12.1840   2 
  -6  -7   6 128.646 11.2150   1 
  -5  -7   6 -4.5626 9.54682   2 
  -5  -7   6 5.66795 7.17822   1 
  -4  -7   6 46.6823 8.08692   1 
  -4  -7   6 23.8738 10.6733   2 
  -3  -7   6 43.0642 7.59849   1 
  -3  -7   6 26.1248 10.6746   2 
  -2  -7   6 18.8278 6.53447   1 
  -2  -7   6 -6.2219 5.31719   2 
  -1  -7   6 3.92673 5.41537   2 
  -1  -7   6 26.3690 10.1928   1 
   0  -7   6 10.8652 5.80366   2 
   0  -7   6 22.0021 10.2821   1 
   1  -7   6 6.06284 9.06678   1 
   1  -7   6 8.74984 5.97196   2 
   2  -7   6 47.1217 7.92956   2 
   2  -7   6 95.6954 13.7386   1 
   3  -7   6 -8.5821 8.30875   2 
   3  -7   6 9.84284 10.4184   1 
   4  -7   6 4.23261 6.87029   2 
   4  -7   6 7.88856 11.3287   1 
   5  -7   6 12.5343 7.80023   2 
   5  -7   6 36.3084 12.7586   1 
   6  -7   6 2.20564 7.36591   2 
   6  -7   6 2.77873 12.5111   1 
   7  -7   6 44.3407 14.6883   1 
   7  -7   6 22.1626 8.92705   2 
   8  -7   6 -5.2860 8.26029   2 
   8  -7   6 -3.9431 12.6062   1 
   9  -7   6 5.06478 14.7335   1 
   9  -7   6 19.1196 9.98565   2 
 -11  -6   6 2.19044 8.47722   1 
 -10  -6   6 53.4964 16.9211   1 
   7   3  14 13.9582 19.7330  -2 
 -10  -6   6 13.9582 19.7330   1 
  -9  -6   6 4.70745 7.91069   1 
  -8  -6   6 4.88924 9.86045   2 
  -8  -6   6 37.3652 8.91456   1 
  -7  -6   6 57.8117 9.43499   1 
  -7  -6   6 6.87850 9.47424   2 
  -6  -6   6 24.6459 8.17390   1 
  -5  -6   6 26.1776 9.65895   2 
  -5  -6   6 77.7782 12.4638   1 
   2   2  12 98.4924 18.9576  -2 
  -5  -6   6 98.4924 18.9576   1 
  -4  -6   6 7.24759 8.91008   2 
  -4  -6   6 -0.8661 5.85121   1 
  -3  -6   6 8.69279 8.40379   1 
  -3  -6   6 -3.9104 8.88727   2 
   0   2  11 54.1555 16.0420  -2 
  -3  -6   6 54.1555 16.0420   1 
  -2  -6   6 27.0521 6.26536   1 
  -2  -6   6 9.19609 5.11259   2 
  -1  -6   6 -1.3809 5.31303   1 
  -1  -6   6 0.05905 4.93831   2 
   0  -6   6 10.9306 5.56023   2 
   0  -6   6 14.0134 4.96825   1 
   1  -6   6 49.9875 6.96498   2 
  -4   1   9 144.919 15.9946  -2 
   1  -6   6 144.919 15.9946   1 
   2  -6   6 6.31841 5.95011   2 
   2  -6   6 28.2144 9.90312   1 
   3  -6   6 41.3849 7.76207   2 
   3  -6   6 69.0566 12.2897   1 
   4  -6   6 73.3375 12.9023   1 
   4  -6   6 37.5316 7.43098   2 
   5  -6   6 23.2306 7.43661   2 
   5  -6   6 37.1580 12.6889   1 
   6  -6   6 5.39124 11.2769   1 
   6  -6   6 1.04161 6.88370   2 
   7  -6   6 0.29253 7.48499   2 
   7  -6   6 1.45014 11.9170   1 
   8  -6   6 -5.6678 8.00630   2 
   8  -6   6 8.54049 12.6340   1 
   9  -6   6 5.03558 12.8023   1 
   9  -6   6 -0.3754 8.57416   2 
  10  -6   6 16.7402 15.9671   1 
 -11  -5   6 29.7259 8.42342   1 
 -10  -5   6 -0.8970 7.66159   1 
  -9  -5   6 14.7228 7.92291   1 
  -9  -5   6 20.7273 11.0525   2 
  -8  -5   6 -13.042 6.23486   1 
  -8  -5   6 4.54674 9.25345   2 
  -7  -5   6 1.95399 6.67307   1 
  -7  -5   6 -3.8976 8.29887   2 
  -6  -5   6 -1.8567 6.02437   1 
  -6  -5   6 -2.3455 8.28224   2 
  -5  -5   6 -2.5143 5.80263   1 
  -5  -5   6 8.01312 8.87704   2 
  -4  -5   6 14.4620 8.97528   2 
  -4  -5   6 -2.9208 5.30709   1 
  -3  -5   6 51.7444 5.48892   2 
  -3  -5   6 102.303 8.31756   1 
  -2  -5   6 19.2417 5.56945   1 
  -2  -5   6 19.1887 4.77546   2 
  -1  -5   6 123.601 7.66940   1 
  -1  -5   6 58.2753 6.10608   2 
   0  -5   6 33.3025 5.35713   1 
   0  -5   6 19.9067 5.37496   2 
   1  -5   6 34.7851 6.32172   2 
   1  -5   6 94.5297 6.58373   1 
   2  -5   6 73.4242 7.46959   2 
   2  -5   6 179.388 14.3110   1 
   3  -5   6 20.3007 6.23977   2 
   3  -5   6 31.4234 10.5055   1 
   4  -5   6 35.0639 7.22650   2 
   4  -5   6 77.8079 12.5552   1 
   5  -5   6 3.25502 9.23620   1 
   5  -5   6 1.63026 6.16998   2 
   6  -5   6 15.8350 7.17032   2 
   6  -5   6 55.5907 12.5835   1 
   7  -5   6 -0.9764 7.07264   2 
   7  -5   6 8.49527 10.9195   1 
   8  -5   6 11.9971 12.0736   1 
   8  -5   6 1.18893 7.47559   2 
   9  -5   6 -7.8603 12.3410   1 
   9  -5   6 0.34821 8.08960   2 
  10  -5   6 66.7146 15.8263   1 
  10  -5   6 2.60169 8.50108   2 
  11  -5   6 8.85062 9.56203   2 
  11  -5   6 0.04611 13.1373   1 
 -12  -4   6 18.3214 15.1952   1 
 -11  -4   6 9.24013 9.03941   1 
 -11  -4   6 32.7571 13.0130   2 
 -10  -4   6 23.0198 8.30850   1 
 -10  -4   6 -1.1217 9.95182   2 
  -9  -4   6 -0.3964 6.59983   1 
  -9  -4   6 -9.4709 9.28363   2 
  -8  -4   6 12.5707 9.67209   2 
  -8  -4   6 6.92620 6.55738   1 
  -7  -4   6 19.2015 8.94023   2 
  -7  -4   6 31.3042 7.38250   1 
  -6  -4   6 9.61597 8.16433   2 
  -6  -4   6 -4.6998 5.89149   1 
  -5  -4   6 11.7853 6.20677   1 
  -5  -4   6 10.5038 8.11019   2 
  -4  -4   6 64.8064 7.29015   1 
  -4  -4   6 28.2032 8.51465   2 
  -3  -4   6 17.3608 5.76078   1 
  -3  -4   6 9.59262 3.72359   2 
  -2  -4   6 55.8199 5.36305   2 
  -2  -4   6 112.577 7.59614   1 
  -1  -4   6 46.6070 5.37321   2 
  -1  -4   6 102.605 7.07872   1 
   0  -4   6 217.376 8.68372   1 
   0  -4   6 103.670 6.99170   2 
   1  -4   6 5.68470 7.18237   2 
  -3   2   8 178.316 9.49513  -2 
   1  -4   6 178.316 9.49513   1 
   2  -4   6 52.4095 5.23323   2 
   2  -4   6 106.491 6.83486   1 
   3  -4   6 75.4408 6.10950   1 
   4  -4   6 13.7505 6.02482   2 
   4  -4   6 20.9217 9.52089   1 
  -7   1   6 27.3822 14.1567  -2 
   5  -4   6 27.3822 14.1567   1 
   5  -4   6 -4.7977 4.72740   2 
   6  -4   6 8.88371 5.15388   2 
   6  -4   6 2.53127 9.14502   1 
   7  -4   6 11.9610 10.6048   1 
   7  -4   6 -3.2089 5.08296   2 
   8  -4   6 15.1488 6.17571   2 
   8  -4   6 26.9828 12.4867   1 
   9  -4   6 17.1036 7.96484   2 
   9  -4   6 67.3844 14.7305   1 
  10  -4   6 2.01764 8.51278   2 
  10  -4   6 -7.7652 11.8576   1 
 -13   0   3 36.8106 22.8427  -2 
  11  -4   6 36.8106 22.8427   1 
  11  -4   6 21.2994 9.43161   2 
 -12  -3   6 16.1621 15.2306   1 
 -12  -3   6 18.8074 14.4862   2 
 -11  -3   6 9.12494 7.93001   1 
 -11  -3   6 -16.479 10.8829   2 
 -10  -3   6 14.1166 7.16557   1 
 -10  -3   6 -12.109 10.2203   2 
  -9  -3   6 1.83784 6.99805   1 
  -9  -3   6 0.23317 9.95298   2 
  -8  -3   6 20.6402 11.0913   2 
  -8  -3   6 32.3429 7.54827   1 
  -7  -3   6 17.0072 8.75061   2 
   5   4  11 51.6491 9.33667  -2 
  -7  -3   6 51.6491 9.33667   1 
  -6  -3   6 237.992 11.3468   1 
  -6  -3   6 99.8823 11.3877   2 
  -5  -3   6 -4.1658 5.19128   1 
  -4  -3   6 167.422 9.04875   1 
  -4  -3   6 79.3849 10.0841   2 
  -3  -3   6 76.2711 6.92076   1 
  -3  -3   6 42.4529 3.56724   2 
  -2  -3   6 -1.8198 4.50673   1 
  -2  -3   6 3.54152 3.33824   2 
  -1  -3   6 148.405 7.66534   1 
  -1  -3   6 52.1027 3.97855   2 
   0  -3   6 23.1201 4.90331   1 
   0  -3   6 13.3261 4.49257   2 
   1  -3   6 25.4359 5.32340   2 
   1  -3   6 71.2795 6.07369   1 
   2  -3   6 115.020 7.83079   2 
   2  -3   6 246.399 8.90293   1 
   3  -3   6 -6.4768 4.06597   1 
   3  -3   6 3.19539 5.35829   2 
   4  -3   6 70.8064 6.24830   1 
   4  -3   6 35.2756 6.60448   2 
   5  -3   6 75.5805 7.95906   2 
   5  -3   6 221.344 9.03030   1 
   6  -3   6 51.4841 6.55811   1 
   6  -3   6 27.3462 6.74269   2 
   7  -3   6 83.6668 7.59983   2 
   7  -3   6 196.954 16.3105   1 
   8  -3   6 7.49165 5.56281   2 
   8  -3   6 5.40434 9.79376   1 
   9  -3   6 79.2603 14.8756   1 
   9  -3   6 41.7012 7.18034   2 
  10  -3   6 4.32225 6.60665   2 
  10  -3   6 28.7186 12.3451   1 
  11  -3   6 17.8850 13.3928   1 
  11  -3   6 6.49450 11.8942   2 
  12  -3   6 -16.180 12.3862   1 
  12  -3   6 -5.2340 8.30886   2 
 -12  -2   6 11.1327 13.7094   2 
 -12  -2   6 8.94680 14.4965   1 
 -11  -2   6 -5.0562 13.8668   1 
 -11  -2   6 -1.1851 12.5372   2 
 -10  -2   6 7.96405 12.2642   2 
 -10  -2   6 47.6746 8.54775   1 
  -9  -2   6 2.87929 10.2743   2 
  -9  -2   6 21.5332 7.26932   1 
  -8  -2   6 40.0705 7.45557   1 
  -8  -2   6 17.2345 9.31118   2 
  -7  -2   6 73.0255 11.1434   2 
  -7  -2   6 181.932 10.1641   1 
  -6  -2   6 29.9435 6.84911   1 
  -5  -2   6 545.900 14.0442   1 
  -5  -2   6 243.662 13.8547   2 
  -4  -2   6 0.96326 4.79787   1 
  -4  -2   6 -8.8112 6.45787   2 
  -3  -2   6 118.992 4.56783   2 
  -3  -2   6 268.883 9.86501   1 
  -2  -2   6 -2.1525 4.11878   1 
  -2  -2   6 2.00060 3.41992   2 
  -1  -2   6 22.0604 4.27207   2 
  -1  -2   6 39.8683 5.45690   1 
   0  -2   6 3.77380 4.38315   2 
   0  -2   6 3.66816 4.21440   1 
   1  -2   6 40.2111 5.18931   1 
   1  -2   6 20.9301 4.91582   2 
   2  -2   6 -0.1895 4.01579   1 
   2  -2   6 5.07951 4.56620   2 
   3  -2   6 359.084 9.87991   1 
   3  -2   6 159.940 8.36921   2 
   4  -2   6 46.3502 6.65916   2 
   4  -2   6 127.208 7.31921   1 
   5  -2   6 139.836 7.99908   1 
   5  -2   6 57.2943 7.01846   2 
   6  -2   6 34.8431 6.77686   2 
   6  -2   6 94.6600 7.50266   1 
   7  -2   6 9.10511 6.20128   2 
   7  -2   6 34.9712 6.47699   1 
   8  -2   6 64.8010 8.40708   1 
   8  -2   6 49.6799 12.0173   2 
   9  -2   6 3.28998 10.4108   1 
   9  -2   6 -2.7476 8.99849   2 
  10  -2   6 13.0384 10.8740   1 
  10  -2   6 9.94324 6.10739   2 
  11  -2   6 14.4767 12.2937   1 
  11  -2   6 13.5503 6.68964   2 
  12  -2   6 -4.2167 8.62496   2 
 -13   1   2 66.6345 27.2535  -2 
  12  -2   6 66.6345 27.2535   1 
 -12  -1   6 7.64971 12.2430   1 
 -12  -1   6 -27.866 12.9206   2 
 -11  -1   6 25.3809 14.9531   1 
 -11  -1   6 28.7067 14.6389   2 
 -10  -1   6 7.50690 12.1064   1 
 -10  -1   6 16.3061 12.8531   2 
  -9  -1   6 5.88584 10.4483   2 
  -9  -1   6 46.6349 7.45556   1 
  -8  -1   6 11.9437 6.06577   1 
  -8  -1   6 10.7532 9.58708   2 
  -7  -1   6 21.6048 9.65544   2 
  -7  -1   6 49.1879 6.76318   1 
  -6  -1   6 5.91635 8.31160   2 
  -6  -1   6 17.2392 5.48899   1 
  -5  -1   6 0.35558 7.32545   1 
  -5  -1   6 3.79112 7.05550   2 
  -4  -1   6 55.7584 8.42229   2 
  -4  -1   6 174.199 8.37268   1 
  -3  -1   6 121.526 4.90608   2 
  -3  -1   6 222.160 8.64302   1 
  -2  -1   6 197.000 8.00172   1 
  -2  -1   6 118.292 5.53969   2 
   0   4   7 82.7516 8.05801  -2 
  -1  -1   6 82.7516 8.05801   1 
  -1  -1   6 12.1277 4.07098   2 
   0  -1   6 45.8193 5.10416   2 
   0  -1   6 88.0791 6.27728   1 
   1  -1   6 24.1527 5.04106   2 
   1  -1   6 63.8755 5.45337   1 
   2  -1   6 232.486 8.32385   1 
  -4   3   5 112.804 7.77565  -2 
   3  -1   6 112.804 7.77565   1 
   3  -1   6 21.0226 5.43811   2 
   4  -1   6 311.531 9.56404   1 
   4  -1   6 123.370 7.92885   2 
   5  -1   6 13.0538 5.12552   1 
   5  -1   6 13.1986 5.33598   2 
   6  -1   6 73.9605 6.95933   1 
   6  -1   6 39.1377 6.52665   2 
   7  -1   6 23.2973 5.85282   2 
   7  -1   6 29.3109 6.41028   1 
   8  -1   6 18.1489 6.17691   2 
   8  -1   6 48.8618 7.46761   1 
   9  -1   6 1.00667 6.62501   2 
   9  -1   6 -8.7878 9.11030   1 
  10  -1   6 18.7738 7.71694   2 
  10  -1   6 42.5008 8.66312   1 
  11  -1   6 -6.7120 5.96113   2 
  11  -1   6 1.38493 11.1643   1 
  12  -1   6 13.8396 6.75622   2 
  12  -1   6 27.4661 13.4963   1 
  13  -1   6 -0.5049 8.23241   2 
  13  -1   6 -2.2488 14.0451   1 
 -12   0   6 13.5059 15.9791   2 
 -12   0   6 -3.1970 13.0033   1 
 -11   0   6 24.6848 14.1035   1 
 -11   0   6 1.09549 14.4691   2 
 -10   0   6 59.4746 14.5820   1 
 -10   0   6 28.3071 13.2305   2 
  -9   0   6 17.9735 10.8500   2 
   8   6  10 8.72660 9.00368  -2 
  -9   0   6 8.72660 9.00368   1 
  -8   0   6 15.6496 6.01260   1 
  -8   0   6 -1.3497 9.53241   2 
  -7   0   6 16.6163 5.41973   1 
  -7   0   6 3.23433 8.31010   2 
  -6   0   6 1.49873 4.73000   1 
  -6   0   6 -9.3276 6.96863   2 
  -5   0   6 50.9833 6.32800   1 
  -5   0   6 24.6604 3.24797   2 
  -4   0   6 40.5137 3.52845   2 
  -4   0   6 74.2786 6.19257   1 
  -3   0   6 0.15742 2.74753   2 
  -3   0   6 -2.8566 4.14607   1 
  -2   0   6 191.201 6.71825   2 
  -2   0   6 246.676 8.29074   1 
  -1   0   6 314.418 9.30910   1 
  -1   0   6 144.500 6.52640   2 
   0   0   6 300.260 9.16147   1 
   0   0   6 141.997 6.75194   2 
   1   0   6 103.224 6.36779   1 
   1   0   6 44.6485 5.20059   2 
   2   0   6 149.638 7.36366   2 
   2   0   6 317.426 8.95709   1 
   3   0   6 281.302 9.02788   1 
   3   0   6 127.525 7.51847   2 
   4   0   6 36.0217 5.43381   1 
   4   0   6 19.7401 5.20104   2 
   5   0   6 33.5886 6.22610   2 
   5   0   6 77.3933 6.50388   1 
   6   0   6 35.8612 6.18423   1 
   6   0   6 23.1939 5.60057   2 
   7   0   6 9.01727 5.58564   2 
   7   0   6 20.3293 6.31622   1 
   8   0   6 2.19877 4.77048   1 
   8   0   6 9.29369 5.58853   2 
   9   0   6 9.95234 5.49819   1 
   9   0   6 5.36849 5.65986   2 
  10   0   6 16.2323 6.75347   2 
  10   0   6 12.5709 5.94038   1 
  11   0   6 21.4607 7.32275   2 
  11   0   6 70.1920 8.17356   1 
  12   0   6 -5.9111 7.07493   2 
  12   0   6 -12.566 7.73610   1 
  13   0   6 17.7114 8.27804   2 
  13   0   6 18.0809 14.2145   1 
 -12   1   6 -9.0914 13.6925   2 
 -12   1   6 24.1382 14.6955   1 
 -11   1   6 3.09577 13.2300   2 
 -11   1   6 3.88070 12.4458   1 
 -10   1   6 -6.9094 10.2643   2 
 -10   1   6 5.95152 11.3253   1 
  -9   1   6 16.2491 11.1201   2 
  -9   1   6 21.2456 10.7368   1 
  -8   1   6 14.7825 9.44577   2 
  -8   1   6 7.85321 5.33236   1 
  -7   1   6 4.27940 4.74334   1 
  -6   1   6 56.6482 5.08266   2 
  -6   1   6 101.995 6.78823   1 
  -5   1   6 90.3361 6.22840   1 
  -4   1   6 228.523 8.17454   1 
  -4   1   6 113.608 5.68043   2 
  -3   1   6 146.989 6.96094   1 
  -3   1   6 69.4148 4.81880   2 
  -2   1   6 -1.1514 3.27614   2 
  -2   1   6 7.08254 3.77096   1 
  -1   1   6 113.483 6.13571   1 
  -1   1   6 44.8533 4.67383   2 
   0   1   6 38.0568 4.82802   1 
   0   1   6 13.6998 4.10782   2 
   1   1   6 87.6758 6.04639   2 
   1   1   6 180.202 7.23907   1 
   2   1   6 17.3520 4.42307   1 
   2   1   6 8.15976 4.35137   2 
   3   1   6 57.1233 5.59609   1 
   3   1   6 29.8926 4.94915   2 
   4   1   6 16.3545 4.66590   2 
   4   1   6 34.6704 5.33134   1 
   5   1   6 416.828 9.56062   1 
   5   1   6 189.699 8.48679   2 
   6   1   6 35.5510 6.04555   2 
   6   1   6 94.2056 6.38653   1 
   7   1   6 250.385 8.96036   1 
   7   1   6 97.4814 7.77098   2 
   8   1   6 -0.6720 4.83581   1 
   8   1   6 -0.0716 5.54591   2 
   9   1   6 175.426 15.7806   1 
  -9   3   1 172.115 19.0994  -2 
   9   1   6 172.115 19.0994   1 
  10   1   6 16.2879 6.06982   1 
  10   1   6 11.5483 9.89023   2 
  11   1   6 9.54437 6.49142   1 
  11   1   6 0.24897 6.32769   2 
  12   1   6 22.8689 7.52506   1 
  12   1   6 7.06323 7.30431   2 
  13   1   6 0.48124 7.20929   1 
  13   1   6 -4.0922 6.69486   2 
 -12   2   6 -3.6583 11.9794   1 
 -12   2   6 7.85865 14.5330   2 
 -11   2   6 -14.320 10.8619   1 
 -11   2   6 -4.1638 12.4891   2 
 -10   2   6 26.7850 12.1494   1 
 -10   2   6 25.8314 12.9598   2 
  -9   2   6 -0.9302 9.92900   2 
  -9   2   6 5.05047 10.4633   1 
  -8   2   6 72.7357 12.3966   2 
  -8   2   6 145.916 16.1880   1 
  -7   2   6 9.70803 5.28591   2 
  -7   2   6 30.2624 5.19137   1 
  -6   2   6 50.1438 5.28577   1 
  -6   2   6 15.8204 4.80533   2 
   5   6   7 444.521 24.5544  -2 
  -5   2   6 444.521 24.5544   1 
  -5   2   6 159.143 7.13487   2 
  -5   2   6 362.279 11.1447   1 
  -4   2   6 -1.4440 3.76365   2 
  -4   2   6 6.77287 3.85259   1 
   3   6   6 740.189 15.4521  -2 
  -3   2   6 740.189 15.4521   1 
  -3   2   6 338.078 8.94089   2 
  -3   2   6 670.052 20.8315   1 
  -2   2   6 53.2918 4.63445   1 
  -2   2   6 17.1567 4.31760   2 
  -1   2   6 -1.5418 3.73951   2 
  -1   2   6 6.87167 3.88730   1 
   0   2   6 -4.1463 3.81050   2 
   0   2   6 0.25324 3.51260   1 
   1   2   6 79.7416 5.65127   2 
   1   2   6 169.184 7.09144   1 
   2   2   6 9.93165 4.18392   1 
   2   2   6 -1.3223 3.91312   2 
   3   2   6 802.151 11.2209   1 
   3   2   6 357.562 9.68051   2 
   4   2   6 115.447 6.89229   2 
   4   2   6 219.131 7.26991   1 
   5   2   6 396.336 11.6189   1 
   5   2   6 172.888 7.99854   2 
   6   2   6 -2.8638 4.13164   2 
   6   2   6 12.3612 5.50287   1 
   7   2   6 167.366 9.87513   1 
   7   2   6 73.0334 6.79553   2 
   8   2   6 201.596 11.1212   1 
   8   2   6 97.1881 8.05745   2 
   9   2   6 -1.4418 5.33249   2 
   9   2   6 6.22619 6.88741   1 
  10   2   6 43.3642 8.67380   1 
  10   2   6 15.9208 6.49079   2 
  11   2   6 4.34248 6.36775   2 
  11   2   6 -1.6784 7.04279   1 
  12   2   6 -8.5350 7.71335   1 
  12   2   6 -2.0258 6.43314   2 
  13   2   6 6.98614 7.54674   1 
  13   2   6 3.28152 6.86769   2 
 -12   3   6 -10.936 11.8987   1 
 -12   3   6 -17.121 12.7196   2 
 -11   3   6 -1.1228 14.1132   2 
 -11   3   6 26.4108 13.0463   1 
 -10   3   6 33.2108 12.5294   1 
 -10   3   6 6.75825 13.1099   2 
  -9   3   6 85.8562 14.6347   1 
  -9   3   6 33.7212 12.5653   2 
  -8   3   6 9.12214 9.46575   1 
  -8   3   6 7.46130 9.64225   2 
  -7   3   6 41.1457 6.50137   2 
  -7   3   6 101.284 13.3205   1 
  -6   3   6 204.643 7.10659   1 
  -6   3   6 102.788 7.46437   2 
  -5   3   6 -0.6277 4.45993   2 
  -5   3   6 -2.6962 7.35915   1 
  -4   3   6 31.5967 3.85320   1 
  -4   3   6 4.12257 3.89624   2 
  -3   3   6 80.3205 5.90970   2 
  -3   3   6 165.499 5.69397   1 
  -2   3   6 155.223 5.64618   1 
  -2   3   6 73.5891 5.73663   2 
  -1   3   6 119.736 5.85181   1 
  -1   3   6 61.4272 5.42630   2 
   0   3   6 1.56382 3.30979   1 
   0   3   6 -4.0603 5.45144   2 
   1   3   6 56.8437 5.02077   2 
   1   3   6 126.968 6.12454   1 
   2   3   6 581.671 9.19707   1 
   2   3   6 271.017 8.34812   2 
   3   3   6 151.567 7.01305   2 
   3   3   6 308.188 9.45743   1 
   4   3   6 536.435 12.3854   1 
   4   3   6 240.778 8.27830   2 
   5   3   6 215.276 8.09616   2 
   5   3   6 488.841 12.6800   1 
   6   3   6 59.9647 6.95585   1 
   6   3   6 26.1076 5.26230   2 
   7   3   6 8.04282 4.61636   2 
   7   3   6 22.3971 6.14454   1 
   8   3   6 -0.0077 5.73502   2 
   8   3   6 -5.1001 5.52356   1 
   9   3   6 19.1093 7.00286   1 
   9   3   6 10.9244 5.86857   2 
  10   3   6 37.9173 8.27316   1 
  10   3   6 17.2209 6.37797   2 
  11   3   6 -15.039 5.19790   2 
  11   3   6 -7.0926 7.37814   1 
  12   3   6 14.2216 8.76319   1 
  12   3   6 10.2441 6.66398   2 
  13   3   6 19.4260 9.14727   1 
  13   3   6 12.8970 11.0041   2 
 -12   4   6 11.4622 13.5383   1 
 -12   4   6 20.7848 16.1905   2 
 -11   4   6 16.2792 12.2414   1 
 -11   4   6 -9.5233 12.6218   2 
 -10   4   6 27.2631 13.0987   2 
 -10   4   6 7.34733 11.7545   1 
  -9   4   6 -6.4853 10.3181   2 
  -9   4   6 26.7103 11.1947   1 
  -8   4   6 27.8905 7.20472   2 
  -8   4   6 51.2786 12.0347   1 
  -7   4   6 7.07020 5.65184   2 
  -7   4   6 19.1756 9.31879   1 
  -6   4   6 44.6126 9.99596   1 
  -6   4   6 26.0472 6.31988   2 
  -5   4   6 -7.7563 2.36402   1 
  -5   4   6 -1.6477 4.95280   2 
  -4   4   6 9.80352 7.72224   1 
  -4   4   6 4.49718 4.62526   2 
  -3   4   6 2.34572 3.95106   2 
  -3   4   6 7.77290 7.10065   1 
  -2   4   6 176.543 7.79173   2 
  -2   4   6 376.007 6.61494   1 
  -1   4   6 -2.3550 3.00055   1 
  -1   4   6 1.00540 4.09747   2 
   0   4   6 526.428 9.51388   1 
   0   4   6 283.155 12.3204   2 
   1   4   6 17.9593 4.08287   1 
   1   4   6 9.59899 4.13145   2 
   2   4   6 369.569 9.46955   1 
   2   4   6 173.804 7.33101   2 
   3   4   6 365.649 10.0220   1 
   3   4   6 164.545 6.84655   2 
   4   4   6 7.91660 3.90073   2 
   4   4   6 13.8035 4.97492   1 
   5   4   6 208.128 7.82155   2 
   5   4   6 513.930 17.5837   1 
  -4   5   1 511.060 20.9011  -2 
   5   4   6 511.060 20.9011   1 
   6   4   6 3.80948 5.45726   1 
   6   4   6 3.69090 4.05983   2 
   7   4   6 -2.9661 8.54394   1 
  -6   5   0 26.5038 13.9211  -2 
   7   4   6 26.5038 13.9211   1 
   7   4   6 8.54589 4.41619   2 
   8   4   6 16.6926 6.85647   1 
   8   4   6 -0.2002 5.04321   2 
   9   4   6 -0.4978 5.38183   2 
   9   4   6 9.51343 6.56076   1 
  10   4   6 25.6339 7.70073   2 
  10   4   6 26.6704 8.22255   1 
  10  -4   2 86.8653 18.9008  -2 
  11   4   6 86.8653 18.9008   1 
  11   4   6 26.9738 13.0403   1 
  11   4   6 7.85267 6.28940   2 
  12   4   6 -2.2322 7.96314   1 
  12   4   6 1.10681 9.96986   2 
  13   4   6 19.0838 11.5501   2 
  13   4   6 14.5535 9.45576   1 
  14   4   6 0.16503 16.0493   1 
  14   4   6 -8.9845 11.2246   2 
 -11   5   6 4.52742 13.1517   2 
 -11   5   6 -2.3663 11.1332   1 
 -10   5   6 13.5809 11.3856   1 
 -10   5   6 -15.315 10.8215   2 
  -9   5   6 17.8295 8.24495   2 
  -9   5   6 38.8549 12.2717   1 
  -8   5   6 -7.9514 8.67444   1 
  -8   5   6 1.95063 6.56478   2 
   8   8   6 -2.8750 12.1731  -2 
  -7   5   6 -2.8750 12.1731   1 
  -6   5   6 214.438 15.1691   1 
  -6   5   6 129.284 8.76182   2 
  -5   5   6 -4.3220 4.89646   2 
  -5   5   6 1.87844 7.51947   1 
  -4   5   6 135.211 12.0477   1 
  -4   5   6 64.3015 6.72815   2 
  -3   5   6 13.6127 4.66782   2 
  -3   5   6 31.5706 8.14719   1 
  -2   5   6 0.05335 4.44469   2 
  -2   5   6 -3.7080 5.61325   1 
  -1   5   6 181.035 7.64534   2 
  -1   5   6 393.010 7.36338   1 
   0   5   6 26.8735 4.97057   2 
   0   5   6 42.8345 4.20948   1 
   1   5   6 212.350 7.71479   2 
   1   5   6 474.410 9.79121   1 
   2   5   6 31.2611 4.49103   2 
   2   5   6 62.2334 5.41514   1 
   3   5   6 32.1725 5.43867   1 
   3   5   6 18.7172 4.10906   2 
   4   5   6 10.2102 4.72851   1 
   4   5   6 1.04801 3.54222   2 
   5   5   6 104.262 7.69980   1 
   5   5   6 47.6434 4.77741   2 
   6   5   6 2.98098 3.86235   2 
   6   5   6 -4.0356 4.94815   1 
   7   5   6 66.2366 5.90715   2 
   7   5   6 159.089 9.91625   1 
   8   5   6 52.6421 7.94418   1 
   8   5   6 21.2906 5.16310   2 
   9   5   6 158.336 11.1058   1 
   9   5   6 75.0817 6.84678   2 
  10   5   6 10.4635 10.0000   2 
  10   5   6 10.7751 7.36757   1 
  11   5   6 23.5064 8.73006   1 
  11   5   6 11.6691 10.2113   2 
  12   5   6 6.52884 9.00401   1 
  12   5   6 -4.1482 10.0883   2 
  13   5   6 -5.5855 8.43566   1 
  13   5   6 5.75342 10.7714   2 
  14   5   6 6.61750 12.1001   2 
  14   5   6 23.3500 9.57936   1 
 -11   6   6 28.1377 15.5659   2 
 -11   6   6 22.6087 13.0651   1 
 -10   6   6 6.12641 10.9547   1 
 -10   6   6 7.45168 12.7877   2 
  -9   6   6 -20.779 7.37283   1 
  -9   6   6 6.59221 7.65715   2 
  -8   6   6 4.95522 7.49164   2 
  -8   6   6 16.2892 9.73772   1 
  -7   6   6 19.8486 7.18381   2 
  -7   6   6 33.3306 10.4093   1 
  -6   6   6 28.1350 9.76232   1 
  -6   6   6 11.4608 5.98938   2 
  -5   6   6 245.507 10.6068   2 
  -5   6   6 549.188 20.9647   1 
  -4   6   6 -3.1388 4.75612   2 
  -4   6   6 -2.5758 6.55933   1 
  -3   6   6 139.751 7.99851   2 
  -3   6   6 334.182 15.5416   1 
  -2   6   6 2.58578 4.18558   2 
  -2   6   6 21.6050 7.27116   1 
  -1   6   6 85.8710 4.23905   1 
  -1   6   6 37.8200 5.27560   2 
   0   6   6 95.8669 6.52358   2 
   0   6   6 166.914 6.03741   1 
   1   6   6 8.90976 7.58618   1 
   2   6   6 -0.1246 3.85925   1 
   2   6   6 -1.9585 3.82458   2 
   3   6   6 113.547 6.84034   1 
   3   6   6 33.2939 8.41803   2 
   4   6   6 -6.1901 3.32221   2 
   4   6   6 -3.4298 4.59193   1 
   5   6   6 104.100 7.85850   1 
   5   6   6 43.4002 4.34333   2 
   6   6   6 289.405 11.0733   1 
   6   6   6 123.292 5.81213   2 
   7   6   6 -2.1352 3.76226   2 
   7   6   6 18.0996 6.50598   1 
   8   6   6 50.5514 5.49657   2 
   8   6   6 118.670 9.69884   1 
   9   6   6 9.54264 7.38247   1 
   9   6   6 -2.0759 7.91609   2 
  10   6   6 101.506 10.6520   1 
  10   6   6 19.3568 9.59344   2 
  11   6   6 -12.333 9.15785   2 
  11   6   6 2.28826 10.2497   1 
   9  -5   3 42.9521 20.9004  -2 
  11   6   6 42.9521 20.9004   1 
  12   6   6 -3.0283 9.80740   2 
  12   6   6 19.2172 9.01138   1 
  13   6   6 -7.1676 8.34458   1 
  13   6   6 11.1426 11.9954   2 
  14   6   6 -11.309 14.6623   1 
 -11   7   6 13.3813 15.0974   2 
 -10   7   6 2.73851 10.3771   1 
 -10   7   6 -11.178 8.68782   2 
  -9   7   6 6.66799 8.24879   2 
  -9   7   6 55.7356 13.5777   1 
  -8   7   6 -6.7937 6.98022   2 
  -8   7   6 14.2434 10.0279   1 
  -7   7   6 101.939 12.7023   1 
  -7   7   6 34.8229 8.12903   2 
  -6   7   6 47.9848 10.1789   1 
  -6   7   6 28.5223 7.14187   2 
  -5   7   6 24.8336 6.41440   2 
  -5   7   6 35.6222 9.41915   1 
  -4   7   6 79.6881 7.60153   2 
  -4   7   6 194.612 13.6390   1 
  -3   7   6 7.57124 5.15071   2 
  -3   7   6 18.0355 7.37572   1 
  -2   7   6 141.495 11.5787   1 
  -2   7   6 52.6620 6.04679   2 
  -1   7   6 -8.2914 4.12786   2 
   3   8   2 28.3543 4.29529  -2 
  -1   7   6 28.3543 4.29529   1 
   0   7   6 4.90321 3.49124   1 
   0   7   6 4.93964 3.96655   2 
   1   7   6 59.8199 5.37230   1 
   1   7   6 27.7178 4.88516   2 
   2   7   6 63.4847 5.30562   2 
   2   7   6 151.508 7.46393   1 
  -1   7   0 191.706 9.58029  -2 
   3   7   6 191.706 9.58029   1 
   4   7   6 62.7655 4.27707   2 
   4   7   6 116.137 8.16350   1 
   5   7   6 30.7123 3.38535   2 
   5   7   6 53.5027 7.64316   1 
   6   7   6 13.5832 8.46497   2 
   6   7   6 25.7064 6.73838   1 
   7   7   6 19.7379 7.00752   1 
   7   7   6 25.4135 9.19062   2 
   8   7   6 23.7635 7.33686   1 
   8   7   6 35.9706 10.4697   2 
   9   7   6 5.58823 9.04426   2 
   9   7   6 7.84465 6.94718   1 
  10   7   6 2.57973 7.23230   1 
  10   7   6 10.3893 9.58986   2 
  11   7   6 14.0877 8.35382   1 
  11   7   6 11.3721 9.53519   2 
  12   7   6 22.9095 9.90734   1 
  12   7   6 27.2341 10.7842   2 
  13   7   6 -15.583 8.20228   1 
  13   7   6 -0.6039 10.2646   2 
 -10   8   6 4.88142 8.99836   2 
  -9   8   6 -5.2703 12.3216   2 
  -8   8   6 23.3358 8.48492   2 
  -8   8   6 59.9623 11.9574   1 
  -7   8   6 17.8605 9.34627   1 
  -7   8   6 7.44921 7.52895   2 
  -6   8   6 14.2110 8.65148   1 
  -5   8   6 4.39942 7.01979   1 
  -5   8   6 -8.4352 5.33472   2 
  -4   8   6 4.88830 5.57943   2 
  -4   8   6 4.17034 7.13837   1 
  -3   8   6 1.55109 4.87343   2 
  -3   8   6 7.82013 7.46798   1 
  -2   8   6 65.7964 9.22921   1 
  -2   8   6 38.1295 5.80347   2 
  -1   8   6 4.18535 4.39564   2 
  -1   8   6 -5.9360 2.98564   1 
   0   8   6 217.634 8.60882   2 
   0   8   6 489.510 10.1132   1 
   1   8   6 34.8425 4.90573   2 
   1   8   6 69.2914 5.64268   1 
   2   8   6 115.193 7.09149   1 
   2   8   6 53.6997 5.26601   2 
   3   8   6 57.4433 4.56470   2 
   3   8   6 130.150 7.87800   1 
   4   8   6 21.8847 5.70492   1 
   4   8   6 10.8057 2.78192   2 
   5   8   6 188.678 9.96315   1 
   5   8   6 82.4568 11.6456   2 
   6   8   6 53.1261 7.56292   1 
   7   8   6 91.4452 9.11231   1 
   7   8   6 41.2521 10.4761   2 
   8   8   6 5.00079 6.99151   1 
   9   8   6 3.10753 6.93451   1 
   9   8   6 13.5859 8.89463   2 
  10   8   6 -2.0881 7.22161   1 
  10   8   6 3.04182 8.97755   2 
  11   8   6 56.7628 10.0803   1 
  11   8   6 15.1874 10.3326   2 
  12   8   6 4.77005 9.75549   2 
  12   8   6 5.05133 8.71424   1 
  13   8   6 1.31534 9.13757   1 
  13   8   6 -2.5643 9.80662   2 
 -10   9   6 4.07209 9.34445   2 
  -9   9   6 6.73707 8.70629   2 
  -8   9   6 -6.2720 7.59366   2 
  -7   9   6 8.90514 7.31920   2 
  -6   9   6 12.7019 8.11866   1 
  -6   9   6 -2.3088 6.41888   2 
  -5   9   6 6.76977 6.25411   2 
  -5   9   6 -9.3547 6.52284   1 
  -4   9   6 15.3897 6.30919   2 
  -4   9   6 45.1004 9.59127   1 
  -3   9   6 -6.5434 6.92524   1 
  -3   9   6 7.70776 5.46263   2 
  -2   9   6 34.2588 6.26850   2 
  -2   9   6 5.40841 6.54828   1 
  -1   9   6 185.019 7.04436   1 
  -1   9   6 68.2849 6.48530   2 
   0   9   6 3.22315 4.37153   2 
   0   9   6 4.58955 4.22431   1 
   1   9   6 268.063 9.08951   2 
   1   9   6 564.615 12.3104   1 
   2   9   6 26.5685 5.78041   1 
   2   9   6 14.5082 4.38690   2 
   3   9   6 80.2868 4.67159   2 
   0  -8   1 229.051 19.0997  -2 
   3   9   6 229.051 19.0997   1 
   3   9   6 165.173 11.7335   1 
   4   9   6 1.94412 8.17947   2 
   5   9   6 2.50530 5.44175   1 
   5   9   6 -2.4208 7.67814   2 
   6   9   6 11.1602 6.18376   1 
   6   9   6 -2.5323 7.81174   2 
   7   9   6 34.1332 10.1592   2 
   7   9   6 118.460 9.83876   1 
   8   9   6 12.0810 9.13439   2 
   8   9   6 10.2258 7.20788   1 
   6  -7   4 18.3058 11.3600  -2 
   9   9   6 18.3058 11.3600   1 
   9   9   6 5.40343 8.72044   2 
  10   9   6 7.96399 8.04909   1 
  10   9   6 -0.5013 8.40144   2 
  11   9   6 6.11619 10.1931   2 
  11   9   6 7.88278 8.32169   1 
  12   9   6 -10.489 9.54432   2 
  12   9   6 -6.1027 8.17130   1 
  10  -6   6 33.1040 14.7989  -2 
  13   9   6 33.1040 14.7989   1 
  -9  10   6 14.9844 9.08752   2 
  -8  10   6 6.90972 8.57524   2 
  -7  10   6 -4.3841 7.07563   2 
  -6  10   6 3.54083 7.33640   2 
  -5  10   6 47.6947 8.39253   2 
  -5  10   6 141.298 12.9363   1 
  -4  10   6 2.06860 7.08975   1 
  -4  10   6 -3.3575 5.79639   2 
  -3  10   6 20.2577 6.33657   2 
   6  10   1 54.7042 14.5234  -2 
  -3  10   6 54.7042 14.5234   1 
  -2  10   6 24.9947 8.22029   1 
  -2  10   6 7.33637 5.38636   2 
  -1  10   6 6.34438 4.90554   2 
  -1  10   6 25.7636 8.13894   1 
   0  10   6 22.4320 5.43593   2 
   0  10   6 76.1900 6.30512   1 
   1  10   6 95.1430 9.24355   1 
  -2  -9   1 106.181 15.6621  -2 
   1  10   6 106.181 15.6621   1 
   2  10   6 34.2643 5.01844   2 
   2  10   6 80.0981 6.96586   1 
   3  10   6 18.0032 8.52107   2 
   3  10   6 41.0794 6.62428   1 
   4  10   6 13.2022 5.98862   1 
   4  10   6 6.79389 8.38899   2 
   5  10   6 20.3974 9.33149   2 
   5  10   6 37.5105 7.24861   1 
   6  10   6 23.5052 9.47167   2 
   6  10   6 76.4839 8.80025   1 
   7  10   6 8.79366 6.76756   1 
   7  10   6 8.52667 8.97316   2 
   8  10   6 127.405 10.7389   1 
   8  10   6 49.6071 11.5904   2 
   9  10   6 5.06646 7.81351   1 
   9  10   6 14.5917 9.44364   2 
  10  10   6 42.5619 9.54423   1 
  10  10   6 13.4099 9.48428   2 
  11  10   6 3.26809 8.65228   1 
  11  10   6 4.38857 9.30046   2 
  12  10   6 13.1401 10.0071   1 
  13  10   6 -0.9766 9.35542   1 
  -8  11   6 -0.6325 11.7545   2 
  -7  11   6 -2.2801 7.69011   2 
  -6  11   6 16.6680 8.14658   2 
  -5  11   6 0.13619 11.9438   2 
  -4  11   6 19.4587 7.36161   2 
  -3  11   6 -4.8836 9.88611   2 
  -2  11   6 9.90476 5.88838   2 
  -2  11   6 29.2187 8.44007   1 
  -1  11   6 8.78305 5.24118   2 
  -1  11   6 -13.671 6.66464   1 
   0  11   6 21.6139 5.66200   1 
   0  11   6 4.77741 5.03642   2 
   1  11   6 2.10080 5.18743   1 
   1  11   6 3.30383 4.57700   2 
   2  11   6 49.3707 6.82743   1 
   2  11   6 28.4691 10.1412   2 
   3  11   6 6.73102 6.20992   1 
   3  11   6 6.31367 9.15433   2 
   4  11   6 68.3418 12.8455   2 
   4  11   6 133.160 9.50908   1 
   5  11   6 7.98239 9.47346   2 
   5  11   6 -3.5855 6.28951   1 
   6  11   6 20.1482 7.37733   1 
   6  11   6 14.1693 9.75383   2 
   7  11   6 64.3387 9.12212   1 
   7  11   6 38.4079 11.7751   2 
   8  11   6 4.96032 7.34551   1 
   8  11   6 3.66624 8.36777   2 
   9  11   6 18.1134 8.72181   1 
  10  11   6 0.14393 8.09293   1 
  10  11   6 3.05013 8.88609   2 
  11  11   6 28.1956 9.52020   1 
  11  11   6 -2.5814 9.90795   2 
  12  11   6 6.54732 9.00456   1 
  -8  12   6 1.95667 8.87336   2 
  -7  12   6 3.86080 8.04123   2 
  -6  12   6 12.2151 8.72459   2 
  -5  12   6 18.3234 7.97166   2 
  -4  12   6 -2.0785 6.70411   2 
  -3  12   6 9.61197 6.82924   2 
  -2  12   6 -2.3329 9.99644   2 
  -1  12   6 -5.0151 5.10649   2 
  -1  12   6 10.7771 7.62434   1 
   0  12   6 73.3872 10.6660   1 
   0  12   6 27.3075 5.65794   2 
  -3 -10   2 49.1839 9.41207  -2 
   1  12   6 49.1839 9.41207   1 
   1  12   6 -5.5331 7.77073   2 
   2  12   6 1.67447 9.18373   2 
   2  12   6 10.6527 6.11861   1 
   3  12   6 28.1264 7.08002   1 
   3  12   6 19.5210 10.4608   2 
   4  12   6 -1.8089 6.72299   1 
   4  12   6 8.69747 9.64916   2 
   5  12   6 30.9225 11.0080   2 
   1  -9   4 64.9123 11.7576  -2 
   5  12   6 64.9123 11.7576   1 
   6  12   6 2.68389 7.18187   1 
   6  12   6 4.27358 9.68418   2 
   7  12   6 -1.4163 7.01025   1 
   7  12   6 14.2025 10.5842   2 
   8  12   6 11.6364 7.86578   1 
   8  12   6 22.8803 10.9286   2 
   9  12   6 2.06813 9.33413   2 
   9  12   6 40.0360 9.40958   1 
  10  12   6 3.81036 8.48072   1 
  10  12   6 10.2504 10.1745   2 
  11  12   6 -10.659 7.87415   1 
  12  12   6 10.7449 10.0629   1 
  -7  13   6 14.1207 9.12091   2 
  -6  13   6 12.3868 8.29390   2 
  -5  13   6 -9.0075 7.00801   2 
  -4  13   6 10.0583 7.35369   2 
  -3  13   6 -4.0208 5.97851   2 
  -2  13   6 1.36500 6.08830   2 
  -1  13   6 2.79336 5.59730   2 
   0  13   6 -4.4561 8.00362   2 
   1  13   6 47.0431 9.78274   1 
   1  13   6 8.61334 10.3030   2 
   2  13   6 -2.6059 6.00132   1 
   3  13   6 -2.7593 6.44600   1 
   3  13   6 -6.3939 9.59395   2 
   4  13   6 -0.1083 6.93954   1 
   4  13   6 -25.637 8.93879   2 
   5  13   6 3.44393 7.47357   1 
   5  13   6 16.1934 10.5636   2 
   6  13   6 3.36432 7.69705   1 
   6  13   6 1.81997 10.1221   2 
   7  13   6 23.0143 8.16040   1 
   7  13   6 35.6941 12.0421   2 
   8  13   6 -15.665 8.78920   2 
   8  13   6 -3.8826 7.93784   1 
   9  13   6 8.26379 10.1345   2 
   9  13   6 11.3073 9.00598   1 
  10  13   6 8.41080 10.2244   2 
  10  13   6 -8.0494 7.60540   1 
  11  13   6 1.07402 9.22497   1 
  -5  14   6 16.3320 8.61036   2 
  -4  14   6 0.92060 7.75466   2 
  -3  14   6 4.06278 6.94611   2 
  -2  14   6 8.28025 6.81476   2 
  -1  14   6 5.82484 11.1123   2 
   0  14   6 35.8971 12.5294   2 
   1  14   6 10.4482 11.0881   2 
   2  14   6 5.69849 11.6339   2 
   3  14   6 10.6595 7.38623   1 
   3  14   6 -11.421 9.68399   2 
   4  14   6 10.1515 7.79800   1 
   4  14   6 20.2593 11.7644   2 
   5  14   6 11.2754 8.16830   1 
   5  14   6 13.1740 12.4950   2 
   6  14   6 3.60480 7.74389   1 
   6  14   6 5.35854 10.6893   2 
   7  14   6 -14.382 7.83050   1 
   7  14   6 0.83003 9.70793   2 
   8  14   6 14.8191 8.34194   1 
   8  14   6 6.39312 10.7411   2 
   9  14   6 8.26282 10.9250   2 
   9  14   6 -1.6357 8.39998   1 
  10  14   6 15.3282 9.33382   1 
  -4  15   6 2.64060 7.58070   2 
  -3  15   6 17.5845 12.9261   2 
  -2  15   6 26.3117 14.0427   2 
  -1  15   6 -9.4484 10.9002   2 
   0  15   6 9.04770 12.1419   2 
   1  15   6 -0.4105 10.7284   2 
   2  15   6 -2.8978 10.5056   2 
  -2 -11   5 -3.4760 16.1503  -2 
   3  15   6 -3.4760 16.1503   1 
   3  15   6 4.06332 11.3261   2 
   4  15   6 13.8878 12.3980   1 
   4  15   6 19.1441 12.8217   2 
   5  15   6 -6.2078 10.2832   2 
   5  15   6 8.50391 12.1016   1 
   6  15   6 28.3683 9.40376   1 
   6  15   6 22.5705 12.1747   2 
   7  15   6 -3.4555 8.34924   1 
   7  15   6 2.00860 10.3647   2 
   8  15   6 -2.2122 10.3191   2 
   8  15   6 5.72292 9.55191   1 
   9  15   6 3.54840 9.77324   1 
  -2  16   6 0.89953 14.1513   2 
  -1  16   6 -7.4639 11.3937   2 
   0  16   6 12.6213 12.4971   2 
   1  16   6 -5.3748 12.4957   2 
   2  16   6 -6.5475 11.7490   2 
   3  16   6 -2.1322 11.1269   2 
   4  16   6 17.0753 13.9092   2 
   4  16   6 13.3971 12.4671   1 
   5  16   6 -1.9843 11.7477   2 
   5  16   6 8.20055 13.1016   1 
   6  16   6 -5.2788 11.2360   2 
   6  16   6 -13.338 11.9521   1 
   7  16   6 17.8886 14.1485   1 
   7  16   6 -9.9220 10.7616   2 
   1  17   6 -4.1512 12.6136   2 
   2  17   6 18.4827 13.8571   2 
   3  17   6 6.26185 12.6538   2 
   4  17   6 5.04913 12.8620   2 
  -5 -11   7 9.52218 13.9874   1 
  -4 -11   7 2.84793 14.0985   1 
  -3 -11   7 11.3518 13.7777   1 
  -2 -11   7 -21.179 10.8357   2 
  -2 -11   7 21.6547 14.2018   1 
  -1 -11   7 0.81413 12.4873   2 
  -1 -11   7 26.2773 14.8754   1 
   0 -11   7 -20.836 12.2693   1 
   0 -11   7 12.3957 14.2387   2 
   1 -11   7 16.3914 13.2770   2 
   1 -11   7 3.52967 13.8295   1 
   2 -11   7 11.8335 8.42776   2 
   2 -11   7 4.09338 14.2869   1 
  -7 -10   7 1.96783 12.0069   1 
  -6 -10   7 10.1740 12.9180   1 
  -5 -10   7 17.0958 14.1240   1 
  -4 -10   7 27.3320 13.5596   1 
  -3 -10   7 25.6813 13.9863   1 
  -3 -10   7 -6.3728 11.0263   2 
  -2 -10   7 0.78449 11.0520   1 
  -2 -10   7 -2.2400 11.8149   2 
  -1 -10   7 -2.7818 11.3525   1 
  -1 -10   7 -2.8000 12.4466   2 
   0 -10   7 36.2743 14.2920   1 
   0 -10   7 22.2119 12.5720   2 
   1 -10   7 0.20775 7.28999   2 
   1 -10   7 -0.3792 12.2817   1 
   2 -10   7 9.14049 12.6676   1 
   2 -10   7 9.99133 7.75190   2 
   3 -10   7 -5.0410 7.94327   2 
   3 -10   7 2.80004 12.4591   1 
   4 -10   7 8.41038 8.43442   2 
   4 -10   7 14.4104 13.9256   1 
   5 -10   7 3.74184 9.05801   2 
   5 -10   7 -26.781 11.4319   1 
  -8  -9   7 -2.0267 9.25060   1 
  -7  -9   7 -9.0323 8.74251   1 
  -6  -9   7 5.67493 12.8676   1 
  -5  -9   7 -14.698 15.0602   1 
  -4  -9   7 31.5079 12.8469   2 
  -4  -9   7 21.8211 12.5132   1 
  -3  -9   7 -7.9108 10.0607   1 
  -3  -9   7 8.26786 11.1415   2 
  -2  -9   7 2.26137 11.0915   2 
  -2  -9   7 19.5799 12.0996   1 
  -1  -9   7 17.8808 11.8253   1 
  -1  -9   7 -27.870 9.70378   2 
   0  -9   7 -13.791 10.4359   1 
   0  -9   7 9.14740 12.0354   2 
  -5   0  12 14.9644 19.9811  -2 
   1  -9   7 14.9644 19.9811   1 
   1  -9   7 6.97799 7.18845   2 
   2  -9   7 13.2927 7.88264   2 
   2  -9   7 14.3188 12.6678   1 
   3  -9   7 -1.4416 7.04105   2 
   3  -9   7 -0.0668 12.5843   1 
   4  -9   7 6.15266 8.52577   2 
   4  -9   7 7.01428 11.7120   1 
   5  -9   7 -3.8527 8.32006   2 
   5  -9   7 8.92608 13.8488   1 
   6  -9   7 -2.4166 8.30908   2 
   6  -9   7 9.42008 13.7687   1 
  -9  -8   7 -13.520 8.66039   1 
  -8  -8   7 4.26573 8.88000   1 
   3   2  15 31.2409 23.0076  -2 
  -7  -8   7 31.2409 23.0076   1 
  -7  -8   7 10.7461 12.6912   1 
  -6  -8   7 0.18275 8.47363   1 
  -6  -8   7 8.84237 12.0817   2 
  -5  -8   7 30.3443 8.66808   1 
  -5  -8   7 23.5849 11.9971   2 
  -4  -8   7 -15.972 9.88969   1 
  -4  -8   7 0.59394 11.8037   2 
  -3  -8   7 7.38078 11.1697   1 
  -3  -8   7 -0.0953 11.1702   2 
  -2  -8   7 27.6848 12.7683   1 
  -2  -8   7 -11.808 9.69246   2 
  -1  -8   7 6.86943 10.3213   1 
  -1  -8   7 42.8124 12.8259   2 
   0  -8   7 3.25459 6.67162   2 
   0  -8   7 2.06433 9.76112   1 
   1  -8   7 8.11957 6.68831   2 
   1  -8   7 31.0969 12.3545   1 
   2  -8   7 -4.2999 6.47812   2 
   2  -8   7 1.40322 10.9264   1 
   3  -8   7 0.82445 7.27273   2 
   3  -8   7 30.0049 13.5081   1 
   4  -8   7 2.88884 11.9571   1 
   4  -8   7 -5.1597 7.07680   2 
   5  -8   7 10.4631 8.04201   2 
   5  -8   7 12.2161 12.7897   1 
   6  -8   7 3.49741 12.4190   1 
   6  -8   7 16.8959 9.17070   2 
   7  -8   7 18.8185 15.0330   1 
   7  -8   7 -4.5214 8.53386   2 
 -10  -7   7 -2.2004 8.44923   1 
  -9  -7   7 33.0367 9.68185   1 
  -8  -7   7 3.84208 7.78975   1 
  -7  -7   7 22.1576 9.11545   1 
  -7  -7   7 -4.9022 9.92697   2 
  -6  -7   7 13.4188 8.29600   1 
  -6  -7   7 -4.4169 10.0491   2 
  -5  -7   7 -4.5286 7.10355   1 
  -5  -7   7 5.88305 11.3071   2 
  -4  -7   7 27.0553 7.93798   1 
  -4  -7   7 11.4918 10.6870   2 
  -3  -7   7 45.1458 8.53197   1 
  -3  -7   7 16.6676 11.1752   2 
  -2  -7   7 -1.8531 9.56620   1 
  -2  -7   7 -5.7140 9.88550   2 
  -1  -7   7 -1.9487 5.70933   2 
  -1  -7   7 4.76189 10.2326   1 
   0  -7   7 38.9280 11.6941   1 
   0  -7   7 22.5046 6.54968   2 
   1  -7   7 21.7937 6.90524   2 
   1  -7   7 53.5383 12.2804   1 
   2  -7   7 9.57404 7.03934   2 
   2  -7   7 -0.6393 9.81966   1 
   3  -7   7 8.55943 7.30770   2 
   3  -7   7 10.6880 10.9790   1 
   4  -7   7 21.0360 7.54908   2 
   4  -7   7 39.1091 13.4846   1 
   5  -7   7 7.89189 8.01995   2 
   5  -7   7 29.5210 12.7496   1 
   6  -7   7 53.4677 14.8310   1 
   6  -7   7 30.2123 9.15168   2 
   7  -7   7 11.0652 13.6813   1 
   7  -7   7 16.3811 11.2377   2 
   8  -7   7 -8.7311 8.27108   2 
   8  -7   7 -10.182 14.9547   1 
 -10  -6   7 12.6697 8.73695   1 
  -9  -6   7 7.34727 8.01553   1 
  -8  -6   7 12.7687 10.8937   2 
  -8  -6   7 7.55097 7.99800   1 
  -7  -6   7 10.1027 8.08364   1 
  -7  -6   7 -6.7646 10.1266   2 
  -6  -6   7 5.30586 10.3281   2 
  -6  -6   7 6.15715 7.12416   1 
  -5  -6   7 16.7429 10.8392   1 
  -5  -6   7 -5.4114 9.52494   2 
   2   3  13 14.9946 15.3483  -2 
  -5  -6   7 14.9946 15.3483   1 
  -4  -6   7 -3.5673 6.36474   1 
  -4  -6   7 13.2913 15.4375   2 
  -3  -6   7 18.4405 6.71125   1 
  -3  -6   7 6.97227 9.98670   2 
  -2  -6   7 28.3321 6.61792   1 
  -2  -6   7 12.1490 10.0349   2 
  -2   2  11 142.689 11.0536  -2 
  -1  -6   7 142.689 11.0536   1 
  -1  -6   7 30.2406 6.41032   2 
   0  -6   7 145.513 14.3547   1 
   1  -6   7 -6.0014 8.46218   1 
   1  -6   7 -3.5481 6.50823   2 
   2  -6   7 67.3097 12.9135   1 
   2  -6   7 53.9210 7.56475   2 
   3  -6   7 19.6036 10.7133   1 
   3  -6   7 9.78122 6.74831   2 
   4  -6   7 6.55660 6.85908   2 
   4  -6   7 14.0129 11.4830   1 
   5  -6   7 8.56725 7.13709   2 
   5  -6   7 -10.775 10.5516   1 
   6  -6   7 19.0465 8.24826   2 
   6  -6   7 18.2959 12.2381   1 
   7  -6   7 5.67091 7.76864   2 
   7  -6   7 -13.914 11.7198   1 
   8  -6   7 7.94486 8.37745   2 
   8  -6   7 54.7490 16.4050   1 
   9  -6   7 2.89185 8.89887   2 
   9  -6   7 -8.0979 14.1465   1 
 -11  -5   7 5.04632 8.70525   1 
 -10  -5   7 6.87708 8.23691   1 
  -9  -5   7 10.3174 10.6058   2 
  -9  -5   7 0.82212 7.68846   1 
  -8  -5   7 -2.0648 9.72882   2 
  -8  -5   7 0.81884 6.45739   1 
  -7  -5   7 7.98304 7.68293   1 
  -7  -5   7 -7.6577 9.59570   2 
  -6  -5   7 12.6864 7.49995   1 
  -6  -5   7 16.9658 10.5534   2 
  -5  -5   7 23.2976 7.03808   1 
  -5  -5   7 13.4462 9.42974   2 
  -4  -5   7 29.5020 7.06791   1 
  -4  -5   7 16.9787 9.73239   2 
  -3  -5   7 31.4965 7.05628   1 
  -3  -5   7 16.1528 9.69477   2 
  -2  -5   7 35.5760 6.77302   1 
  -2  -5   7 26.4511 5.43314   2 
  -1  -5   7 34.2995 5.84820   2 
  -1  -5   7 61.8034 7.16909   1 
   0  -5   7 -5.8071 4.94521   1 
   0  -5   7 2.57092 6.07748   2 
   1  -5   7 86.2785 7.17343   1 
   1  -5   7 36.7634 6.51735   2 
   2  -5   7 18.0232 9.33801   1 
   2  -5   7 5.28319 6.06176   2 
   3  -5   7 -7.0240 8.85803   1 
   3  -5   7 -1.9995 5.62099   2 
   4  -5   7 -7.2046 5.64056   2 
   4  -5   7 5.84230 10.0330   1 
   5  -5   7 14.8476 7.06193   2 
   5  -5   7 22.1176 11.3515   1 
   6  -5   7 14.7086 7.52576   2 
   6  -5   7 4.30456 11.5221   1 
   7  -5   7 15.6590 7.96791   2 
   7  -5   7 32.5280 14.0804   1 
   8  -5   7 -8.3904 11.4412   1 
   8  -5   7 6.35921 7.72983   2 
   9  -5   7 11.5668 9.08164   2 
   9  -5   7 37.1891 13.4812   1 
  10  -5   7 9.73211 13.9948   1 
  10  -5   7 -5.7599 8.72420   2 
 -11  -4   7 4.62195 7.36472   1 
 -10  -4   7 -6.4968 7.12097   1 
 -10  -4   7 12.5476 11.7420   2 
  -9  -4   7 -1.1575 6.99563   1 
  -8  -4   7 29.1273 7.85397   1 
  -8  -4   7 9.80849 10.4701   2 
  -7  -4   7 27.0319 7.78287   1 
  -6  -4   7 6.58632 9.44026   2 
  -6  -4   7 12.0361 6.63816   1 
  -5  -4   7 3.44043 9.10493   2 
  -5  -4   7 7.80645 6.35268   1 
  -4  -4   7 45.0456 7.34622   1 
  -4  -4   7 57.5341 10.8506   2 
  -3  -4   7 57.1069 10.2088   2 
  -3  -4   7 119.387 8.81781   1 
  -2  -4   7 5.56986 4.59438   2 
  -2  -4   7 0.02812 5.30727   1 
  -1  -4   7 5.50425 5.28130   1 
  -1  -4   7 0.22797 4.70914   2 
   0  -4   7 -1.3434 3.80700   2 
   0  -4   7 4.10618 4.77135   1 
   1  -4   7 21.0544 5.61925   1 
   1  -4   7 -2.9669 3.96856   2 
   2  -4   7 2.86069 4.96732   1 
   2  -4   7 8.70828 4.42938   2 
   3  -4   7 114.613 7.12331   2 
   3  -4   7 250.538 17.0448   1 
   4  -4   7 6.64760 5.02564   2 
   4  -4   7 30.3597 9.90476   1 
   5  -4   7 50.8601 6.69339   2 
   5  -4   7 102.764 13.8415   1 
   6  -4   7 0.00234 5.12793   2 
   6  -4   7 10.0251 10.0977   1 
   7  -4   7 34.6439 8.96557   2 
   7  -4   7 112.961 15.2806   1 
   8  -4   7 50.1578 13.8801   1 
   9  -4   7 15.8994 7.19509   2 
   9  -4   7 4.67965 11.7971   1 
 -12   1   5 -5.1563 21.8987  -2 
  10  -4   7 -5.1563 21.8987   1 
  10  -4   7 -8.9782 8.02595   2 
  11  -4   7 6.42773 9.23881   2 
  11  -4   7 -9.7613 13.9073   1 
 -11  -3   7 19.4501 15.4962   1 
 -11  -3   7 -6.7925 11.1246   2 
 -10  -3   7 -12.090 6.37860   1 
 -10  -3   7 24.5756 12.5630   2 
  -9  -3   7 17.6773 10.7531   2 
  -9  -3   7 35.9970 8.19336   1 
  -8  -3   7 15.1378 9.80427   2 
  -8  -3   7 37.9842 8.12128   1 
   5   5  12 93.2052 20.4180  -2 
  -7  -3   7 93.2052 20.4180   1 
  -6  -3   7 3.96841 6.47515   1 
  -6  -3   7 1.67623 8.74900   2 
  -5  -3   7 4.91778 8.37220   2 
  -5  -3   7 9.73622 6.13049   1 
  -4  -3   7 15.9985 6.17170   1 
  -4  -3   7 0.79056 9.06396   2 
   1   4  10 41.0387 8.94053  -2 
  -3  -3   7 41.0387 8.94053   1 
  -3  -3   7 8.74436 8.28562   2 
  -2  -3   7 34.0501 6.05633   1 
  -2  -3   7 19.2525 4.10006   2 
  -1  -3   7 33.9507 4.14768   2 
  -1  -3   7 112.125 7.81378   1 
   0  -3   7 -1.3232 4.95646   2 
   0  -3   7 15.2274 5.24789   1 
   1  -3   7 82.2393 9.77329   2 
   1  -3   7 201.402 9.23579   1 
   2  -3   7 59.4425 7.14228   2 
   2  -3   7 146.629 8.34682   1 
   3  -3   7 15.0045 5.89872   2 
   3  -3   7 61.7040 6.55150   1 
   4  -3   7 159.778 9.94174   2 
   4  -3   7 314.675 10.6439   1 
   5  -3   7 22.8395 6.03748   1 
   5  -3   7 12.7394 6.32439   2 
   6  -3   7 54.5840 8.05422   2 
   6  -3   7 122.035 14.1314   1 
   7  -3   7 -1.2127 9.41109   1 
   7  -3   7 7.17982 5.38668   2 
   8  -3   7 -1.1632 5.43864   2 
   8  -3   7 7.29026 10.2069   1 
   9  -3   7 1.31469 5.89404   2 
   9  -3   7 -2.3304 10.9782   1 
  10  -3   7 1.82847 6.55872   2 
  10  -3   7 15.7860 14.0387   1 
  11  -3   7 -6.3979 6.81530   2 
  11  -3   7 5.40450 14.2673   1 
 -12  -2   7 10.4894 14.0578   2 
 -12  -2   7 3.92725 14.5411   1 
 -11  -2   7 28.7638 14.6295   1 
 -11  -2   7 -3.2504 12.6021   2 
 -10  -2   7 49.5442 15.7813   1 
 -10  -2   7 20.5150 11.7883   2 
  -9  -2   7 24.5572 6.98091   1 
  -9  -2   7 13.4554 11.6475   2 
  -8  -2   7 10.1507 9.62759   2 
  -8  -2   7 44.0932 7.59957   1 
  -7  -2   7 16.9500 6.63836   1 
  -7  -2   7 8.66885 8.67376   2 
  -6  -2   7 116.111 9.08429   1 
  -6  -2   7 32.4249 9.30081   2 
  -5  -2   7 26.4301 9.46338   2 
  -5  -2   7 87.4284 8.15677   1 
  -4  -2   7 -0.2597 5.33428   1 
  -4  -2   7 14.8423 7.78273   2 
  -3  -2   7 -1.1789 5.08119   1 
  -3  -2   7 1.31401 2.19328   2 
  -2  -2   7 105.875 5.89542   2 
  -2  -2   7 213.325 9.50483   1 
  -1  -2   7 16.7965 4.66875   2 
   0  -2   7 96.2762 10.8126   2 
   0  -2   7 228.409 9.23906   1 
   1  -2   7 95.2442 7.20217   1 
   1  -2   7 41.5184 5.88765   2 
   2  -2   7 128.724 7.47809   1 
   2  -2   7 64.5695 6.63444   2 
   3  -2   7 151.162 8.00306   1 
   3  -2   7 62.6083 6.98928   2 
   4  -2   7 28.0770 6.02956   2 
   4  -2   7 73.0609 6.69626   1 
   5  -2   7 15.0248 6.21433   2 
   5  -2   7 53.5588 6.75032   1 
   6  -2   7 6.25619 5.90274   2 
   6  -2   7 12.3021 5.88224   1 
   7  -2   7 5.07800 5.97676   1 
   7  -2   7 2.87889 6.18745   2 
   8  -2   7 12.6781 7.00692   2 
   8  -2   7 16.5527 10.4948   1 
   9  -2   7 -7.5354 6.68205   2 
   9  -2   7 -6.1119 11.2121   1 
  10  -2   7 4.73277 6.57342   2 
  10  -2   7 18.1711 13.1592   1 
  11  -2   7 3.76682 6.57494   2 
  11  -2   7 32.7652 12.6628   1 
  12  -2   7 -12.473 6.72539   2 
  12  -2   7 -1.5491 13.5169   1 
 -12  -1   7 23.6391 15.8611   1 
 -12  -1   7 32.3817 15.4393   2 
 -11  -1   7 20.5376 13.3468   2 
 -11  -1   7 19.0044 14.6734   1 
 -10  -1   7 16.7181 13.4506   1 
 -10  -1   7 -7.8718 10.8976   2 
  -9  -1   7 1.50711 10.4745   2 
  -9  -1   7 2.35291 6.41615   1 
  -8  -1   7 7.68184 6.02189   1 
  -7  -1   7 11.7652 8.76353   2 
  -7  -1   7 3.27324 5.53287   1 
  -6  -1   7 5.24408 8.11226   2 
  -6  -1   7 20.5818 6.02348   1 
  -5  -1   7 3.37091 5.11976   1 
  -5  -1   7 9.47036 7.61272   2 
  -4  -1   7 211.272 9.47430   1 
  -4  -1   7 108.028 10.9445   2 
  -3  -1   7 37.9762 5.93605   1 
  -3  -1   7 24.1676 4.01337   2 
  -2  -1   7 120.240 6.37574   2 
  -2  -1   7 253.642 9.41872   1 
  -1  -1   7 350.324 10.6705   1 
  -1  -1   7 168.238 7.28375   2 
   0  -1   7 28.1924 5.13784   2 
   0  -1   7 66.7030 6.45305   1 
   1  -1   7 44.6677 5.96714   2 
   1  -1   7 93.4509 6.80767   1 
   2  -1   7 4.70235 4.81975   2 
   2  -1   7 3.56596 4.49388   1 
   3  -1   7 37.5702 5.73312   1 
   3  -1   7 20.3992 5.51312   2 
   4  -1   7 16.0694 5.22165   1 
   4  -1   7 1.42516 5.21960   2 
   5  -1   7 21.7502 5.62013   1 
   5  -1   7 6.71396 5.52745   2 
   6  -1   7 0.70225 5.36875   2 
   6  -1   7 9.20703 5.67152   1 
   7  -1   7 10.9024 6.16366   2 
   7  -1   7 52.3746 7.36218   1 
   8  -1   7 9.15238 10.1900   1 
  -9   3   4 67.6663 15.0983  -2 
   8  -1   7 67.6663 15.0983   1 
   9  -1   7 173.689 11.6033   1 
   9  -1   7 42.4555 10.9124   2 
  10  -1   7 11.1116 7.53096   2 
  10  -1   7 15.3746 11.5714   1 
  11  -1   7 5.62609 6.20193   2 
  11  -1   7 26.4930 15.5272   1 
  12  -1   7 7.79777 6.71653   2 
  12  -1   7 -2.5288 12.4428   1 
 -12   0   7 -21.462 12.4724   1 
 -12   0   7 -11.799 14.6203   2 
 -11   0   7 1.92502 13.5761   2 
  10   7  12 23.7183 18.7629  -2 
 -11   0   7 23.7183 18.7629   1 
 -10   0   7 2.14236 11.7672   2 
 -10   0   7 4.59854 12.1553   1 
  -9   0   7 14.9065 11.1266   2 
  -9   0   7 3.10947 11.0832   1 
  -8   0   7 2.22875 10.1688   2 
  -8   0   7 6.69433 5.92746   1 
  -7   0   7 15.8315 6.99250   1 
   6   6  10 47.8755 18.7755  -2 
  -7   0   7 47.8755 18.7755   1 
  -7   0   7 17.4003 9.36245   2 
  -6   0   7 24.8464 9.60227   2 
  -6   0   7 51.5774 6.65490   1 
  -5   0   7 234.139 9.57154   1 
  -5   0   7 108.971 11.0559   2 
  -4   0   7 -11.680 4.14102   1 
  -4   0   7 4.94086 3.10106   2 
  -3   0   7 254.707 7.24117   2 
  -3   0   7 560.540 12.9639   1 
  -2   0   7 33.6408 4.44699   2 
  -2   0   7 66.8844 6.14462   1 
  -1   0   7 37.4231 5.42806   1 
  -1   0   7 273.974 11.0203   2 
   0   0   7 72.9569 6.20300   1 
   0   0   7 37.9592 5.21214   2 
   1   0   7 -2.4097 4.26527   2 
   1   0   7 -1.8703 4.15078   1 
   2   0   7 0.55777 4.44188   2 
   2   0   7 11.3041 4.72273   1 
   3   0   7 215.230 8.63030   1 
   3   0   7 120.362 7.57297   2 
   4   0   7 12.9068 5.47349   2 
   4   0   7 32.0958 5.74106   1 
   5   0   7 118.968 8.01469   1 
   5   0   7 63.7798 7.13761   2 
   6   0   7 117.738 8.50187   1 
   6   0   7 52.6266 7.18506   2 
   7   0   7 49.5556 7.54319   1 
   7   0   7 14.8037 6.08210   2 
   8   0   7 33.9942 7.61772   1 
   8   0   7 12.7477 6.30077   2 
   9   0   7 23.5718 7.30133   1 
   9   0   7 1.05882 6.22499   2 
  10   0   7 60.0853 9.54530   1 
  10   0   7 21.3602 7.38901   2 
  11   0   7 -1.9936 6.87996   2 
  11   0   7 15.0720 8.47882   1 
  12   0   7 -7.6107 6.64548   2 
  12   0   7 4.39256 13.8923   1 
  13   0   7 1.87983 7.76880   2 
  13   0   7 8.76990 14.0834   1 
 -12   1   7 -5.5417 12.7915   1 
 -12   1   7 -6.1390 14.5416   2 
 -11   1   7 44.1867 15.6097   2 
 -11   1   7 29.1662 14.2332   1 
 -10   1   7 27.8651 13.3138   1 
 -10   1   7 -11.725 11.8325   2 
  -9   1   7 68.8366 14.2276   2 
  -9   1   7 129.812 17.4494   1 
  -8   1   7 -13.313 9.18214   2 
  -8   1   7 9.98551 10.2042   1 
  -7   1   7 116.591 7.97730   1 
  -7   1   7 63.1833 12.1053   2 
  -6   1   7 50.5796 6.30894   1 
  -6   1   7 26.7187 9.69372   2 
  -5   1   7 36.7772 4.44527   2 
  -5   1   7 89.3893 6.99008   1 
  -4   1   7 112.791 7.36550   1 
  -4   1   7 57.7613 4.83362   2 
  -3   1   7 5.64284 4.42009   1 
  -3   1   7 -0.4098 3.44033   2 
  -2   1   7 67.8119 5.80294   1 
  -2   1   7 24.0392 4.12342   2 
  -1   1   7 31.9456 5.13675   1 
   0   1   7 78.2752 6.14396   1 
   0   1   7 39.0157 5.19412   2 
   1   1   7 56.8577 5.62981   2 
   1   1   7 121.758 6.94557   1 
   2   1   7 77.6340 6.39859   2 
   2   1   7 194.212 8.15555   1 
   3   1   7 108.440 6.95192   1 
   3   1   7 83.6989 9.50254   2 
   4   1   7 79.1160 6.71889   2 
   4   1   7 187.190 8.91341   1 
   5   1   7 67.4915 6.75256   2 
   5   1   7 178.670 8.99161   1 
   6   1   7 154.145 8.96976   2 
   6   1   7 346.021 11.9357   1 
   7   1   7 23.5141 6.55590   1 
   7   1   7 15.8625 6.04986   2 
  -7   4   3 67.3767 14.7075  -2 
   7   1   7 67.3767 14.7075   1 
   8   1   7 242.046 9.86345   1 
   8   1   7 110.291 8.85225   2 
   9   1   7 5.57979 6.31740   2 
   9   1   7 13.0014 5.99985   1 
  10   1   7 -8.4997 5.76341   1 
  10   1   7 7.01675 6.60112   2 
  11   1   7 17.4259 7.33446   2 
  11   1   7 17.0511 6.38536   1 
  12   1   7 39.1095 8.15432   1 
  12   1   7 14.9495 7.60996   2 
  13   1   7 -4.5088 7.28695   2 
  13   1   7 0.70732 8.86012   1 
 -12   2   7 -5.0930 14.1991   2 
 -12   2   7 7.99174 14.3173   1 
 -11   2   7 8.44782 13.3026   2 
 -11   2   7 17.2657 13.6182   1 
 -10   2   7 12.0986 13.1459   2 
 -10   2   7 48.5877 14.0953   1 
  -9   2   7 10.4204 11.4785   2 
  -9   2   7 -1.1578 10.5315   1 
  -8   2   7 45.1717 11.6607   2 
  -8   2   7 103.016 15.1869   1 
  -7   2   7 49.2652 10.8731   1 
  -7   2   7 37.4246 10.9025   2 
  -6   2   7 11.9486 4.65242   1 
  -6   2   7 14.7576 8.72074   2 
  -5   2   7 6.36787 4.26009   2 
   5   7   8 0.21440 13.9483  -2 
  -5   2   7 0.21440 13.9483   1 
  -4   2   7 4.63519 4.15146   1 
  -4   2   7 -1.1232 4.04823   2 
  -3   2   7 -2.1528 4.03005   2 
  -3   2   7 -0.5358 3.92838   1 
  -2   2   7 144.641 6.99824   2 
  -2   2   7 248.969 8.06989   1 
  -1   2   7 -8.3993 3.68809   2 
   1   6   6 5.45144 6.78878  -2 
  -1   2   7 5.45144 6.78878   1 
   0   2   7 540.641 11.3576   1 
   0   2   7 263.299 8.55315   2 
   1   2   7 30.9603 4.84204   2 
   1   2   7 67.7847 5.67751   1 
   2   2   7 584.001 12.1809   1 
   2   2   7 283.512 9.12670   2 
   3   2   7 168.171 8.03247   2 
   3   2   7 365.320 10.6036   1 
   4   2   7 38.7945 5.67718   2 
   4   2   7 78.9293 5.53082   1 
   5   2   7 267.144 8.38359   1 
   5   2   7 121.439 7.60734   2 
   6   2   7 8.36882 4.86990   2 
   6   2   7 9.11755 4.63113   1 
   7   2   7 186.839 8.63416   1 
   8   2   7 63.1936 7.65313   2 
   8   2   7 149.749 8.53367   1 
   9   2   7 39.3460 6.74555   1 
   9   2   7 0.33045 8.05417   2 
  10   2   7 13.1077 6.29323   1 
  10   2   7 -2.1297 6.10520   2 
  11   2   7 69.7179 8.65783   1 
  11   2   7 24.3602 7.32335   2 
  12   2   7 2.53978 7.08637   1 
  12   2   7 0.00926 6.66295   2 
  13   2   7 32.5065 8.40710   1 
  13   2   7 11.9852 9.76292   2 
 -12   3   7 9.21714 14.1615   2 
 -12   3   7 19.4403 13.7401   1 
 -11   3   7 -4.0676 13.2770   2 
 -11   3   7 0.43044 11.6785   1 
 -10   3   7 36.1039 13.2836   1 
  -9   3   7 -8.5423 9.33852   1 
  -9   3   7 2.18061 11.5682   2 
  -8   3   7 9.71703 10.0435   1 
  -8   3   7 26.6895 11.1572   2 
  -7   3   7 6.27080 8.93570   2 
  -7   3   7 16.8175 9.79120   1 
  -6   3   7 15.0217 8.79879   1 
  -6   3   7 9.35310 5.00408   2 
  -5   3   7 9.33439 4.86024   2 
  -5   3   7 3.08530 3.49551   1 
  -4   3   7 359.386 8.74637   1 
  -4   3   7 178.912 8.07546   2 
  -3   3   7 15.2193 4.88363   2 
  -2   3   7 4.00888 4.18280   2 
  -2   3   7 12.8916 3.95051   1 
  -1   3   7 119.816 6.62020   2 
  -1   3   7 248.510 7.87713   1 
   0   3   7 17.6621 4.22138   1 
   0   3   7 8.42985 4.31700   2 
   1   3   7 836.934 13.8391   1 
   1   3   7 369.367 10.0222   2 
   2   3   7 109.857 6.44419   1 
   2   3   7 48.1438 5.27832   2 
   3   3   7 254.198 7.51617   1 
   3   3   7 126.346 7.16055   2 
   4   3   7 24.5534 4.38520   1 
   4   3   7 14.6733 4.64228   2 
   5   3   7 -3.4676 4.18443   2 
   5   3   7 -2.8181 4.88845   1 
   6   3   7 -1.3933 5.40921   1 
   6   3   7 1.59239 7.15548   2 
   7   3   7 26.9700 5.72953   2 
   7   3   7 46.1500 7.54088   1 
   8   3   7 14.7915 6.95452   1 
   8   3   7 6.29720 5.32573   2 
   9   3   7 57.8672 7.81976   2 
   9   3   7 123.624 10.6266   1 
  10   3   7 -3.2887 6.36156   2 
  10   3   7 -0.9014 6.95681   1 
  11   3   7 1.14452 6.04477   2 
  11   3   7 12.2164 8.36063   1 
  12   3   7 3.09611 9.13868   1 
  12   3   7 -0.5490 5.77809   2 
  13   3   7 7.39305 8.99185   1 
  13   3   7 2.82427 10.6126   2 
 -11   4   7 8.73754 14.9230   2 
 -11   4   7 27.2586 13.5140   1 
 -10   4   7 -11.361 11.7018   2 
 -10   4   7 -2.2989 11.6622   1 
  -9   4   7 -9.4586 10.3901   2 
  -9   4   7 -6.7316 9.47948   1 
  -8   4   7 -2.0376 9.35091   1 
  -8   4   7 1.67319 10.9582   2 
  -7   4   7 5.75543 8.80487   1 
  -7   4   7 -2.6538 6.21343   2 
  -6   4   7 5.41755 5.36735   2 
  -6   4   7 1.40064 8.23917   1 
  -5   4   7 169.474 8.56331   2 
  -5   4   7 301.619 17.3164   1 
  -4   4   7 -0.5653 4.43045   2 
  -4   4   7 6.75913 2.72550   1 
  -3   4   7 171.644 5.53378   1 
  -3   4   7 75.7999 6.27876   2 
  -2   4   7 33.1042 5.37045   2 
  -2   4   7 46.7169 4.15579   1 
  -1   4   7 54.3265 4.57731   1 
  -1   4   7 28.3590 5.26465   2 
   0   4   7 109.544 5.96906   1 
   1   4   7 6.97737 3.96169   1 
   1   4   7 3.91232 4.16011   2 
   2   4   7 77.0525 4.78296   1 
   2   4   7 35.1199 5.15769   2 
   3   4   7 60.5555 5.53408   2 
   3   4   7 146.367 7.74081   1 
   4   4   7 4.99591 4.80392   1 
   4   4   7 0.05821 3.84912   2 
  -4   6   2 132.758 10.2256  -2 
   5   4   7 132.758 10.2256   1 
   5   4   7 63.2390 5.89465   2 
   6   4   7 215.481 10.2526   1 
   6   4   7 81.9742 6.68326   2 
   7   4   7 41.8036 7.22258   1 
   7   4   7 22.6698 5.19830   2 
   8   4   7 29.8388 5.86766   2 
   8   4   7 72.3931 8.79811   1 
   9   4   7 9.52301 7.18705   1 
   9   4   7 3.62235 5.47071   2 
  -9   5   0 146.596 14.6638  -2 
  10   4   7 146.596 14.6638   1 
  10   4   7 46.3232 7.31169   2 
  11   4   7 6.79546 10.4573   2 
  11   4   7 2.55705 7.62177   1 
  12   4   7 24.7688 9.48560   1 
  12   4   7 -3.4482 10.5133   2 
  13   4   7 2.18184 10.7953   2 
  13   4   7 -0.2906 9.10504   1 
 -11   5   7 -0.5099 10.9916   1 
 -11   5   7 -26.355 13.3594   2 
 -10   5   7 -14.831 10.7512   1 
 -10   5   7 -9.0634 11.5979   2 
  -9   5   7 37.6210 13.2276   2 
  10   9   8 135.341 22.6471  -2 
  -9   5   7 135.341 22.6471   1 
  -8   5   7 10.7912 7.07785   2 
  -8   5   7 2.32888 9.83587   1 
  -7   5   7 52.8354 8.14875   2 
   8   9   7 114.633 17.4558  -2 
  -7   5   7 114.633 17.4558   1 
  -6   5   7 13.5221 6.11965   2 
  -6   5   7 76.2622 11.9866   1 
   6   8   6 66.5665 17.7227  -2 
  -5   5   7 66.5665 17.7227   1 
  -5   5   7 19.4650 5.81101   2 
  -4   5   7 104.907 7.26608   2 
  -4   5   7 236.297 15.2895   1 
  -3   5   7 17.2960 5.09496   2 
   4   8   5 37.4401 13.1702  -2 
  -3   5   7 37.4401 13.1702   1 
  -2   5   7 7.53770 2.69644   1 
  -2   5   7 7.82721 4.74773   2 
  -1   5   7 -0.7703 2.97271   1 
  -1   5   7 10.0513 4.59562   2 
   0   5   7 45.1254 5.65160   2 
   0   5   7 109.496 5.44504   1 
   1   5   7 283.635 8.40412   1 
   1   5   7 142.435 7.33358   2 
   2   5   7 65.9711 5.80233   2 
   2   5   7 126.089 6.87405   1 
   3   5   7 18.6914 4.28494   2 
   3   5   7 56.4809 6.03297   1 
   4   5   7 198.285 7.77442   2 
   4   5   7 458.784 12.2461   1 
   5   5   7 40.3888 5.13315   2 
   5   5   7 86.2550 7.55807   1 
   6   5   7 207.172 10.4957   1 
   6   5   7 84.6660 6.32095   2 
   7   5   7 35.0277 5.30983   2 
   7   5   7 69.5404 8.15439   1 
   8   5   7 85.6859 9.01125   1 
   8   5   7 41.3150 5.99558   2 
   9   5   7 17.0486 5.64857   2 
   9   5   7 36.9665 8.05126   1 
  10   5   7 -6.0020 6.61456   1 
  10   5   7 -15.339 7.63989   2 
  11   5   7 -6.9484 9.69559   2 
  11   5   7 24.9380 8.94771   1 
  12   5   7 -10.263 7.80883   1 
  12   5   7 14.7539 11.5738   2 
  13   5   7 4.25210 9.21281   1 
  13   5   7 -2.7455 11.1622   2 
 -11   6   7 6.04557 15.2677   2 
 -11   6   7 -3.9081 11.5546   1 
 -10   6   7 40.0698 12.5214   1 
 -10   6   7 24.1897 14.1185   2 
  -9   6   7 13.2281 10.9029   1 
  -9   6   7 7.57265 11.9555   2 
  -8   6   7 91.1016 9.95618   2 
  -8   6   7 191.194 17.6085   1 
  -7   6   7 5.53712 8.80269   2 
  -7   6   7 23.3543 10.5037   1 
  -6   6   7 31.4323 6.94057   2 
  -6   6   7 88.0144 12.7594   1 
  -5   6   7 20.8244 6.21801   2 
  -5   6   7 22.0489 9.43201   1 
  -4   6   7 48.6255 9.89533   1 
  -4   6   7 14.7328 5.36823   2 
  -3   6   7 9.41910 5.01454   2 
  -3   6   7 20.1729 8.63977   1 
  -2   6   7 29.0904 8.66541   1 
  -2   6   7 24.4730 5.23429   2 
  -1   6   7 72.0967 4.19029   1 
  -1   6   7 31.6684 5.54184   2 
   0   6   7 190.089 8.47520   2 
   0   6   7 388.429 8.74227   1 
   1   6   7 7.86990 3.83569   1 
   1   6   7 -2.9712 4.09891   2 
   2   6   7 53.8060 5.64103   2 
   2   6   7 122.188 6.89232   1 
   3   6   7 135.210 6.82691   2 
   3   6   7 279.144 9.68695   1 
   4   6   7 72.3508 6.97071   1 
   4   6   7 35.6956 4.85159   2 
   5   6   7 183.341 9.61371   1 
   6   6   7 1.43305 5.78388   1 
   6   6   7 9.40839 8.19911   2 
   7   6   7 132.137 9.82625   1 
   8   6   7 3.96102 4.46302   2 
   8   6   7 -4.9916 6.51210   1 
   9   6   7 5.57431 7.00572   1 
   9   6   7 4.88384 8.73469   2 
  10   6   7 5.19998 7.49602   1 
  10   6   7 -8.8173 8.55040   2 
  11   6   7 12.3121 8.37469   1 
  11   6   7 9.81896 9.89944   2 
  12   6   7 16.8789 10.9551   2 
  12   6   7 20.2944 9.69743   1 
  13   6   7 1.73179 12.7933   2 
  13   6   7 14.8243 9.54967   1 
 -10   7   7 2.99503 12.6421   2 
 -10   7   7 22.7499 11.8938   1 
  -9   7   7 -1.1744 8.44795   2 
  -9   7   7 14.9507 10.5752   1 
  -8   7   7 8.52004 7.42417   2 
  -8   7   7 -9.8141 8.84419   1 
  -7   7   7 57.6654 12.1987   1 
  -7   7   7 43.3716 8.69689   2 
  -6   7   7 9.51037 9.13997   1 
  -6   7   7 5.69460 6.46308   2 
  -5   7   7 -2.1817 5.62157   2 
  -5   7   7 0.99128 7.71810   1 
  -4   7   7 53.6859 7.31162   2 
  -4   7   7 103.781 11.8988   1 
  -3   7   7 15.6527 8.22304   1 
  -3   7   7 2.96382 4.86927   2 
  -2   7   7 36.5804 5.90109   2 
  -2   7   7 63.0681 9.60637   1 
  -1   7   7 90.7544 6.98682   2 
  -1   7   7 191.059 4.37720   1 
   0   7   7 36.1944 5.55189   2 
   0   7   7 74.0425 4.91760   1 
   1   8   2 534.138 21.6831  -2 
   1   7   7 534.138 21.6831   1 
   1   7   7 290.350 9.88365   2 
   1   7   7 541.921 13.5486   1 
   2   7   7 72.8933 6.09604   1 
   2   7   7 52.0955 5.39365   2 
   3   7   7 36.2357 4.92838   2 
  -1   8   1 224.545 14.0079  -2 
   3   7   7 224.545 14.0079   1 
   3   7   7 98.0219 10.9593   1 
   4   7   7 28.5565 4.60499   2 
   4   7   7 43.9182 6.58959   1 
   5   7   7 -6.1037 4.76873   1 
   5   7   7 -3.5298 3.48001   2 
   6   7   7 126.539 9.47495   1 
   6   7   7 60.9250 4.84988   2 
   5  -7   1 21.6729 10.5865  -2 
   7   7   7 21.6729 10.5865   1 
   7   7   7 6.66637 8.79898   2 
   8   7   7 20.0021 7.34628   1 
   8   7   7 8.52954 8.82265   2 
   9   7   7 29.5297 11.1045   2 
   9   7   7 82.5376 10.0408   1 
  10   7   7 -18.156 8.56415   2 
  10   7   7 -3.6609 7.55012   1 
  11   7   7 31.7639 8.98315   1 
  11   7   7 8.63731 10.2306   2 
  10  -6   3 6.82313 13.3036  -2 
  12   7   7 6.82313 13.3036   1 
  12   7   7 -8.9159 9.03029   2 
  13   7   7 7.55240 11.9328   2 
  13   7   7 3.99905 9.36990   1 
 -10   8   7 8.87973 13.6424   2 
  -9   8   7 19.6042 12.0122   1 
  -9   8   7 8.87567 8.86288   2 
  -8   8   7 -0.1394 10.0768   1 
  -8   8   7 -1.5579 7.85205   2 
  -7   8   7 4.42085 7.38698   2 
  -7   8   7 14.0928 9.73680   1 
  -6   8   7 22.4898 8.87463   1 
  -6   8   7 9.45248 6.78454   2 
  -5   8   7 -2.0099 6.01356   2 
  -5   8   7 -1.4652 7.56711   1 
  -4   8   7 44.5982 7.31083   2 
  -4   8   7 94.6723 11.4726   1 
  -3   8   7 10.3068 5.93548   2 
  -3   8   7 41.9996 11.2451   1 
  -2   8   7 47.8282 9.45554   1 
  -1   8   7 58.6378 6.25184   2 
  -1   8   7 129.599 5.33810   1 
   0   8   7 178.226 7.05559   1 
   0   8   7 82.8406 10.7480   2 
   1   8   7 71.5515 5.85820   1 
   1   8   7 21.2715 5.01108   2 
   2   8   7 74.5788 6.13399   2 
   2   8   7 169.445 8.42687   1 
   3   8   7 4.95793 3.76451   2 
   3   8   7 4.04157 5.52445   1 
   4   8   7 5.07925 3.43263   2 
   4   8   7 7.97093 5.60836   1 
   5   8   7 -4.8024 8.01736   1 
   5   8   7 7.84002 8.28383   2 
   6   8   7 3.96761 6.18660   1 
   6   8   7 4.81886 10.0531   2 
   7   8   7 6.68710 6.56682   1 
   7   8   7 5.28109 8.76084   2 
   8   8   7 7.22762 6.85903   1 
   8   8   7 -3.2106 8.26093   2 
   9   8   7 37.7019 8.45751   1 
   9   8   7 2.88259 9.21725   2 
  10   8   7 26.4992 8.53209   1 
  10   8   7 26.7042 10.8135   2 
  11   8   7 -7.4863 7.75743   1 
  11   8   7 22.9644 10.7186   2 
  12   8   7 -8.6489 9.53026   2 
  12   8   7 4.47753 8.89348   1 
  13   8   7 1.13603 8.88232   1 
  13   8   7 10.2119 10.6315   2 
  -9   9   7 2.76529 12.5096   2 
  -8   9   7 -2.1780 7.99907   2 
  -7   9   7 36.4290 10.3235   1 
  -7   9   7 5.80277 8.28433   2 
  -6   9   7 1.84707 7.81151   1 
  -6   9   7 1.25254 7.35318   2 
  -5   9   7 14.7040 7.24745   2 
  -5   9   7 23.0942 9.09856   1 
  -4   9   7 13.4092 6.43023   2 
  -4   9   7 43.7849 9.99566   1 
  -3   9   7 10.0343 6.01627   2 
  -3   9   7 21.2854 8.84241   1 
  -2   9   7 54.7358 10.1215   1 
  -2   9   7 14.0729 5.44918   2 
  -1   9   7 -6.6452 7.27145   1 
  -1   9   7 0.76758 5.22239   2 
   0   9   7 22.0773 5.40049   2 
   0   9   7 59.3292 5.54510   1 
   1   9   7 1.31608 4.59182   1 
   1   9   7 -0.5587 4.29532   2 
   2   9   7 28.6813 5.73496   1 
   2   9   7 12.0194 8.05714   2 
   3   9   7 9.31861 3.78529   2 
   3   9   7 16.5367 5.76121   1 
   4   9   7 101.794 12.8774   2 
   4   9   7 248.420 10.6381   1 
   5   9   7 5.96618 9.37712   2 
   5   9   7 2.39681 5.77383   1 
   6   9   7 173.283 11.0597   1 
   4  -8   2 58.3122 17.9705  -2 
   7   9   7 58.3122 17.9705   1 
   7   9   7 17.0729 10.0889   2 
   7   9   7 18.9611 9.82434   1 
   8   9   7 41.0308 8.73318   1 
   9   9   7 3.79583 7.60622   1 
   9   9   7 5.87045 9.41306   2 
  10   9   7 -4.1193 7.39140   1 
  10   9   7 10.0920 10.8112   2 
  11   9   7 20.7152 11.0873   2 
  11   9   7 23.8441 9.60580   1 
  12   9   7 -9.0894 9.54996   2 
  12   9   7 6.21341 9.32116   1 
  13   9   7 10.9587 9.74461   1 
  13   9   7 2.15010 10.6848   2 
  -9  10   7 11.3050 9.40755   2 
  -8  10   7 27.5707 9.38190   2 
  -7  10   7 9.00191 8.22576   2 
  -6  10   7 41.3786 9.01960   2 
  -6  10   7 68.4031 11.3521   1 
  -5  10   7 6.14188 7.00874   2 
   8  11   3 -2.0475 11.8818  -2 
  -5  10   7 -2.0475 11.8818   1 
  -4  10   7 3.41945 7.88026   1 
  -4  10   7 3.42908 6.01960   2 
  -3  10   7 5.66008 5.77306   2 
  -3  10   7 24.9403 8.92792   1 
  -2  10   7 -1.7072 5.21061   2 
  -2  10   7 1.92548 7.44096   1 
  -1  10   7 2.05539 5.29457   2 
   4  10   1 25.8815 10.8879  -2 
  -1  10   7 25.8815 10.8879   1 
   0  10   7 25.3177 5.30534   1 
   0  10   7 5.32867 4.71633   2 
   1  10   7 2.75676 4.87761   2 
   1  10   7 -10.374 4.79993   1 
   2  10   7 227.030 9.98936   1 
   2  10   7 96.8247 7.00925   2 
   3  10   7 7.17704 8.14412   2 
   3  10   7 57.7797 7.27834   1 
   4  10   7 52.0331 7.31947   1 
   4  10   7 9.44684 9.24100   2 
   5  10   7 46.7156 11.1259   2 
   5  10   7 106.646 9.01687   1 
   6  10   7 -4.4416 6.31331   1 
   6  10   7 0.06798 8.91114   2 
   7  10   7 20.8731 10.5138   2 
   7  10   7 44.2297 8.60904   1 
   8  10   7 1.72541 7.40894   1 
   8  10   7 -4.1295 8.84051   2 
   9  10   7 29.8585 8.71205   1 
   9  10   7 2.02286 9.49683   2 
  10  10   7 5.10109 8.59804   1 
  10  10   7 -3.1282 8.81343   2 
  11  10   7 -12.102 8.18755   1 
  11  10   7 -10.104 8.55651   2 
  12  10   7 7.47746 9.79930   1 
  12  10   7 4.14218 11.4392   2 
  -8  11   7 6.84359 8.64870   2 
  -7  11   7 10.7412 9.07188   2 
  -6  11   7 0.30295 7.26485   2 
  -5  11   7 15.9046 7.77308   2 
  -4  11   7 11.9731 7.35485   2 
  -4  11   7 39.8144 10.2033   1 
  -3  11   7 12.2544 8.74887   1 
  -3  11   7 17.5795 6.56232   2 
  -2  11   7 8.09875 8.18344   1 
  -2  11   7 2.65965 5.83530   2 
  -1  11   7 21.5121 9.28211   1 
   0  11   7 -2.7058 4.83437   2 
   0  11   7 9.40417 8.42665   1 
   1  11   7 139.127 8.41025   2 
   1  11   7 292.854 10.5881   1 
   2  11   7 42.2353 6.87349   1 
   2  11   7 16.5284 9.95136   2 
   3  11   7 80.0338 13.5202   2 
   3  11   7 231.479 10.9663   1 
   4  11   7 13.8780 6.42107   1 
   4  11   7 19.0074 10.6262   2 
   5  11   7 10.8521 6.81554   1 
   5  11   7 20.0793 10.7003   2 
   6  11   7 -12.101 8.56962   2 
   6  11   7 8.86786 6.99136   1 
   7  11   7 -5.8372 6.48506   1 
   7  11   7 -1.9947 8.53064   2 
   8  11   7 9.32068 7.98710   1 
   9  11   7 22.7607 8.62955   1 
   9  11   7 14.4936 10.0069   2 
  10  11   7 7.93465 10.4569   2 
  10  11   7 -12.934 7.87802   1 
  11  11   7 10.4005 9.14394   1 
  11  11   7 -0.4165 9.78710   2 
  12  11   7 6.62691 9.72683   1 
  12  11   7 -5.0416 9.92007   2 
  -7  12   7 -3.2822 8.13048   2 
  -6  12   7 7.44197 8.15108   2 
  -5  12   7 13.4003 7.99201   2 
  -4  12   7 3.51015 6.92867   2 
  -3  12   7 29.5084 7.68740   2 
  -2  12   7 -1.8749 7.75361   1 
  -2  12   7 -4.9246 8.42394   2 
  -1  12   7 23.6901 9.35789   1 
  -1  12   7 6.20038 5.52915   2 
   0  12   7 17.5897 9.25754   1 
   0  12   7 5.15617 5.32164   2 
   1  12   7 -4.4581 7.87485   1 
   1  12   7 3.73853 9.26492   2 
   2  12   7 73.1764 7.90215   1 
   2  12   7 25.3840 10.8944   2 
   3  12   7 4.79242 6.60436   1 
   3  12   7 -2.7188 9.79379   2 
   4  12   7 -3.7543 6.41317   1 
   4  12   7 -17.296 7.99679   2 
   5  12   7 -2.4671 9.38553   2 
   1 -10   3 13.8752 11.6549  -2 
   5  12   7 13.8752 11.6549   1 
   6  12   7 -0.5730 7.32327   1 
   6  12   7 -1.2471 8.70993   2 
   7  12   7 0.10669 8.11908   1 
   7  12   7 -16.493 9.07063   2 
   8  12   7 5.81645 7.72533   1 
   8  12   7 -6.1892 8.62863   2 
   5  -9   5 23.2286 12.1741  -2 
   9  12   7 23.2286 12.1741   1 
   9  12   7 23.5359 10.3002   2 
   6  -9   5 35.4838 24.0252  -2 
  10  12   7 35.4838 24.0252   1 
  10  12   7 10.4188 10.0271   2 
  10  12   7 58.8334 14.8504   1 
  11  12   7 8.14848 10.8785   2 
  11  12   7 1.32354 8.95311   1 
  12  12   7 5.71396 13.5776   1 
  -6  13   7 5.81485 8.38453   2 
  -5  13   7 7.98998 7.88101   2 
  -4  13   7 29.6745 8.32683   2 
  -3  13   7 -5.9734 6.02815   2 
  -2  13   7 21.5003 7.19282   2 
  -1  13   7 0.79349 5.52576   2 
   0  13   7 1.94393 8.45338   1 
   0  13   7 0.07525 10.3066   2 
   1  13   7 13.4734 10.5329   2 
   1  13   7 1.00294 8.31386   1 
   2  13   7 -4.4647 9.26416   2 
   2  13   7 4.85201 8.36001   1 
   3  13   7 1.53532 9.58116   1 
   3  13   7 16.3321 10.8934   2 
   4  13   7 33.3798 7.80520   1 
   4  13   7 -5.7010 10.4800   2 
   5  13   7 8.68730 7.66358   1 
   5  13   7 -3.9307 9.64139   2 
   6  13   7 43.0105 9.05820   1 
   7  13   7 -5.8334 10.0430   2 
   7  13   7 2.97681 7.68920   1 
   8  13   7 12.8410 10.3788   2 
   8  13   7 19.0982 8.41730   1 
   9  13   7 30.7689 9.74559   1 
   9  13   7 24.6388 11.1384   2 
  10  13   7 13.5566 9.29180   1 
  10  13   7 10.6818 11.0834   2 
  11  13   7 -2.2886 8.94093   1 
  -5  14   7 4.13843 8.35865   2 
  -4  14   7 -0.2202 7.41627   2 
  -3  14   7 5.52902 8.76826   2 
  -2  14   7 1.42629 6.40100   2 
  -1  14   7 2.78602 10.8957   2 
   0  14   7 7.86792 11.1253   2 
   1  14   7 4.92089 10.3241   2 
   2  14   7 7.15398 10.9478   2 
   2  14   7 15.7453 9.94799   1 
   3  14   7 -8.4328 10.2631   2 
   3  14   7 -14.329 6.57476   1 
   4  14   7 0.71648 7.37802   1 
   4  14   7 -4.1145 10.6889   2 
   5  14   7 47.3763 9.10856   1 
   5  14   7 -0.1313 10.2309   2 
   6  14   7 7.54150 10.5167   2 
   6  14   7 -2.8293 7.65551   1 
   7  14   7 46.6190 9.66558   1 
   7  14   7 8.68661 11.3610   2 
   8  14   7 8.98038 8.46084   1 
   8  14   7 5.66719 10.8867   2 
   9  14   7 1.65576 8.52113   1 
   9  14   7 -14.639 10.3480   2 
  10  14   7 -15.500 8.03300   1 
  10  14   7 6.41417 10.6531   2 
  -4  15   7 -13.872 7.51984   2 
  -3  15   7 13.6447 13.6678   2 
  -2  15   7 -1.6758 11.7145   2 
  -1  15   7 4.34095 11.8464   2 
   0  15   7 -6.2212 11.5353   2 
   1  15   7 1.19677 11.3661   2 
   2  15   7 21.2155 12.5072   2 
   3  15   7 0.68062 11.3422   2 
   4  15   7 4.09864 11.6651   2 
   4  15   7 9.06917 11.8203   1 
   5  15   7 4.86400 8.28021   1 
   5  15   7 -6.3470 10.9456   2 
   6  15   7 -7.5776 7.83527   1 
   6  15   7 0.50184 10.5136   2 
   7  15   7 21.9309 9.21222   1 
   7  15   7 -1.1738 10.7125   2 
   8  15   7 -5.5481 8.81524   1 
   8  15   7 8.92153 12.0123   2 
   9  15   7 27.1433 10.1635   1 
   9  15   7 28.3209 12.9578   2 
  -2  16   7 -3.7098 12.2597   2 
  -1  16   7 -11.015 11.7073   2 
   0  16   7 9.15478 12.5452   2 
   1  16   7 -3.4539 10.4081   2 
   2  16   7 -8.0808 11.6611   2 
   3  16   7 7.89116 13.7520   2 
   4  16   7 17.3464 13.0893   2 
   5  16   7 -5.9064 11.5636   2 
   5  16   7 -5.3164 11.9002   1 
   6  16   7 -12.978 10.1117   2 
   6  16   7 -2.6335 13.1511   1 
   7  16   7 -7.5274 8.62102   1 
   7  16   7 5.36335 11.0837   2 
   1  17   7 -28.383 10.6041   2 
   2  17   7 -4.1015 12.8237   2 
   3  17   7 -5.8863 11.6308   2 
   4  17   7 16.5331 13.7795   2 
  -5 -10   8 11.2398 14.4120   1 
  -4 -10   8 5.03205 12.5737   1 
  -3 -10   8 -17.268 11.6826   2 
  -3 -10   8 -2.1772 13.2971   1 
  -3   1  15 -1.7391 21.5304  -2 
  -2 -10   8 -1.7391 21.5304   1 
  -1 -10   8 -0.9871 11.7514   1 
  -1 -10   8 3.19989 13.1595   2 
   0 -10   8 12.2889 13.9954   1 
   0 -10   8 8.12965 12.8695   2 
   1 -10   8 -12.820 12.8026   1 
   1 -10   8 6.92966 13.1198   2 
   2 -10   8 -15.408 7.87211   2 
   2 -10   8 -2.5233 12.8289   1 
   3 -10   8 -2.5593 8.52622   2 
   3 -10   8 22.9453 13.9827   1 
  -7  -9   8 5.48534 13.9034   1 
  -6  -9   8 -9.1229 11.5656   1 
  -5  -9   8 8.99386 12.5434   1 
  -4  -9   8 10.6382 12.7601   2 
  -4  -9   8 6.58905 12.2028   1 
  -3  -9   8 -1.6150 11.2416   1 
  -3  -9   8 1.92540 11.8112   2 
  -2  -9   8 -4.5351 12.6783   1 
  -2  -9   8 6.67888 12.7307   2 
  -1  -9   8 29.1093 13.4607   1 
  -1  -9   8 16.3575 12.3695   2 
   0  -9   8 10.1844 11.5417   1 
   0  -9   8 14.0773 12.8934   2 
   1  -9   8 44.5895 14.3624   2 
   1  -9   8 49.9854 15.2447   1 
   2  -9   8 -5.4283 11.2387   1 
   2  -9   8 1.98779 7.42898   2 
   3  -9   8 4.99345 8.39303   2 
   3  -9   8 0.97051 12.9574   1 
   4  -9   8 25.6726 9.19287   2 
   4  -9   8 23.7358 14.1165   1 
   5  -9   8 -3.6980 8.11681   2 
   5  -9   8 -6.1378 14.0692   1 
  -8  -8   8 18.1103 9.92267   1 
   3   3  16 -2.2270 20.0105  -2 
  -7  -8   8 -2.2270 20.0105   1 
  -7  -8   8 -15.530 10.8652   1 
  -6  -8   8 4.35670 8.56439   1 
  -6  -8   8 0.64915 12.4232   2 
  -5  -8   8 -1.5977 12.7565   2 
  -5  -8   8 -4.4711 11.1817   1 
  -4  -8   8 -4.9411 11.8392   2 
  -4  -8   8 9.56181 11.5830   1 
  -3  -8   8 -11.808 10.0002   1 
  -3  -8   8 4.83115 11.1056   2 
  -2  -8   8 3.02946 11.5266   1 
  -2  -8   8 -7.9722 11.1496   2 
  -1  -8   8 -2.6394 11.2196   2 
   0  -8   8 9.06929 11.1670   2 
   0  -8   8 18.0055 11.5998   1 
   1  -8   8 1.62237 10.4874   1 
   1  -8   8 -1.4202 6.31435   2 
   2  -8   8 2.39045 6.97938   2 
   2  -8   8 30.8439 12.6274   1 
   3  -8   8 1.03997 7.86164   2 
   3  -8   8 -6.4399 10.8826   1 
   4  -8   8 -6.1413 7.73391   2 
  -8   1  11 36.0429 20.3715  -2 
   4  -8   8 36.0429 20.3715   1 
   5  -8   8 -2.2728 7.95263   2 
   5  -8   8 -6.8603 12.1104   1 
   6  -8   8 4.76333 8.65072   2 
   6  -8   8 5.80965 13.3758   1 
  -9  -7   8 -12.865 8.17288   1 
  -8  -7   8 -5.1173 8.62404   1 
  -7  -7   8 -1.8982 8.25056   1 
  -7  -7   8 12.6296 11.8059   2 
  -6  -7   8 -6.9619 11.8744   2 
  -6  -7   8 20.7724 9.31676   1 
  -5  -7   8 5.46506 7.87606   1 
  -5  -7   8 -10.069 11.1837   2 
  -4  -7   8 35.2169 8.49938   1 
  -4  -7   8 30.4943 12.7893   2 
  -3  -7   8 -2.9243 10.8196   2 
  -3  -7   8 5.61144 11.0675   1 
  -2  -7   8 55.3425 13.7747   2 
  -2  -7   8 88.7901 15.1174   1 
  -1  -7   8 37.4104 12.3901   1 
  -1  -7   8 28.3064 11.4189   2 
   0  -7   8 5.33374 6.08833   2 
   0  -7   8 -7.6972 9.50256   1 
   1  -7   8 8.21895 6.72706   2 
   1  -7   8 38.5078 11.3662   1 
   2  -7   8 2.74304 7.13817   2 
   2  -7   8 3.61221 11.1921   1 
   3  -7   8 15.3093 12.6223   1 
   3  -7   8 4.75223 7.32034   2 
   4  -7   8 20.8947 13.2323   1 
   4  -7   8 1.54714 7.28634   2 
   5  -7   8 -3.9018 7.23295   2 
   5  -7   8 13.2858 14.0016   1 
   6  -7   8 0.72446 8.10690   2 
   6  -7   8 3.08802 12.9473   1 
   7  -7   8 -2.0861 7.91134   2 
   7  -7   8 -29.386 11.1544   1 
   8  -7   8 2.99349 8.93107   2 
   8  -7   8 -2.6242 14.0777   1 
  -9  -6   8 13.4950 9.00705   1 
  -8  -6   8 13.2792 11.6955   2 
  -8  -6   8 39.3605 9.64034   1 
  -7  -6   8 -0.4348 11.1562   2 
  -7  -6   8 5.06304 8.28259   1 
  -6  -6   8 11.9802 7.78123   1 
  -6  -6   8 4.40096 9.49548   2 
  -5  -6   8 61.1006 9.67315   1 
  -5  -6   8 10.3188 11.3994   2 
  -4  -6   8 2.04524 7.26616   1 
  -4  -6   8 -10.970 10.3238   2 
  -3  -6   8 130.690 10.3245   1 
  -3  -6   8 49.8027 13.3766   2 
  -2  -6   8 3.73593 6.25985   1 
  -2  -6   8 -17.601 9.26307   2 
  -1  -6   8 -1.5476 9.24652   1 
  -1  -6   8 -15.787 9.06015   2 
   0  -6   8 29.9697 6.85477   2 
   0  -6   8 53.6492 12.5091   1 
   1  -6   8 -0.7924 7.15229   2 
   1  -6   8 -0.5796 9.15814   1 
   2  -6   8 7.21525 6.50042   2 
   2  -6   8 -1.0836 9.65278   1 
   3  -6   8 18.1242 11.3997   1 
   3  -6   8 0.50887 6.47543   2 
   4  -6   8 0.94971 6.91466   2 
   4  -6   8 -2.8509 10.8389   1 
   5  -6   8 40.8013 13.8558   1 
   6  -6   8 -18.135 12.4789   1 
   6  -6   8 1.90931 10.4742   2 
   7  -6   8 -0.1359 8.53107   2 
   7  -6   8 6.49157 13.4641   1 
   8  -6   8 6.78632 8.71524   2 
 -11   1   8 3.55298 19.6247  -2 
   8  -6   8 3.55298 19.6247   1 
   9  -6   8 -1.8521 8.91786   2 
   9  -6   8 3.23586 15.7056   1 
 -10  -5   8 9.51193 8.47736   1 
  -9  -5   8 3.33923 11.0339   2 
  -9  -5   8 13.0988 8.53407   1 
  -8  -5   8 2.52659 7.99784   1 
  -8  -5   8 2.79820 11.2630   2 
  -7  -5   8 36.7608 9.10273   1 
  -7  -5   8 20.5723 11.3444   2 
  -6  -5   8 1.63995 7.06188   1 
  -6  -5   8 1.26654 10.7665   2 
  -5  -5   8 26.2207 7.82544   1 
  -5  -5   8 -0.3650 9.59943   2 
  -4  -5   8 1.56874 9.28583   2 
  -4  -5   8 4.51995 9.77289   1 
   1   4  13 21.9030 16.5089  -2 
  -4  -5   8 21.9030 16.5089   1 
  -3  -5   8 -6.3657 9.85568   2 
  -3  -5   8 4.39358 6.86417   1 
  -2  -5   8 26.1535 6.90681   1 
  -1  -5   8 18.2374 5.86486   1 
  -1  -5   8 6.62440 5.32703   2 
  -3   3  11 27.0358 16.3915  -2 
   0  -5   8 27.0358 16.3915   1 
   0  -5   8 -4.4264 5.38575   2 
   1  -5   8 59.8728 12.5890   1 
   1  -5   8 35.5469 7.07383   2 
   2  -5   8 -6.2589 5.93313   2 
   2  -5   8 -4.2027 9.10924   1 
   3  -5   8 16.8281 11.2850   1 
   3  -5   8 16.1346 6.75873   2 
   4  -5   8 52.2925 8.12182   2 
   4  -5   8 92.3079 14.7626   1 
   5  -5   8 6.84674 7.23666   2 
   5  -5   8 30.2543 12.6445   1 
   6  -5   8 64.9802 15.4686   1 
   6  -5   8 27.2177 8.85961   2 
   7  -5   8 10.1072 12.7866   1 
   7  -5   8 -1.8425 7.36945   2 
   8  -5   8 20.6961 9.15132   2 
   8  -5   8 36.0659 14.8011   1 
   9  -5   8 -2.5453 7.92047   2 
   9  -5   8 -6.2145 13.5430   1 
 -10  -4   8 -3.4814 11.0679   2 
 -10  -4   8 7.23900 8.52223   1 
  -9  -4   8 33.5318 8.81818   1 
  -9  -4   8 28.4378 11.7663   2 
  -8  -4   8 4.01743 7.11907   1 
  -8  -4   8 5.94529 9.79973   2 
  -7  -4   8 -8.9760 8.58120   2 
  -7  -4   8 5.63175 7.57469   1 
  -6  -4   8 38.9454 8.26748   1 
  -6  -4   8 8.48229 9.78855   2 
  -5  -4   8 7.79938 9.74067   2 
  -5  -4   8 23.3481 7.25641   1 
  -4  -4   8 -6.4675 5.84819   1 
  -4  -4   8 -9.6326 9.12612   2 
  -3  -4   8 -1.9427 5.85542   1 
  -3  -4   8 -2.9170 8.28014   2 
  -2  -4   8 14.6780 6.40529   1 
  -1  -4   8 11.0557 6.26174   1 
  -1  -4   8 11.1363 5.03488   2 
   0  -4   8 100.111 8.28613   1 
   0  -4   8 50.9242 5.51379   2 
   1  -4   8 8.41399 4.72299   2 
   1  -4   8 28.3816 6.45142   1 
   2  -4   8 104.940 7.08392   2 
   2  -4   8 210.904 10.1302   1 
   3  -4   8 38.6187 10.9507   1 
   3  -4   8 3.84602 4.84558   2 
   4  -4   8 10.0512 5.22984   2 
   4  -4   8 44.3554 11.8908   1 
   5  -4   8 7.51531 5.61564   2 
   5  -4   8 16.7188 10.8867   1 
   6  -4   8 -4.8561 10.1163   1 
   6  -4   8 -3.5439 5.57790   2 
   7  -4   8 3.86286 6.18458   2 
   7  -4   8 -0.6356 11.3138   1 
   8  -4   8 8.43786 6.72840   2 
   8  -4   8 9.78393 12.6771   1 
   9  -4   8 -0.1206 6.63742   2 
   9  -4   8 -23.803 10.7165   1 
  10  -4   8 3.33581 14.4409   1 
  10  -4   8 2.34788 8.63304   2 
 -11  -3   8 -20.467 11.4446   2 
 -11  -3   8 16.0475 16.2173   1 
 -10  -3   8 22.2047 15.3973   1 
 -10  -3   8 7.88893 12.1611   2 
  -9  -3   8 1.42940 7.03036   1 
  -9  -3   8 22.2320 11.0494   2 
  -8  -3   8 7.69669 7.18427   1 
  -8  -3   8 -6.2290 9.96406   2 
  -7  -3   8 0.24472 6.76678   1 
  -7  -3   8 5.85150 10.0811   2 
  -6  -3   8 6.30841 6.77204   1 
  -6  -3   8 -8.6340 8.75824   2 
  -5  -3   8 -0.4372 9.05460   2 
   3   5  12 5.85548 10.1673  -2 
  -5  -3   8 5.85548 10.1673   1 
  -4  -3   8 117.888 9.29010   1 
  -4  -3   8 57.9850 11.4283   2 
  -3  -3   8 33.4568 6.87118   1 
  -3  -3   8 7.89885 8.84495   2 
  -2  -3   8 68.3286 4.54687   2 
  -2  -3   8 132.368 10.6368   1 
  -1  -3   8 90.9926 8.30815   1 
  -1  -3   8 57.6117 6.59961   2 
   0  -3   8 74.7586 7.65151   1 
   0  -3   8 60.9905 11.6508   2 
   1  -3   8 88.2835 8.15678   2 
   1  -3   8 192.702 10.0625   1 
   2  -3   8 2.52292 5.60627   1 
   2  -3   8 0.01174 5.68254   2 
   3  -3   8 167.256 9.28307   1 
   3  -3   8 60.0927 7.89171   2 
   4  -3   8 22.6563 6.11125   1 
   4  -3   8 9.65119 6.23469   2 
   5  -3   8 10.7289 6.79998   2 
   5  -3   8 31.7232 10.4683   1 
   6  -3   8 29.5534 11.4877   1 
   7  -3   8 24.4335 11.5687   1 
   7  -3   8 3.30088 5.84901   2 
   8  -3   8 -2.5232 5.88823   2 
   8  -3   8 -6.6734 11.1333   1 
   9  -3   8 26.4535 7.27081   2 
   9  -3   8 58.8086 15.0567   1 
  10  -3   8 2.03312 6.52126   2 
  10  -3   8 24.5276 13.4745   1 
  11  -3   8 13.7223 7.63545   2 
  11  -3   8 38.8656 16.0759   1 
 -11  -2   8 -4.9711 14.0951   1 
 -11  -2   8 -12.446 11.8447   2 
 -10  -2   8 5.59330 10.6569   2 
 -10  -2   8 3.66312 13.5655   1 
  -9  -2   8 2.03641 6.79628   1 
  -8  -2   8 6.03459 6.75985   1 
  -8  -2   8 9.72964 9.88797   2 
  -7  -2   8 8.17442 11.0106   1 
  -7  -2   8 -12.403 8.58125   2 
  -6  -2   8 4.05488 8.24950   1 
   4   6  12 29.7723 18.9700  -2 
  -6  -2   8 29.7723 18.9700   1 
  -6  -2   8 13.6641 9.11483   2 
  -5  -2   8 66.9005 11.1852   2 
  -5  -2   8 146.630 9.76616   1 
  -4  -2   8 10.1496 9.20283   2 
  -4  -2   8 29.3355 6.49315   1 
  -3  -2   8 510.872 14.4564   1 
  -3  -2   8 248.241 15.4986   2 
  -2  -2   8 2.17677 4.19019   2 
   0   5  10 15.6271 14.6000  -2 
  -2  -2   8 15.6271 14.6000   1 
  -2  -2   8 -1.5798 6.72836   1 
  -1  -2   8 333.376 11.4875   1 
  -1  -2   8 155.254 7.86030   2 
   0  -2   8 6.53288 5.17184   1 
   0  -2   8 -5.2133 4.82951   2 
   1  -2   8 -3.1620 4.95392   2 
   1  -2   8 19.2381 5.79254   1 
   2  -2   8 51.4706 6.62614   1 
   2  -2   8 14.6695 5.86686   2 
   3  -2   8 83.0942 7.61672   1 
   3  -2   8 41.7128 6.72582   2 
   4  -2   8 19.8862 6.28498   2 
   4  -2   8 27.9959 6.32848   1 
   5  -2   8 102.056 8.26916   1 
   6  -2   8 -6.0905 5.84298   2 
   6  -2   8 2.63028 6.02699   1 
   7  -2   8 44.0137 12.1013   1 
   7  -2   8 22.2806 7.17040   2 
   8  -2   8 3.73146 6.96113   2 
   8  -2   8 38.8076 16.0190   1 
   9  -2   8 14.6058 11.7683   1 
   9  -2   8 19.4995 10.5885   2 
  10  -2   8 27.2444 7.47023   2 
  10  -2   8 33.3181 13.8339   1 
  11  -2   8 0.66784 6.90682   2 
  11  -2   8 -12.863 12.8329   1 
 -11  -1   8 20.4341 14.9983   1 
 -11  -1   8 13.9679 14.4285   2 
 -10  -1   8 -6.8726 14.4969   1 
 -10  -1   8 -5.9235 12.1971   2 
  -9  -1   8 48.3974 14.8313   1 
  -9  -1   8 6.49382 11.1778   2 
  -8  -1   8 3.25270 12.0028   2 
  -8  -1   8 2.59492 5.98153   1 
  -7  -1   8 40.7374 11.0732   2 
  -7  -1   8 54.2363 8.17344   1 
  -6  -1   8 18.9209 6.40985   1 
  -6  -1   8 1.02466 8.49202   2 
  -5  -1   8 74.9320 7.79163   1 
  -5  -1   8 21.3981 9.14476   2 
  -4  -1   8 46.3372 9.68878   2 
  -4  -1   8 76.6083 8.10539   1 
  -3  -1   8 1.10909 3.97287   2 
  -3  -1   8 7.36414 5.48987   1 
  -2  -1   8 247.861 10.0937   1 
  -2  -1   8 141.234 9.03174   2 
  -1  -1   8 63.9342 6.94919   1 
  -1  -1   8 28.0490 5.67373   2 
   0  -1   8 0.92101 5.02461   2 
   0  -1   8 14.0823 5.59016   1 
   1  -1   8 15.7096 5.45792   1 
   1  -1   8 -2.1111 5.01621   2 
   2  -1   8 115.483 7.84051   1 
   2  -1   8 45.0511 6.61219   2 
   3  -1   8 15.0253 5.93025   2 
   3  -1   8 28.2713 5.91794   1 
   4  -1   8 131.312 8.44818   1 
   4  -1   8 67.4190 7.87096   2 
   5  -1   8 53.9261 7.07796   1 
   5  -1   8 26.3668 6.61574   2 
   6  -1   8 80.2056 8.75265   2 
   6  -1   8 187.152 10.1994   1 
   7  -1   8 11.7674 6.44126   2 
   7  -1   8 23.2524 6.84953   1 
   8  -1   8 75.4341 9.13704   1 
   8  -1   8 21.2379 7.26365   2 
   9  -1   8 6.92691 6.50237   2 
   9  -1   8 14.7083 13.0585   1 
  10  -1   8 8.51994 7.65387   2 
 -11   3   4 39.2246 20.0136  -2 
  10  -1   8 39.2246 20.0136   1 
  11  -1   8 -3.5921 7.58263   2 
  11  -1   8 4.65510 13.2160   1 
  12  -1   8 8.93217 9.48823   2 
  12  -1   8 13.1904 14.7309   1 
 -11   0   8 -1.3825 14.2906   2 
 -11   0   8 4.92161 13.4737   1 
 -10   0   8 36.4924 14.5410   1 
 -10   0   8 15.7843 13.2777   2 
  -9   0   8 31.9326 13.0901   1 
  -9   0   8 14.6237 11.7867   2 
  -8   0   8 24.7527 12.0188   2 
  -8   0   8 36.9479 13.4143   1 
  -7   0   8 30.6229 10.6088   2 
   6   7  11 62.3094 9.19500  -2 
  -7   0   8 62.3094 9.19500   1 
  -6   0   8 22.4254 6.51570   1 
  -6   0   8 11.1305 8.52229   2 
  -5   0   8 9.88243 6.24481   1 
  -5   0   8 -4.4428 7.62891   2 
  -4   0   8 10.2309 7.76387   2 
  -4   0   8 45.6193 6.57282   1 
  -3   0   8 1.65716 3.67495   2 
  -3   0   8 9.93138 7.92368   1 
  -2   0   8 7.06723 4.22287   2 
  -2   0   8 11.7628 4.92038   1 
  -1   0   8 7.27392 4.34931   2 
  -1   0   8 -2.4724 4.57947   1 
   0   0   8 120.887 7.70272   1 
   0   0   8 108.768 7.07235   2 
   1   0   8 83.3671 7.02323   1 
   1   0   8 33.6362 5.75330   2 
   2   0   8 163.451 8.72239   2 
   2   0   8 368.404 11.3335   1 
   3   0   8 23.2915 5.97557   2 
   3   0   8 70.1781 6.81313   1 
   4   0   8 65.6859 7.28446   2 
   4   0   8 146.401 8.60137   1 
   5   0   8 140.277 8.96249   1 
   5   0   8 58.0861 7.42661   2 
   6   0   8 0.69564 5.84881   1 
   6   0   8 6.52123 6.04101   2 
   7   0   8 32.8861 7.06319   2 
   7   0   8 76.5085 8.59911   1 
   8   0   8 -0.7119 6.27321   1 
   8   0   8 -5.5958 6.16702   2 
   9   0   8 7.41923 7.64152   1 
   9   0   8 0.30075 6.56262   2 
  10   0   8 -7.0512 7.45480   1 
  10   0   8 -5.4473 6.39961   2 
  11   0   8 25.8730 14.4280   1 
  11   0   8 6.65767 7.73592   2 
  12   0   8 -4.8352 7.56128   2 
  12   0   8 7.47751 13.7302   1 
 -11   1   8 -1.8024 12.6625   1 
 -10   1   8 19.5018 14.5608   1 
 -10   1   8 15.6007 13.4876   2 
  -9   1   8 14.9092 11.9800   1 
  -9   1   8 -3.2249 10.7689   2 
  -8   1   8 15.7834 10.5735   2 
  -8   1   8 -0.6715 10.2264   1 
  -7   1   8 26.3677 10.1019   1 
  -7   1   8 21.4403 10.2861   2 
  -6   1   8 2.88191 5.03012   1 
  -6   1   8 7.40231 9.01501   2 
  -5   1   8 13.2214 8.11394   2 
  -5   1   8 15.4203 5.36428   1 
  -4   1   8 96.5634 5.85767   2 
  -4   1   8 213.415 9.16769   1 
  -3   1   8 113.117 7.46026   1 
  -3   1   8 65.8619 5.25433   2 
  -2   1   8 101.694 7.00866   1 
  -2   1   8 49.6010 5.25325   2 
  -1   1   8 108.143 7.31085   1 
  -1   1   8 46.5438 5.32774   2 
   0   1   8 210.915 8.96717   1 
   0   1   8 83.6420 6.47850   2 
   1   1   8 409.857 11.2761   1 
   1   1   8 169.428 8.05666   2 
   2   1   8 70.0441 6.70440   1 
   2   1   8 36.4752 5.84075   2 
   3   1   8 212.693 9.17013   1 
   3   1   8 94.7524 7.04362   2 
   4   1   8 14.6410 5.43951   2 
   4   1   8 56.4384 6.65975   1 
   5   1   8 0.81778 5.03218   2 
   5   1   8 9.23430 5.35947   1 
   6   1   8 97.6303 8.80480   1 
   7   1   8 53.6091 7.57865   2 
   7   1   8 116.815 9.48889   1 
   8   1   8 0.98322 6.01401   2 
   8   1   8 11.9891 7.04823   1 
   9   1   8 2.71991 6.63512   2 
   9   1   8 30.1984 8.43008   1 
  10   1   8 24.4317 8.88287   1 
  10   1   8 6.74659 7.07864   2 
  11   1   8 3.23888 7.08752   2 
  11   1   8 29.9520 9.64452   1 
  12   1   8 22.3330 7.98361   2 
  12   1   8 30.9708 14.4112   1 
 -11   2   8 13.9425 14.9883   2 
 -11   2   8 10.3742 13.3006   1 
 -10   2   8 -0.8125 12.3402   1 
 -10   2   8 10.2353 13.8996   2 
  -9   2   8 0.77663 11.4336   1 
  -9   2   8 6.51039 12.2076   2 
  -8   2   8 -0.1353 10.1927   1 
  -8   2   8 -11.266 10.3187   2 
  -7   2   8 -16.588 8.27921   1 
  -7   2   8 -8.3146 9.23506   2 
  -6   2   8 21.8616 4.98914   1 
  -6   2   8 12.0417 9.53129   2 
  -5   2   8 5.24115 4.73271   2 
  -5   2   8 16.3721 4.95558   1 
  -4   2   8 28.5559 4.90632   2 
  -4   2   8 53.0336 5.87938   1 
  -3   2   8 357.470 10.4138   1 
  -2   2   8 52.5460 5.46814   2 
  -2   2   8 138.414 7.15205   1 
  -1   2   8 789.026 14.5400   1 
  -1   2   8 335.909 9.82785   2 
   0   2   8 57.5241 5.91538   2 
   0   2   8 147.817 7.52096   1 
   1   2   8 73.3968 6.42500   2 
   1   2   8 163.000 8.02923   1 
   2   2   8 88.3091 6.79593   1 
   2   2   8 35.0564 5.49413   2 
   3   2   8 3.52260 4.80790   2 
   3   2   8 9.82218 4.83708   1 
   4   2   8 31.5124 5.89254   2 
   4   2   8 58.6098 6.86127   1 
   5   2   8 132.893 8.84686   1 
   5   2   8 48.9002 6.24442   2 
   6   2   8 11.9819 4.91405   1 
   6   2   8 13.3643 5.50323   2 
   7   2   8 6.06403 5.55751   2 
   7   2   8 19.3686 5.38153   1 
   8   2   8 0.93089 5.44034   2 
  -8   5   3 46.7746 10.0096  -2 
   8   2   8 46.7746 10.0096   1 
   9   2   8 165.454 9.87759   1 
   9   2   8 69.3239 8.70576   2 
  10   2   8 34.2514 7.54929   1 
  10   2   8 21.1851 7.52290   2 
  11   2   8 7.28989 6.76795   1 
  11   2   8 -5.7282 6.14497   2 
  12   2   8 14.0593 7.65355   2 
  12   2   8 77.4644 16.5200   1 
 -12   4   1 71.7265 24.1016  -2 
  12   2   8 71.7265 24.1016   1 
  13   2   8 -8.9192 7.32513   1 
  13   2   8 -4.7320 10.3252   2 
 -11   3   8 -15.296 15.3405   2 
  11   9  11 30.1699 21.5300  -2 
 -11   3   8 30.1699 21.5300   1 
 -10   3   8 2.79354 14.2255   2 
 -10   3   8 1.95641 11.7610   1 
   9   9  10 57.3312 18.9101  -2 
  -9   3   8 57.3312 18.9101   1 
  -9   3   8 14.5392 13.6762   2 
  -8   3   8 -0.6642 11.1452   2 
  -8   3   8 11.2967 10.5093   1 
  -7   3   8 38.7873 11.1231   1 
  -7   3   8 16.1498 11.0620   2 
  -6   3   8 49.7417 10.8414   1 
  -6   3   8 46.7838 11.3910   2 
  -5   3   8 78.5537 7.11694   2 
  -5   3   8 151.559 6.94832   1 
  -4   3   8 149.286 6.89056   1 
  -4   3   8 87.0392 8.89821   2 
  -3   3   8 13.8832 4.14390   1 
  -3   3   8 8.29036 4.96869   2 
  -2   3   8 205.147 7.87096   1 
  -2   3   8 97.4780 6.55904   2 
  -1   3   8 7.43879 4.59709   2 
  -1   3   8 -0.4056 4.07124   1 
   0   3   8 335.634 9.79736   1 
   0   3   8 161.805 7.89610   2 
   1   3   8 191.143 8.03421   1 
   1   3   8 107.032 7.11581   2 
   2   3   8 2.73710 4.49628   2 
   2   3   8 14.2742 4.96041   1 
   3   3   8 74.4342 6.55238   1 
   3   3   8 47.1373 5.78198   2 
   4   3   8 331.706 8.93892   1 
   4   3   8 158.088 8.32523   2 
   5   3   8 27.5064 5.72472   2 
   5   3   8 54.9109 5.62740   1 
   6   3   8 181.944 8.24622   1 
   6   3   8 72.9464 7.09832   2 
   7   3   8 23.4370 6.09580   2 
   7   3   8 72.2556 6.95999   1 
   8   3   8 97.9662 7.98720   1 
   8   3   8 27.6069 6.51632   2 
   9   3   8 -3.8272 6.76788   1 
   9   3   8 0.63629 5.86571   2 
  10   3   8 7.62575 6.58853   1 
  10   3   8 0.35493 6.24863   2 
  11   3   8 59.4405 8.66549   1 
  11   3   8 12.8269 7.38694   2 
  12   3   8 9.71586 7.48376   1 
  12   3   8 -3.3918 10.8076   2 
  13   3   8 -3.2017 8.00883   1 
  13   3   8 -8.2185 10.5307   2 
 -11   4   8 14.7094 14.7366   2 
 -10   4   8 36.6184 13.6101   1 
  -9   4   8 22.4908 12.2976   1 
  -9   4   8 16.3735 12.5286   2 
  -8   4   8 -5.7495 9.84471   2 
  -8   4   8 23.0349 11.4242   1 
  -7   4   8 77.2934 13.3394   1 
  -7   4   8 60.6735 12.6210   2 
  -6   4   8 25.4720 10.7748   1 
  -6   4   8 3.24621 5.98153   2 
  -5   4   8 6.49615 5.46142   2 
  -5   4   8 39.9967 9.71591   1 
  -4   4   8 298.745 7.69693   1 
  -4   4   8 131.842 8.02218   2 
  -3   4   8 20.0219 5.39535   2 
  -3   4   8 36.3727 4.28242   1 
  -2   4   8 3.12761 3.57895   1 
  -2   4   8 32.9722 6.03668   2 
  -1   4   8 -2.2802 4.46182   2 
  -1   4   8 3.18692 3.66949   1 
   0   4   8 47.2970 5.87069   2 
   0   4   8 84.6383 5.83692   1 
   1   4   8 0.86636 4.04776   1 
   1   4   8 -9.5794 4.02746   2 
   2   4   8 316.246 10.1340   2 
   2   4   8 614.629 12.9197   1 
   3   4   8 95.6621 5.65586   1 
   3   4   8 35.1847 5.48803   2 
   4   4   8 208.636 7.60564   1 
   5   4   8 146.662 9.20198   1 
   5   4   8 82.4385 11.2487   2 
   6   4   8 51.1083 7.42073   1 
   6   4   8 31.5172 5.53018   2 
   7   4   8 228.256 12.0087   1 
   7   4   8 87.5796 7.40166   2 
   8   4   8 2.91988 5.52362   2 
   8   4   8 13.2469 7.04818   1 
   9   4   8 5.71174 7.39062   1 
   9   4   8 -0.2135 5.79010   2 
  10   4   8 12.3824 8.06961   1 
  10   4   8 -8.7908 5.75547   2 
  11   4   8 -13.137 7.60644   1 
  11   4   8 -6.1568 10.2846   2 
  12   4   8 -4.2345 8.83836   1 
  12   4   8 2.01479 11.8839   2 
  13   4   8 27.0391 10.5295   1 
  13   4   8 8.07888 13.0833   2 
 -11   5   8 25.6887 15.5581   2 
 -11   5   8 3.21376 12.0478   1 
 -10   5   8 41.7857 13.9129   1 
 -10   5   8 31.6029 14.1210   2 
  -9   5   8 4.72717 10.1052   1 
  -9   5   8 4.92927 12.2255   2 
  -8   5   8 0.50479 9.16720   1 
  -8   5   8 6.20955 10.4019   2 
  -7   5   8 24.4004 7.02169   2 
  -7   5   8 70.3056 13.0557   1 
  -6   5   8 12.8699 5.91050   2 
  -6   5   8 8.58076 9.47751   1 
   6   9   7 122.931 16.7570  -2 
  -5   5   8 122.931 16.7570   1 
  -5   5   8 14.6542 5.65183   2 
  -4   5   8 83.6020 7.53523   2 
  -4   5   8 187.013 15.1774   1 
  -3   5   8 7.66333 5.22804   2 
  -3   5   8 36.4746 3.19982   1 
  -2   5   8 10.4576 3.38901   1 
  -2   5   8 7.31445 5.22154   2 
  -1   5   8 30.6227 5.70771   2 
  -1   5   8 64.9101 4.97648   1 
   0   5   8 9.72511 4.84830   2 
   0   5   8 25.9413 4.46524   1 
   1   5   8 350.116 9.72601   1 
   1   5   8 173.129 8.32417   2 
   2   5   8 13.4548 4.92204   2 
   2   5   8 29.4169 4.02865   1 
   3   5   8 411.562 10.9504   2 
   3   5   8 881.092 16.2008   1 
   4   5   8 6.39951 4.61639   2 
   4   5   8 -1.1006 5.34239   1 
   5   5   8 62.3515 7.38398   1 
   5   5   8 17.0504 5.13521   2 
  -5   7   2 48.6541 12.4073  -2 
   6   5   8 48.6541 12.4073   1 
   6   5   8 22.3227 5.23715   2 
   6   5   8 33.3937 10.2984   1 
   7   5   8 2.76558 4.92320   2 
   7   5   8 -7.8978 5.83907   1 
   8   5   8 -7.9656 4.95731   2 
   8   5   8 1.21264 6.49803   1 
   9   5   8 16.2394 5.99591   2 
   9   5   8 38.4782 8.82407   1 
  10   5   8 -4.5958 9.73220   2 
  10   5   8 13.2706 11.9319   1 
  -9   6   0 -12.432 16.8396  -2 
  10   5   8 -12.432 16.8396   1 
  11   5   8 68.3112 10.8514   1 
  11   5   8 -4.9872 9.92608   2 
  12   5   8 -5.0680 9.84796   2 
  12   5   8 10.2520 9.30946   1 
  13   5   8 22.6332 10.8025   1 
  13   5   8 -0.2476 11.0787   2 
 -10   6   8 -30.378 9.69543   1 
 -10   6   8 -31.863 11.7301   2 
  -9   6   8 42.5525 14.8231   2 
  -9   6   8 67.6990 13.8523   1 
  -8   6   8 8.31135 12.1342   2 
  -8   6   8 12.7406 10.5220   1 
  -7   6   8 -6.5256 8.81642   1 
  -7   6   8 5.40984 6.91569   2 
  -6   6   8 -3.9419 6.03420   2 
  -6   6   8 -11.915 8.02561   1 
  -5   6   8 8.45622 8.57840   1 
  -4   6   8 7.16176 8.20112   1 
  -4   6   8 -5.3795 4.89026   2 
  -3   6   8 572.210 22.2425   1 
  -2   6   8 2.79333 2.61100   1 
  -2   6   8 9.15093 5.02060   2 
  -1   6   8 71.6918 6.91258   2 
  -1   6   8 143.169 12.7596   1 
   0   6   8 61.4078 5.12586   1 
   0   6   8 25.6413 5.48056   2 
   1   6   8 275.643 6.92985   1 
   1   6   8 126.328 7.48795   2 
   2   6   8 121.251 7.09920   1 
   2   6   8 52.8255 5.89938   2 
   3   6   8 26.5719 4.88878   2 
   3   6   8 44.4370 5.89308   1 
   4   6   8 133.473 8.62039   1 
   4   6   8 61.4725 6.17310   2 
   5   6   8 39.2779 6.76416   1 
   5   6   8 6.72296 4.66729   2 
   6   6   8 -3.0222 4.47221   2 
   6   6   8 8.21328 5.99749   1 
   7   6   8 2.64481 4.63428   2 
   7   6   8 13.6399 6.94145   1 
   8   6   8 29.4886 8.12489   1 
   8   6   8 9.19248 5.21909   2 
   9   6   8 -0.2628 7.19845   1 
   9   6   8 9.71509 9.51659   2 
  10   6   8 -3.2198 8.90082   2 
  10   6   8 75.1687 11.4193   1 
  11   6   8 -0.1906 9.48849   2 
  11   6   8 -4.3716 8.04344   1 
  12   6   8 23.7249 12.7405   2 
  12   6   8 32.8846 10.0470   1 
  13   6   8 7.08839 10.0871   1 
  13   6   8 15.0722 12.2592   2 
 -10   7   8 9.47489 13.6937   2 
 -10   7   8 48.3122 14.3487   1 
  -9   7   8 25.3938 13.4151   2 
  -9   7   8 7.39004 11.0969   1 
  -8   7   8 -3.5169 8.03647   2 
  -8   7   8 -1.6275 9.24614   1 
  -7   7   8 20.4829 7.86759   2 
  -7   7   8 24.1116 10.1906   1 
  -6   7   8 11.8944 6.60857   2 
  -6   7   8 0.35428 8.85544   1 
  -5   7   8 59.4761 7.93660   2 
  -5   7   8 123.677 13.7911   1 
  -4   7   8 43.7441 7.05659   2 
  -4   7   8 103.817 12.5226   1 
  -3   7   8 3.94684 8.68066   1 
  -3   7   8 3.96575 5.92461   2 
  -2   7   8 163.742 8.87074   2 
  -2   7   8 355.905 17.8498   1 
  -1   7   8 13.0113 3.11569   1 
  -1   7   8 0.36460 4.91951   2 
   0   7   8 113.000 7.75821   2 
   0   7   8 245.849 6.24354   1 
   1   7   8 5.73493 4.71057   2 
   1   7   8 12.4258 4.41637   1 
   2   7   8 70.4859 6.19745   1 
   2   7   8 24.0371 5.09245   2 
   3   7   8 28.1292 9.71930   2 
   3   7   8 7.63427 5.58358   1 
   4   7   8 86.6503 7.60158   1 
   4   7   8 42.7128 5.40056   2 
   5   7   8 -6.2508 4.62216   2 
  -3   8   1 184.948 19.3179  -2 
   5   7   8 184.948 19.3179   1 
   6   7   8 27.4257 4.94998   2 
   6   7   8 47.0815 9.50396   1 
   7   7   8 22.2542 7.24680   1 
   7   7   8 5.92870 8.91146   2 
   8   7   8 58.0922 8.68382   1 
   8   7   8 17.6820 9.90197   2 
   9   7   8 -1.8436 6.92269   1 
   9   7   8 0.36693 9.17894   2 
  10   7   8 12.0181 10.6503   2 
   8  -7   1 19.3509 18.7507  -2 
  10   7   8 19.3509 18.7507   1 
  10   7   8 8.53479 10.8621   1 
  11   7   8 6.91276 9.57938   2 
  11   7   8 18.0821 9.19162   1 
  12   7   8 -8.3677 9.81550   2 
  12   7   8 5.73493 9.30425   1 
  13   7   8 20.7197 13.1523   2 
  13   7   8 28.3055 10.8785   1 
 -10   8   8 1.77743 11.1587   1 
 -10   8   8 -0.5497 14.1537   2 
  -9   8   8 -5.0524 11.9048   2 
  -9   8   8 -4.0524 10.5571   1 
  -8   8   8 38.2231 9.39620   2 
  -8   8   8 37.0537 10.9457   1 
  -7   8   8 0.78488 7.62313   2 
   9  11   6 -7.3828 12.5303  -2 
  -7   8   8 -7.3828 12.5303   1 
  -6   8   8 62.2273 9.18589   2 
  -6   8   8 106.992 14.1650   1 
  -5   8   8 1.16881 6.73345   2 
  -5   8   8 30.7293 10.8428   1 
  -4   8   8 6.65465 5.92173   2 
  -4   8   8 43.7312 10.0951   1 
  -3   8   8 63.4296 11.1639   1 
  -3   8   8 9.17393 5.56262   2 
  -2   8   8 -1.2151 5.27649   2 
  -2   8   8 -4.1659 7.90514   1 
  -1   8   8 22.2334 8.97755   1 
  -1   8   8 9.95723 5.41434   2 
   0   8   8 15.0695 4.25307   1 
   0   8   8 7.21897 5.09017   2 
   1   8   8 5.32526 5.04669   2 
   1   8   8 17.3525 4.78525   1 
   2   8   8 173.995 13.9861   1 
   0   9   2 185.573 13.3455  -2 
   2   8   8 185.573 13.3455   1 
   2   8   8 74.3255 6.43283   2 
   3   8   8 10.6890 5.15182   1 
   3   8   8 7.36286 7.28413   2 
   4   8   8 74.6698 7.70016   1 
   4   8   8 38.9698 5.20981   2 
   5   8   8 60.0910 5.42270   2 
   5   8   8 104.901 8.99234   1 
   6   8   8 1.28790 6.15144   1 
   6   8   8 -3.5486 8.69447   2 
   7   8   8 48.3720 8.34865   1 
   7   8   8 25.9598 10.3458   2 
   8   8   8 5.02726 7.22584   1 
   8   8   8 -3.5981 9.47694   2 
   9   8   8 69.5627 10.1407   1 
   9   8   8 37.7229 11.6376   2 
  10   8   8 1.40518 7.83911   1 
  10   8   8 -8.5164 9.40001   2 
  11   8   8 3.32593 8.40555   1 
  11   8   8 -12.648 8.88733   2 
  12   8   8 6.23363 9.28925   1 
  12   8   8 -8.3683 9.08748   2 
  13   8   8 15.0714 10.3489   1 
  13   8   8 -1.8265 10.9205   2 
  -9   9   8 -0.0637 9.09016   2 
  -8   9   8 4.03665 8.75396   2 
  -8   9   8 16.9434 11.6194   1 
  -7   9   8 10.0964 8.41266   2 
  -7   9   8 32.7057 11.1566   1 
  -6   9   8 -6.7849 7.21022   2 
  -6   9   8 20.1260 10.1531   1 
  -5   9   8 5.57721 6.67892   2 
  -5   9   8 -1.2661 8.74201   1 
  -4   9   8 5.79933 8.26521   1 
  -4   9   8 29.1472 9.73734   2 
  -3   9   8 0.51946 5.39246   2 
  -3   9   8 5.44303 8.14900   1 
  -2   9   8 1.75535 6.87996   2 
  -2   9   8 3.01690 7.62637   1 
  -1   9   8 13.1963 5.53115   2 
  -1   9   8 23.8338 8.92913   1 
   0   9   8 6.11390 4.27785   1 
   0   9   8 6.54960 5.36343   2 
   1   9   8 110.540 7.86998   2 
   1   9   8 191.999 8.40812   1 
   2   9   8 22.0406 5.26633   2 
   2   9   8 53.5515 6.46845   1 
   3   9   8 472.469 12.9974   1 
   3   9   8 221.105 8.56345   2 
   4   9   8 15.6800 4.17884   2 
   4   9   8 28.9656 6.66092   1 
   5   9   8 149.629 9.71160   1 
   5   9   8 51.3239 11.4900   2 
   6   9   8 -1.2703 6.11989   1 
   6   9   8 6.57917 8.50562   2 
   7   9   8 -1.1590 7.33943   2 
   7   9   8 5.79140 6.69528   1 
   8   9   8 31.3860 8.17441   1 
   8   9   8 17.1169 10.4369   2 
   9   9   8 17.8722 8.27916   1 
   9   9   8 6.15546 10.3910   2 
  10   9   8 10.5322 12.7308   1 
  11   9   8 14.9090 9.68199   1 
  11   9   8 19.7641 11.8776   2 
   9  -8   3 41.1269 27.3240  -2 
  12   9   8 41.1269 27.3240   1 
  12   9   8 6.17944 11.2273   2 
  12   9   8 7.07940 12.1852   1 
  13   9   8 -13.721 8.93396   1 
  13   9   8 12.5771 11.8716   2 
  -9  10   8 3.64956 9.66781   2 
  -8  10   8 0.33987 8.39673   2 
  -7  10   8 0.46397 8.21152   2 
  -6  10   8 9.19060 8.10267   2 
  -6  10   8 -7.7316 8.45017   1 
  -5  10   8 -3.2766 8.69483   1 
  -4  10   8 13.6824 6.27039   2 
  -4  10   8 3.98915 8.72733   1 
   6  11   3 84.4979 17.0508  -2 
  -3  10   8 84.4979 17.0508   1 
  -3  10   8 47.2558 7.48342   2 
  -2  10   8 -6.9490 5.46943   2 
  -2  10   8 2.26419 7.98031   1 
  -1  10   8 40.2048 6.84846   2 
  -1  10   8 123.098 12.7180   1 
   0  10   8 24.0680 6.18047   2 
   0  10   8 31.7881 10.0262   1 
   1  10   8 6.28260 5.30947   2 
   1  10   8 41.1310 6.09988   1 
   2  10   8 48.4097 6.26439   2 
   2  10   8 125.495 8.31488   1 
   0  10   0 6.57792 9.47719  -2 
   3  10   8 6.57792 9.47719   1 
   3  10   8 -12.083 7.66708   2 
   4  10   8 100.398 8.85558   1 
   4  10   8 84.2163 13.8610   2 
   5  10   8 45.0644 7.87692   1 
   5  10   8 23.6757 10.2968   2 
   6  10   8 21.0431 7.22795   1 
   6  10   8 -5.1793 8.83647   2 
   7  10   8 4.96944 7.21586   1 
   7  10   8 -11.306 8.90163   2 
   8  10   8 3.85200 9.64601   2 
   5  -9   2 -3.0117 10.9748  -2 
   8  10   8 -3.0117 10.9748   1 
   9  10   8 15.4432 8.33071   1 
   9  10   8 -5.9833 9.68460   2 
  10  10   8 35.4792 9.75130   1 
  10  10   8 19.3135 11.2572   2 
  11  10   8 4.90072 8.70585   1 
  11  10   8 17.2301 12.3321   2 
  12  10   8 10.8706 13.4429   1 
  12  10   8 -10.474 10.8376   2 
   9  -8   4 18.2210 24.0835  -2 
  12  10   8 18.2210 24.0835   1 
  -8  11   8 -9.4306 8.64972   2 
  -7  11   8 -10.113 8.08757   2 
  -6  11   8 4.71383 7.76930   2 
  -5  11   8 4.51243 7.86031   2 
  -4  11   8 5.85875 6.59635   2 
  -4  11   8 17.6958 9.27817   1 
  -3  11   8 2.18339 6.49802   2 
  -3  11   8 13.5292 8.60908   1 
  -2  11   8 96.0301 12.0880   1 
  -2  11   8 45.4451 7.27582   2 
  -1  11   8 34.3489 10.0245   1 
  -1  11   8 13.0243 6.09468   2 
   0  11   8 -3.0087 5.03640   2 
   0  11   8 -4.6089 8.43394   1 
   1  11   8 10.9006 5.59710   2 
   1  11   8 31.6169 9.66416   1 
   2  11   8 43.9412 6.86512   1 
   2  11   8 12.5896 9.91776   2 
   3  11   8 30.4892 6.89072   1 
   4  11   8 13.2572 6.74458   1 
   4  11   8 -2.4755 8.84958   2 
   5  11   8 -17.997 8.23206   2 
   5  11   8 8.75419 7.15259   1 
   6  11   8 111.863 9.99009   1 
   6  11   8 56.8735 13.1868   2 
   7  11   8 -7.3087 6.67986   1 
   7  11   8 18.9623 11.0211   2 
   8  11   8 6.72328 8.15119   1 
   8  11   8 12.5579 11.3549   2 
   9  11   8 1.19503 10.4725   2 
   9  11   8 14.6502 8.49872   1 
  10  11   8 -0.0806 8.65455   1 
  10  11   8 5.25805 10.5300   2 
  11  11   8 14.1205 9.23411   1 
  11  11   8 14.9514 12.0997   2 
  12  11   8 21.6098 10.4910   1 
  12  11   8 7.02908 10.9133   2 
  -7  12   8 -13.164 8.10582   2 
  -6  12   8 9.91364 8.87896   2 
  -5  12   8 5.57661 7.75914   2 
  -4  12   8 8.45972 7.08730   2 
  -3  12   8 -1.3988 6.95759   2 
  -3  12   8 21.5097 9.13181   1 
  -2  12   8 13.4512 6.59817   2 
  -2  12   8 7.40134 7.98909   1 
  -1  12   8 5.87760 6.34394   2 
  -1  12   8 18.2184 9.15662   1 
   0  12   8 7.86424 5.56851   2 
   0  12   8 3.46004 9.09469   1 
   1  12   8 15.8152 9.18307   1 
   1  12   8 2.76325 9.71681   2 
   2  12   8 41.6813 12.1556   2 
   2  12   8 85.4380 8.15925   1 
   3  12   8 68.2461 8.47247   1 
   3  12   8 21.7276 11.0633   2 
   4  12   8 47.9002 7.91650   1 
   4  12   8 14.3215 10.3862   2 
   5  12   8 9.63901 11.1069   2 
   5  12   8 50.0676 8.66169   1 
   6  12   8 -0.5649 10.1573   2 
   6  12   8 9.26099 7.65800   1 
   7  12   8 48.5840 9.52544   1 
   7  12   8 20.3937 11.8018   2 
   8  12   8 15.4188 8.88657   1 
   8  12   8 12.3731 11.4593   2 
   9  12   8 10.4320 9.00872   1 
   9  12   8 3.41158 10.1673   2 
  10  12   8 4.31022 8.95323   1 
  10  12   8 14.3239 12.0628   2 
  11  12   8 5.67710 9.47548   1 
  11  12   8 21.8487 12.7853   2 
  -6  13   8 7.77062 8.95902   2 
  -5  13   8 1.14718 8.34131   2 
  -3  13   8 19.2859 7.60983   2 
  -2  13   8 -5.2904 5.88914   2 
  -1  13   8 -3.4614 5.55067   2 
  -1  13   8 4.61345 8.75585   1 
   0  13   8 8.07620 8.53866   1 
   0  13   8 -2.4789 9.10274   2 
   1  13   8 12.1073 9.17525   1 
   1  13   8 2.52092 9.21763   2 
   2  13   8 11.1697 9.94536   1 
   2  13   8 18.6002 11.5294   2 
   3  13   8 24.3827 10.8610   2 
   3  13   8 28.8041 7.42191   1 
   4  13   8 -13.458 6.17494   1 
   4  13   8 2.46468 9.64589   2 
   5  13   8 10.5512 7.44151   1 
   5  13   8 18.9347 11.4326   2 
   6  13   8 25.9549 11.7716   2 
   6  13   8 18.8137 8.22709   1 
   7  13   8 21.6945 11.2682   2 
   7  13   8 13.1216 7.93726   1 
   8  13   8 8.27191 8.21751   1 
   8  13   8 4.25892 11.2924   2 
   9  13   8 5.05453 8.74125   1 
   9  13   8 -0.6841 10.2964   2 
  10  13   8 -5.5997 9.13444   1 
  10  13   8 -9.3713 9.94892   2 
  11  13   8 8.82742 10.2660   1 
  11  13   8 0.51104 12.1468   2 
  -5  14   8 4.75047 8.61786   2 
  -4  14   8 -1.3458 7.75748   2 
  -3  14   8 8.20433 7.60802   2 
  -2  14   8 6.17230 5.93556   2 
  -1  14   8 8.19238 12.1377   2 
   0  14   8 2.53335 11.2797   2 
   1  14   8 7.98627 8.50472   1 
   1  14   8 8.00237 10.3630   2 
   2  14   8 -8.7725 8.54845   1 
   2  14   8 13.2686 11.5705   2 
   3  14   8 -9.3087 8.98224   1 
   3  14   8 -3.3486 10.8887   2 
   4  14   8 28.1352 8.10218   1 
   5  14   8 7.30683 11.6399   2 
   5  14   8 4.68407 7.49414   1 
   6  14   8 -1.5035 8.16367   1 
   6  14   8 -14.447 9.73507   2 
   7  14   8 24.4255 9.09091   1 
   7  14   8 6.26832 11.2792   2 
   8  14   8 11.0673 9.08982   1 
   8  14   8 -5.8580 10.4649   2 
   9  14   8 -0.7399 8.78575   1 
   9  14   8 10.2590 12.4830   2 
  10  14   8 1.00261 10.3372   2 
  10  14   8 4.67094 8.88800   1 
  -4  15   8 -8.2985 8.09613   2 
  -3  15   8 1.21113 12.8463   2 
  -2  15   8 8.62492 12.9842   2 
  -1  15   8 -9.7115 11.1354   2 
   0  15   8 5.18870 12.7838   2 
   1  15   8 -1.9526 11.9049   2 
   2  15   8 13.1154 12.3807   2 
   3  15   8 -5.6018 10.0902   2 
   4  15   8 -10.062 10.8500   2 
   4  15   8 -8.9603 9.63525   1 
   0 -12   4 13.6269 11.6625  -2 
   5  15   8 13.6269 11.6625   1 
   5  15   8 12.3474 12.4961   2 
   6  15   8 12.6217 8.95526   1 
   6  15   8 7.08789 12.3662   2 
   7  15   8 1.77434 8.76409   1 
   7  15   8 1.39323 10.3414   2 
   8  15   8 35.5053 13.7353   2 
   8  15   8 8.76232 8.96701   1 
   9  15   8 8.91082 9.86246   1 
   9  15   8 15.9779 12.2057   2 
  -2  16   8 -17.363 11.9238   2 
  -1  16   8 -12.996 11.4579   2 
   0  16   8 7.64609 12.8869   2 
   1  16   8 2.32569 12.2956   2 
   2  16   8 0.28390 12.0032   2 
   3  16   8 3.79408 12.7947   2 
   4  16   8 9.18891 12.8174   2 
   5  16   8 -1.5153 11.6121   2 
   6  16   8 0.02677 8.90885   1 
   6  16   8 -3.2277 11.4212   2 
   7  16   8 3.77945 9.35728   1 
   7  16   8 17.8886 12.2974   2 
   2  17   8 4.07862 13.8117   2 
   3  17   8 -2.4582 14.1968   2 
   4  17   8 -4.0351 12.5968   2 
  -5  -9   9 2.09587 12.0422   1 
  -4  -9   9 -1.6530 12.5822   1 
  -3  -9   9 10.3230 12.7784   1 
  -3  -9   9 5.50959 13.6137   2 
  -2  -9   9 20.6431 14.1726   1 
  -2  -9   9 7.55986 13.2821   2 
  -1  -9   9 -5.2444 12.8975   2 
  -1  -9   9 -3.7905 12.4363   1 
   0  -9   9 6.19394 13.9207   2 
   0  -9   9 -7.2801 11.9038   1 
   1  -9   9 21.9682 13.8663   1 
   1  -9   9 16.9912 14.0630   2 
   2  -9   9 1.99151 13.4461   2 
   2  -9   9 -3.0787 12.1984   1 
   3  -9   9 5.25864 8.46033   2 
   3  -9   9 -0.1233 13.0146   1 
  -6  -8   9 4.34654 12.9163   1 
  -5  -8   9 9.67076 12.3112   2 
  -5  -8   9 19.1986 12.9809   1 
  -4  -8   9 34.2481 13.9398   2 
  -4  -8   9 -0.1997 12.4487   1 
  -3  -8   9 18.2368 13.5011   1 
  -3  -8   9 2.06872 11.8756   2 
  -2  -8   9 -16.780 12.3971   2 
  -2  -8   9 -14.008 11.7769   1 
  -1  -8   9 5.71596 12.2337   2 
  -1  -8   9 49.7267 15.4514   1 
   0  -8   9 7.78062 15.3094   1 
   0  -8   9 4.46751 12.6495   2 
   1  -8   9 -3.4828 11.4023   1 
   1  -8   9 -8.2848 11.6570   2 
  -6   2  13 14.5811 16.3205  -2 
   2  -8   9 14.5811 16.3205   1 
   2  -8   9 -7.1027 7.22834   2 
   3  -8   9 -4.6759 12.1364   1 
   3  -8   9 7.56752 7.86246   2 
   4  -8   9 -14.131 12.7045   1 
   5  -8   9 -2.4436 8.72005   2 
   5  -8   9 5.17046 15.0132   1 
  -8  -7   9 14.2906 9.75567   1 
  -7  -7   9 25.2149 15.5695   1 
  -7  -7   9 14.3640 13.4796   2 
   2   4  16 10.4539 13.4122  -2 
  -6  -7   9 10.4539 13.4122   1 
  -6  -7   9 18.4700 13.3511   2 
  -5  -7   9 23.4614 13.3254   2 
  -5  -7   9 -12.249 7.47793   1 
  -4  -7   9 2.07546 10.8096   1 
  -4  -7   9 23.8585 12.4104   2 
  -3  -7   9 1.85856 10.7680   1 
  -3  -7   9 -0.2440 12.3330   2 
  -2  -7   9 -17.210 10.4607   2 
  -2  -7   9 8.78492 11.6908   1 
  -1  -7   9 3.99008 11.8777   1 
  -1  -7   9 0.87247 10.9458   2 
   0  -7   9 -17.243 10.7512   2 
   0  -7   9 -8.1038 9.69333   1 
   1  -7   9 -0.3618 6.76333   2 
   1  -7   9 -19.645 9.18462   1 
   2  -7   9 21.2242 7.98670   2 
   2  -7   9 30.4280 12.6146   1 
   3  -7   9 -1.0796 11.4738   1 
   3  -7   9 -3.8573 9.58715   2 
   4  -7   9 10.3305 8.33663   2 
   4  -7   9 -0.7408 12.5995   1 
   5  -7   9 -5.0257 8.00753   2 
   5  -7   9 1.21726 12.5162   1 
   6  -7   9 6.79185 8.55223   2 
   6  -7   9 52.0857 15.7491   1 
   7  -7   9 6.11202 15.0383   1 
   7  -7   9 0.09909 8.38993   2 
  -8  -6   9 6.10616 12.2542   2 
  -8  -6   9 15.6527 8.86683   1 
  -7  -6   9 4.18589 8.61079   1 
  -7  -6   9 2.00852 12.2357   2 
  -6  -6   9 37.7445 9.83938   1 
  -6  -6   9 26.8694 13.0477   2 
  -5  -6   9 -4.8601 8.17314   1 
  -5  -6   9 7.18545 11.6671   2 
  -4  -6   9 14.7678 12.4570   2 
  -4  -6   9 23.7791 8.61451   1 
  -3  -6   9 8.29139 7.59759   1 
  -2  -6   9 -12.001 14.8313   2 
  -2  -6   9 1.55435 9.49334   1 
  -1  -6   9 16.6562 10.7293   1 
  -1  -6   9 13.8041 12.3542   2 
   0  -6   9 24.6176 11.7728   2 
   0  -6   9 46.0269 12.4920   1 
   1  -6   9 2.47887 6.66446   2 
   1  -6   9 -6.8180 9.63709   1 
   2  -6   9 63.0012 12.9296   1 
   2  -6   9 21.3700 7.37508   2 
   3  -6   9 12.9072 11.1554   1 
   3  -6   9 2.30212 7.26272   2 
   4  -6   9 20.9200 8.34816   2 
   4  -6   9 39.6437 13.3435   1 
   5  -6   9 -0.7621 7.50234   2 
   5  -6   9 6.01736 12.1851   1 
   6  -6   9 -8.1496 7.19139   2 
  -9   2  10 80.0851 23.4348  -2 
   6  -6   9 80.0851 23.4348   1 
   7  -6   9 5.95592 8.18816   2 
   7  -6   9 14.3858 14.8516   1 
   8  -6   9 -3.9492 8.73417   2 
   8  -6   9 3.42815 14.8719   1 
  -9  -5   9 -0.1476 12.1030   2 
  -9  -5   9 12.3068 8.76393   1 
  -8  -5   9 -4.1338 8.36015   1 
  -8  -5   9 21.5763 12.0770   2 
   4   5  15 -10.097 22.7325  -2 
  -7  -5   9 -10.097 22.7325   1 
  -7  -5   9 2.63435 10.9750   1 
  -7  -5   9 -1.4760 11.5311   2 
  -6  -5   9 -0.0339 7.39855   1 
  -6  -5   9 2.56663 11.2604   2 
  -5  -5   9 6.10784 7.39245   1 
  -5  -5   9 10.3403 10.9592   2 
  -4  -5   9 11.6336 7.91361   1 
  -4  -5   9 -8.0642 11.5149   2 
  -3  -5   9 -5.7976 6.58185   1 
  -3  -5   9 -9.3651 9.80953   2 
  -2  -5   9 39.7825 8.06659   1 
  -2  -5   9 31.0194 12.2640   2 
  -1  -5   9 25.5869 7.13735   1 
  -1  -5   9 10.4527 10.9060   2 
   0  -5   9 20.3531 6.41398   2 
  -3   4  12 32.3800 17.3453  -2 
   0  -5   9 32.3800 17.3453   1 
   1  -5   9 105.632 14.1029   1 
   1  -5   9 49.8600 7.79611   2 
   2  -5   9 -0.0836 6.07425   2 
   2  -5   9 -3.9542 9.69554   1 
   3  -5   9 5.07916 6.53961   2 
   3  -5   9 -4.0094 9.77443   1 
  -7   3  10 33.5433 18.9646  -2 
   4  -5   9 33.5433 18.9646   1 
   4  -5   9 -4.2736 6.43860   2 
   5  -5   9 -21.117 10.5201   1 
   5  -5   9 -2.7213 9.30170   2 
   6  -5   9 14.1800 13.3629   1 
   6  -5   9 -7.7838 7.22625   2 
   7  -5   9 21.9240 13.8281   1 
   7  -5   9 9.98610 8.75878   2 
   8  -5   9 11.7394 8.85332   2 
   8  -5   9 3.35156 14.0437   1 
   9  -5   9 30.2774 15.4940   1 
   9  -5   9 1.63819 8.90243   2 
 -10  -4   9 -19.203 10.9133   2 
 -10  -4   9 6.10788 15.4453   1 
  -9  -4   9 18.1735 8.74182   1 
  -9  -4   9 5.52415 11.7659   2 
  -8  -4   9 18.6687 8.04912   1 
  -8  -4   9 -0.0956 10.9816   2 
  -7  -4   9 -0.1663 7.56405   1 
  -7  -4   9 7.73842 10.8200   2 
  -6  -4   9 7.02835 7.45734   1 
  -6  -4   9 2.16881 10.8960   2 
  -5  -4   9 32.7065 8.27500   1 
  -5  -4   9 8.42737 10.6285   2 
  -4  -4   9 1.89420 6.96889   1 
  -4  -4   9 -5.8325 10.1539   2 
  -3  -4   9 9.83151 10.9656   2 
  -3  -4   9 62.8965 11.9436   1 
  -2  -4   9 28.2170 11.6203   2 
  -2  -4   9 71.2271 8.54754   1 
  -1  -4   9 39.1891 6.61500   2 
  -1  -4   9 101.903 9.01981   1 
   0  -4   9 6.35939 6.09205   1 
   0  -4   9 1.23526 4.58975   2 
   1  -4   9 5.42684 4.66468   2 
   1  -4   9 21.3667 6.66550   1 
   2  -4   9 28.9840 6.80946   2 
   2  -4   9 50.6003 11.9242   1 
   3  -4   9 -4.9058 5.05975   2 
   3  -4   9 14.0762 10.5690   1 
   4  -4   9 20.5477 11.0302   1 
   4  -4   9 7.24633 9.07417   2 
   5  -4   9 12.5825 6.18113   2 
   5  -4   9 14.1988 10.7549   1 
   6  -4   9 6.38415 6.06949   2 
   6  -4   9 2.33510 13.1599   1 
   7  -4   9 12.4042 6.75462   2 
   7  -4   9 27.0483 14.1699   1 
   8  -4   9 5.13590 6.92521   2 
   8  -4   9 28.0952 13.8886   1 
   9  -4   9 17.3070 7.50084   2 
   9  -4   9 44.8835 16.2213   1 
 -10  -3   9 12.4910 13.1444   2 
 -10  -3   9 -12.225 13.4412   1 
  -9  -3   9 6.61029 10.9909   2 
  -9  -3   9 19.4176 8.70773   1 
  -8  -3   9 6.33059 7.10424   1 
  -8  -3   9 -22.572 9.97916   2 
  -7  -3   9 20.3136 10.4956   2 
  -7  -3   9 24.6784 8.16050   1 
  -6  -3   9 39.0676 8.27846   1 
  -6  -3   9 13.9494 10.9103   2 
  -5  -3   9 15.2608 9.95455   2 
  -5  -3   9 24.0205 7.27664   1 
  -4  -3   9 16.1615 10.6248   2 
  -4  -3   9 35.1328 7.86682   1 
  -3  -3   9 17.1542 7.13229   1 
  -3  -3   9 17.3305 10.0499   2 
  -2  -3   9 34.2797 6.91850   1 
  -2  -3   9 4.25261 9.38811   2 
  -1  -3   9 3.46875 4.10312   2 
  -1  -3   9 10.3663 6.14530   1 
   0  -3   9 62.9632 7.85315   1 
   0  -3   9 26.4333 6.55013   2 
   1  -3   9 8.96516 6.00341   1 
   1  -3   9 8.07501 6.33154   2 
   2  -3   9 8.47059 6.31414   1 
   2  -3   9 10.5980 6.42559   2 
   3  -3   9 1.93632 6.60920   1 
   3  -3   9 20.6618 7.17070   2 
   4  -3   9 9.92142 6.89453   2 
  -6   4   9 12.7196 14.2811  -2 
   4  -3   9 12.7196 14.2811   1 
   5  -3   9 25.2288 11.8933   1 
   5  -3   9 10.6434 6.94880   2 
   6  -3   9 47.9052 8.80802   2 
   6  -3   9 92.3683 15.0426   1 
   7  -3   9 24.0209 6.68460   2 
   7  -3   9 -2.5813 11.6168   1 
   8  -3   9 13.3841 6.88157   2 
 -10   3   7 72.8069 21.4457  -2 
   8  -3   9 72.8069 21.4457   1 
   9  -3   9 6.15617 6.92999   2 
   9  -3   9 -0.2871 12.7055   1 
  10  -3   9 7.29895 14.7447   1 
  10  -3   9 20.9010 7.68051   2 
 -10  -2   9 -14.933 13.2915   1 
 -10  -2   9 -3.0114 12.0596   2 
  -9  -2   9 18.7808 13.9746   1 
  -9  -2   9 17.9575 11.5069   2 
  -8  -2   9 28.1604 8.00716   1 
  -8  -2   9 7.88332 11.2323   2 
  -7  -2   9 15.8703 7.80370   1 
  -7  -2   9 -3.3652 12.1662   2 
  -6  -2   9 56.5750 12.8828   1 
  -6  -2   9 12.8644 9.64379   2 
  -5  -2   9 9.75094 6.73785   1 
   2   6  12 313.646 15.0843  -2 
  -4  -2   9 313.646 15.0843   1 
  -4  -2   9 100.136 13.2772   2 
  -3  -2   9 61.2498 8.08231   1 
  -3  -2   9 33.0160 9.97660   2 
  -2  -2   9 -1.1458 5.44170   1 
  -2  -2   9 3.52896 8.76363   2 
  -1  -2   9 -0.1390 5.63002   1 
  -1  -2   9 3.68224 5.59172   2 
   0  -2   9 40.9394 7.16559   1 
   0  -2   9 18.8926 5.89531   2 
   1  -2   9 17.1321 6.66191   1 
   1  -2   9 10.9682 5.83415   2 
   2  -2   9 85.9810 8.46990   2 
   2  -2   9 180.077 14.9407   1 
   3  -2   9 19.0828 6.52183   1 
   3  -2   9 4.50986 6.02026   2 
   4  -2   9 52.2086 8.06918   2 
   4  -2   9 83.6759 8.26309   1 
   5  -2   9 14.2286 6.79726   2 
   5  -2   9 49.5700 7.63027   1 
   6  -2   9 26.5611 7.60896   2 
   6  -2   9 43.6594 12.3225   1 
   7  -2   9 37.8169 13.1220   1 
   7  -2   9 25.6580 8.01923   2 
   8  -2   9 -6.1672 7.16738   2 
   8  -2   9 2.25076 11.9577   1 
   9  -2   9 15.4841 8.17750   2 
   9  -2   9 -2.8757 12.5784   1 
  10  -2   9 17.8655 14.4262   1 
  10  -2   9 9.76349 6.73143   2 
  11  -2   9 -5.8544 6.91746   2 
  11  -2   9 27.7171 15.8314   1 
 -11  -1   9 12.6386 14.9169   1 
 -10  -1   9 41.9888 16.0730   1 
 -10  -1   9 27.6834 14.3497   2 
  -9  -1   9 -4.6262 12.3761   2 
  -9  -1   9 0.08952 12.8068   1 
  -8  -1   9 52.3449 14.7621   1 
  -8  -1   9 13.0794 10.8723   2 
  -7  -1   9 4.60158 5.95878   1 
  -7  -1   9 7.64662 9.65740   2 
  -6  -1   9 3.80277 6.38873   1 
  -6  -1   9 -2.5444 8.97461   2 
  -5  -1   9 22.5896 6.75966   1 
  -5  -1   9 9.57156 8.96452   2 
  -4  -1   9 47.6997 7.50526   1 
  -4  -1   9 8.68052 9.56046   2 
  -3  -1   9 36.3853 6.86782   1 
  -3  -1   9 9.74223 8.87899   2 
  -2  -1   9 61.8559 6.46256   2 
  -2  -1   9 144.251 9.24064   1 
  -1  -1   9 1.14183 5.48043   2 
  -1  -1   9 -7.1262 4.69100   1 
   0  -1   9 232.674 10.6552   1 
   0  -1   9 113.272 8.15107   2 
   1  -1   9 219.095 10.1779   1 
   1  -1   9 90.3279 8.08761   2 
   2  -1   9 1.93407 5.88498   2 
   2  -1   9 0.03456 5.44694   1 
   3  -1   9 90.7905 8.01563   1 
   4  -1   9 35.3394 7.09683   2 
   4  -1   9 59.6166 7.49386   1 
   5  -1   9 -2.3836 5.69784   2 
   5  -1   9 14.5553 6.22966   1 
   6  -1   9 -0.1872 5.89665   1 
   6  -1   9 7.01111 6.63544   2 
   7  -1   9 3.93940 7.20653   1 
   7  -1   9 -3.0445 6.52379   2 
   8  -1   9 -0.9297 10.6827   1 
   8  -1   9 -2.9514 6.51882   2 
   9  -1   9 3.75626 7.41153   2 
   9  -1   9 9.22814 11.7069   1 
  10  -1   9 -0.0934 7.19458   2 
  10  -1   9 -3.8656 12.6820   1 
  11  -1   9 6.76560 8.22853   2 
  11  -1   9 45.8171 16.3950   1 
 -11   0   9 9.72222 15.2051   2 
 -11   0   9 17.0359 14.4515   1 
 -10   0   9 -1.4106 13.2628   2 
 -10   0   9 6.45211 12.4525   1 
  -9   0   9 4.40828 11.4527   2 
  -9   0   9 33.6522 13.1945   1 
  -8   0   9 -0.7455 9.37431   2 
  -8   0   9 12.9476 12.1756   1 
  -7   0   9 -6.7304 5.61760   1 
  -7   0   9 26.1551 11.5009   2 
  -6   0   9 0.44327 5.56680   1 
  -6   0   9 -4.7196 8.40905   2 
   4   7  11 3.42230 10.7275  -2 
  -5   0   9 3.42230 10.7275   1 
  -5   0   9 9.44928 8.67966   2 
  -4   0   9 6.67184 5.64656   1 
  -4   0   9 2.53554 8.37856   2 
  -3   0   9 189.796 9.84811   1 
  -3   0   9 68.7957 10.9043   2 
  -2   0   9 13.8409 4.96708   2 
  -2   0   9 38.2761 6.52750   1 
  -1   0   9 262.198 9.58837   2 
  -1   0   9 592.208 14.5154   1 
   0   0   9 33.0341 6.40739   1 
   0   0   9 14.7890 5.42390   2 
   1   0   9 83.4265 7.63866   1 
   1   0   9 32.7790 6.45358   2 
   2   0   9 121.867 8.29986   2 
  -3   6   8 574.747 14.7591  -2 
   2   0   9 574.747 14.7591   1 
   3   0   9 -2.4563 4.88923   2 
   3   0   9 8.31404 5.53496   1 
   4   0   9 2.43440 6.15858   2 
   4   0   9 25.6324 6.50539   1 
   5   0   9 5.41450 6.24423   2 
   5   0   9 30.0977 6.92463   1 
   6   0   9 -8.1704 5.77897   2 
  -7   5   6 6.96390 9.26565  -2 
   6   0   9 6.96390 9.26565   1 
   7   0   9 43.9081 8.14614   1 
   7   0   9 12.1754 6.79862   2 
   8   0   9 13.5772 7.17729   2 
   8   0   9 10.8757 7.48759   1 
   9   0   9 46.5732 9.56259   1 
   9   0   9 2.34468 6.83033   2 
  10   0   9 19.2092 8.33377   2 
  10   0   9 58.3463 15.7490   1 
  11   0   9 34.0758 14.7109   1 
  11   0   9 -14.022 11.0946   2 
  12   0   9 -0.1030 8.41856   2 
  12   0   9 33.1404 14.5685   1 
 -11   1   9 -7.9025 14.8296   2 
 -11   1   9 26.0708 14.2528   1 
   9   9  13 -36.235 22.6785  -2 
 -10   1   9 -36.235 22.6785   1 
 -10   1   9 -0.5472 12.4107   2 
  -9   1   9 9.77821 12.8642   2 
  -9   1   9 3.75532 12.1033   1 
  -8   1   9 3.95130 11.2314   1 
  -8   1   9 -6.2898 10.4592   2 
  -7   1   9 124.232 16.1148   1 
  -7   1   9 63.6949 12.7000   2 
  -6   1   9 0.80458 8.59229   2 
  -6   1   9 -7.8849 5.32449   1 
  -5   1   9 45.3607 7.37313   2 
  -5   1   9 94.3782 8.14971   1 
  -4   1   9 112.393 8.05506   1 
  -3   1   9 185.413 9.34139   1 
  -3   1   9 84.5543 6.43409   2 
  -2   1   9 136.600 7.41773   2 
  -2   1   9 299.104 10.7250   1 
  -1   1   9 41.0370 6.32185   1 
  -1   1   9 17.5235 5.28660   2 
   0   1   9 280.194 10.7041   1 
   0   1   9 122.083 7.78931   2 
   1   1   9 -2.7430 4.80556   2 
   1   1   9 -1.0734 4.67465   1 
   2   1   9 4.19332 4.97702   2 
   2   1   9 -2.7269 5.16646   1 
   3   1   9 -7.3608 4.87630   2 
   3   1   9 6.22007 5.25570   1 
   4   1   9 26.8843 6.35749   1 
   4   1   9 12.8504 5.67853   2 
   5   1   9 7.93162 5.60898   2 
   5   1   9 14.6869 5.97788   1 
   6   1   9 33.8114 7.26363   1 
   6   1   9 15.4173 6.28999   2 
   7   1   9 15.8119 6.55297   2 
   7   1   9 27.5265 7.37575   1 
   8   1   9 65.1121 8.85848   2 
   8   1   9 124.581 10.7287   1 
   9   1   9 0.41245 7.85617   1 
   9   1   9 -0.5071 6.75087   2 
  10   1   9 42.9780 9.84094   1 
  11   1   9 9.15187 7.81391   2 
  11   1   9 19.1084 9.67859   1 
  12   1   9 2.20379 8.20949   2 
  12   1   9 -0.9885 13.2287   1 
 -11   2   9 -0.6499 13.5464   2 
 -11   2   9 8.88344 14.3879   1 
 -10   2   9 5.29173 14.5833   2 
 -10   2   9 12.2171 12.8266   1 
  -9   2   9 15.2596 12.7115   1 
  -9   2   9 7.82186 12.1673   2 
  -8   2   9 25.4462 12.3321   2 
  -8   2   9 40.1434 13.4044   1 
  -7   2   9 -10.654 9.03692   1 
  -7   2   9 2.47435 9.42290   2 
  -6   2   9 152.430 16.2116   1 
  -6   2   9 77.9236 12.9429   2 
  -5   2   9 8.89001 5.08059   1 
  -5   2   9 0.88570 8.30341   2 
  -4   2   9 112.316 7.88795   1 
  -4   2   9 39.5358 5.65113   2 
  -3   2   9 39.0716 5.36850   2 
  -3   2   9 89.4145 7.31391   1 
  -2   2   9 15.7790 5.24180   1 
  -2   2   9 11.6417 5.13590   2 
  -1   2   9 29.2071 9.12502   1 
  -1   2   9 12.8559 4.85730   2 
   0   2   9 15.8230 5.35188   2 
   0   2   9 18.9782 5.39754   1 
   1   2   9 12.3681 5.16050   1 
   1   2   9 0.00294 5.02261   2 
   2   2   9 78.7666 7.16317   2 
   2   2   9 156.066 8.70087   1 
   3   2   9 89.9234 7.40899   1 
   3   2   9 43.1404 9.37135   2 
   4   2   9 166.115 9.38727   1 
   4   2   9 76.6417 7.50103   2 
   5   2   9 30.4989 6.22833   2 
   5   2   9 80.0263 8.16156   1 
   6   2   9 -0.0756 5.08197   2 
  -6   6   5 31.0452 14.2188  -2 
   6   2   9 31.0452 14.2188   1 
   6   2   9 -5.4671 8.14665   1 
   7   2   9 161.396 10.9215   1 
   7   2   9 64.9225 8.14930   2 
   8   2   9 0.94346 5.58992   2 
   8   2   9 21.1709 8.63743   1 
   9   2   9 34.7143 7.47416   2 
   9   2   9 80.8001 10.1846   1 
  10   2   9 16.1508 6.94126   2 
  10   2   9 25.9913 9.25502   1 
  11   2   9 19.8688 9.97155   1 
  11   2   9 -3.9811 6.72799   2 
  12   2   9 4.57848 7.85974   2 
 -12   5   2 32.7049 14.1313  -2 
  12   2   9 32.7049 14.1313   1 
  11  10  12 5.43625 17.7552  -2 
 -11   3   9 5.43625 17.7552   1 
 -10   3   9 35.5557 14.6536   1 
 -10   3   9 6.38116 14.3915   2 
  -9   3   9 10.7562 12.4242   2 
  -9   3   9 16.1872 12.4255   1 
  -8   3   9 33.8656 12.4247   1 
  -8   3   9 21.7635 12.5966   2 
  -7   3   9 17.2777 10.5154   2 
   7   9  10 71.6514 18.2022  -2 
  -7   3   9 71.6514 18.2022   1 
  -6   3   9 6.27800 9.78450   2 
  -6   3   9 37.5719 11.1055   1 
  -5   3   9 10.6428 8.79335   2 
  -5   3   9 6.95462 9.27517   1 
  -4   3   9 -3.3552 4.28826   1 
  -4   3   9 -4.9168 4.86207   2 
  -3   3   9 1.64757 4.49221   2 
  -3   3   9 7.89180 4.60167   1 
  -2   3   9 38.8079 5.77681   2 
  -2   3   9 95.8738 7.01135   1 
  -1   3   9 3.02863 4.71497   1 
  -1   3   9 3.43815 4.73176   2 
   0   8   7 209.863 14.0196  -2 
   0   3   9 209.863 14.0196   1 
   0   3   9 74.0057 6.69236   2 
   0   3   9 96.4803 10.9688   1 
   1   3   9 215.479 9.18652   1 
   1   3   9 126.516 7.96826   2 
   2   3   9 7.56957 4.54373   1 
   2   3   9 2.51324 4.81743   2 
   3   3   9 328.085 11.2785   2 
   3   3   9 630.887 14.5481   1 
   4   3   9 48.2545 6.45888   2 
  -4   7   5 138.997 11.1361  -2 
   4   3   9 138.997 11.1361   1 
   5   3   9 225.769 10.7763   1 
   5   3   9 68.2226 7.38119   2 
   6   3   9 28.7973 5.67887   1 
   6   3   9 5.11173 5.22201   2 
   7   3   9 12.6799 5.48196   1 
   7   3   9 -1.9232 5.35500   2 
   8   3   9 5.25078 6.08157   2 
   8   3   9 1.81323 5.69300   1 
   9   3   9 6.22886 6.43823   1 
   9   3   9 -1.4698 10.5404   2 
  10   3   9 -0.7784 6.75019   1 
  10   3   9 1.72934 6.45692   2 
  11   3   9 36.9887 8.40767   1 
  11   3   9 13.6088 7.47102   2 
  12   3   9 3.87820 7.50258   1 
  12   3   9 3.68023 11.7381   2 
  13   3   9 10.4485 14.8304   1 
 -11   4   9 -3.6172 11.9508   1 
 -10   4   9 2.11338 12.8757   1 
 -10   4   9 15.7818 14.8638   2 
  -9   4   9 101.213 16.7162   1 
  -9   4   9 56.5009 15.6957   2 
  -8   4   9 15.5675 11.4727   1 
  -8   4   9 4.52843 10.6554   2 
  -7   4   9 14.5435 10.1535   1 
  -7   4   9 3.44112 9.51130   2 
  -6   4   9 0.84008 9.54679   1 
  -5   4   9 -6.2361 5.69883   2 
  -5   4   9 13.1198 9.74894   1 
  -4   4   9 8.58560 8.81648   1 
  -4   4   9 -0.1168 5.28732   2 
  -3   4   9 151.206 8.74642   2 
  -3   4   9 295.995 8.86849   1 
  -2   4   9 5.09469 4.97990   2 
  -2   4   9 4.81443 8.15952   1 
  -1   4   9 111.010 7.69662   2 
  -1   4   9 222.815 8.52358   1 
   0   4   9 40.9912 5.71038   1 
   0   4   9 6.59988 5.55422   2 
   1   4   9 93.0266 7.28204   2 
   1   4   9 207.132 8.58921   1 
   2   4   9 87.7516 7.31931   2 
   2   4   9 206.958 8.97853   1 
   3   4   9 44.9976 6.20405   1 
   3   4   9 17.1951 5.33976   2 
   4   4   9 131.839 6.89800   1 
   4   4   9 62.7008 6.75736   2 
   5   4   9 7.30250 4.51562   1 
   5   4   9 2.05099 5.05594   2 
   6   4   9 10.1560 5.40449   2 
   6   4   9 9.88588 5.13967   1 
   7   4   9 6.21963 5.24717   1 
   7   4   9 6.88913 5.47849   2 
   8   4   9 9.03237 6.02070   2 
   8   4   9 31.8885 8.01608   1 
   9   4   9 -5.9482 6.94733   1 
   9   4   9 -2.1601 6.78165   2 
  10   4   9 25.0226 7.05055   2 
  10   4   9 43.7481 9.77426   1 
  11   4   9 10.4333 7.24584   1 
  12   4   9 0.09287 12.0896   2 
  12   4   9 48.4153 9.08671   1 
  13   4   9 3.87426 8.16530   1 
  13   4   9 -18.518 9.84792   2 
 -10   5   9 10.5247 13.6384   2 
  -9   5   9 9.37324 11.0049   1 
  -9   5   9 1.90653 11.7321   2 
  -8   5   9 6.61980 10.9376   2 
  -8   5   9 10.0944 10.4861   1 
  -7   5   9 1.19681 11.4665   2 
  -7   5   9 39.8099 11.7128   1 
  -6   5   9 6.11339 9.82660   1 
  -6   5   9 -8.9241 8.36785   2 
  -5   5   9 62.1401 7.42696   2 
  -5   5   9 129.861 15.1197   1 
  -4   5   9 41.9377 11.0651   1 
  -4   5   9 24.9647 6.18101   2 
  -3   5   9 101.998 12.9421   1 
  -3   5   9 30.0484 6.26728   2 
  -2   5   9 160.496 8.86935   2 
  -2   5   9 347.161 9.00051   1 
  -1   5   9 93.8774 6.39816   1 
  -1   5   9 50.2643 6.44095   2 
   0   5   9 59.6700 6.68335   2 
   0   5   9 109.646 6.65315   1 
   1   5   9 16.1617 5.33710   2 
   1   5   9 44.0671 5.62866   1 
   2   5   9 69.4693 6.74899   2 
   2   5   9 159.531 8.24968   1 
   3   5   9 36.0790 4.79168   1 
   3   5   9 20.2607 5.37168   2 
   4   5   9 -7.1320 7.46442   2 
  -3   8   4 5.20967 8.52057  -2 
   4   5   9 5.20967 8.52057   1 
   5   5   9 5.80839 5.12379   2 
   5   5   9 -10.331 5.46624   1 
   6   5   9 136.949 9.89395   1 
   6   5   9 75.1248 7.86399   2 
   7   5   9 2.64145 5.13000   2 
   7   5   9 10.2801 7.27268   1 
   8   5   9 22.2830 6.26714   2 
  -7   7   2 70.9936 12.2733  -2 
   8   5   9 70.9936 12.2733   1 
   9   5   9 41.4802 9.37151   1 
   9   5   9 19.7205 6.43815   2 
  10   5   9 32.5145 10.3218   1 
  10   5   9 34.8575 12.5849   2 
  11   5   9 2.05165 11.0654   2 
  11   5   9 28.4476 10.0331   1 
  12   5   9 5.85171 9.73404   1 
  12   5   9 4.43434 11.3136   2 
  13   5   9 -0.3360 11.5801   2 
  13   5   9 18.8078 10.8765   1 
 -10   6   9 -2.7819 12.9955   2 
 -10   6   9 5.20388 11.3494   1 
  -9   6   9 9.00255 12.6952   2 
  -9   6   9 -4.4709 12.4307   1 
  -8   6   9 5.75611 9.99944   1 
  -7   6   9 12.1053 11.0775   2 
  -7   6   9 5.96811 10.0213   1 
  -6   6   9 104.988 14.1972   2 
  -6   6   9 208.583 17.7399   1 
  -5   6   9 27.3304 10.5730   1 
  -5   6   9 15.4366 6.74318   2 
  -4   6   9 90.5200 8.19774   2 
  -4   6   9 198.837 16.2791   1 
  -3   6   9 8.76033 5.80686   2 
  -3   6   9 34.4951 10.3962   1 
  -2   6   9 51.0273 6.93701   2 
  -2   6   9 134.927 13.3578   1 
  -1   6   9 78.6018 5.54111   1 
  -1   6   9 30.4263 6.06175   2 
   0   6   9 5.20682 3.78975   1 
   0   6   9 -0.0892 4.64798   2 
   1   6   9 41.1298 5.30447   1 
   1   6   9 15.0805 5.41548   2 
   2   6   9 63.0156 10.0005   2 
   2   6   9 147.882 6.41070   1 
   3   6   9 28.8612 5.89272   1 
   3   6   9 8.55461 5.14844   2 
   4   6   9 55.1779 7.14964   1 
   4   6   9 31.8598 6.11317   2 
   5   6   9 76.6431 6.83313   2 
   5   6   9 129.328 9.47773   1 
   6   6   9 1.19036 4.85631   2 
   6   6   9 -6.7837 5.80507   1 
   7   6   9 31.7977 7.73398   1 
   7   6   9 21.3778 5.72489   2 
   8   6   9 6.77680 7.14540   1 
   8   6   9 6.08173 5.51819   2 
   9   6   9 45.5800 12.9894   2 
   9   6   9 122.110 11.6235   1 
  10   6   9 0.20100 8.34185   1 
  10   6   9 9.43445 10.3981   2 
  11   6   9 7.73853 9.58145   1 
  11   6   9 8.46550 11.8897   2 
  12   6   9 7.72475 9.92268   1 
  12   6   9 2.32013 10.9150   2 
  13   6   9 -20.247 10.6733   2 
  13   6   9 -3.7259 9.60745   1 
 -10   7   9 31.3697 13.5445   1 
 -10   7   9 9.82355 14.0222   2 
  -9   7   9 -0.6468 14.0199   2 
  -9   7   9 -9.7107 10.5648   1 
  -8   7   9 21.1692 10.6918   1 
  -8   7   9 11.8626 13.3623   2 
  -7   7   9 6.50267 7.37815   2 
  -7   7   9 34.9101 11.3780   1 
  -6   7   9 6.30388 9.08906   1 
  -6   7   9 -2.3553 6.56021   2 
  -5   7   9 134.675 15.0585   1 
  -4   7   9 -16.227 7.99296   1 
  -4   7   9 3.77894 5.80889   2 
  -3   7   9 25.2529 6.54018   2 
  -3   7   9 82.5222 12.4242   1 
  -2   7   9 13.4523 5.92737   2 
  -2   7   9 43.2650 11.7116   1 
  -1   7   9 2.92884 5.00457   2 
  -1   7   9 -1.0857 3.35157   1 
   0   7   9 20.0422 5.80425   2 
   0   7   9 43.9142 4.96680   1 
   1   7   9 42.8292 6.32517   2 
   1   7   9 85.7097 5.00865   1 
   2   7   9 3.66785 4.95634   1 
   2   7   9 3.87040 4.90416   2 
   3   7   9 443.367 12.7097   1 
   3   7   9 215.180 9.34563   2 
   4   7   9 8.37924 5.04569   2 
   4   7   9 -0.1418 4.98623   1 
   5   7   9 48.6448 7.48387   1 
   5   7   9 11.0920 5.12143   2 
   6   7   9 22.0458 5.16374   2 
   6   7   9 51.6728 8.25767   1 
   7   7   9 8.51104 9.67526   2 
   7   7   9 28.8192 8.04155   1 
   8   7   9 67.8338 9.98553   1 
   8   7   9 19.9768 10.7520   2 
   9   7   9 20.3178 11.2623   2 
   9   7   9 14.0719 8.24207   1 
  10   7   9 19.5962 12.3274   1 
  -8   8   0 0.60389 20.7743  -2 
  10   7   9 0.60389 20.7743   1 
  10   7   9 -3.7446 10.2577   2 
  11   7   9 0.78154 9.95424   2 
  11   7   9 35.6220 10.0729   1 
  12   7   9 11.7845 11.6266   2 
  12   7   9 1.60730 8.72929   1 
  13   7   9 4.70869 12.8186   2 
  13   7   9 9.87245 10.5159   1 
  -9   8   9 77.1185 15.4833   1 
  -9   8   9 32.3876 14.4938   2 
  -8   8   9 3.07574 9.61134   1 
  -7   8   9 52.6367 12.0401   1 
  -7   8   9 35.9200 9.33323   2 
  -6   8   9 3.12352 8.96150   1 
  -6   8   9 16.7365 7.84307   2 
  -5   8   9 -3.4109 6.56845   2 
  -5   8   9 5.18890 9.56436   1 
  -4   8   9 -1.4407 8.49069   1 
  -4   8   9 2.35740 5.89604   2 
  -3   8   9 2.28737 8.52385   1 
  -3   8   9 -2.8544 5.94653   2 
  -2   8   9 20.4666 8.88306   1 
  -2   8   9 3.98923 5.50480   2 
  -1   8   9 146.402 13.9004   1 
  -1   8   9 72.4498 7.61288   2 
   0   8   9 24.4795 3.49974   1 
   0   8   9 11.9746 5.73964   2 
   1   8   9 52.2413 6.73196   2 
   1   8   9 87.5589 6.77491   1 
   2   8   9 95.0462 7.51000   2 
   0  10   3 169.353 9.98183  -2 
   2   8   9 169.353 9.98183   1 
   3   8   9 53.0706 6.98293   1 
   3   8   9 22.6946 5.37588   2 
   4   8   9 141.605 9.50171   1 
   4   8   9 64.5411 6.50423   2 
   5   8   9 1.12708 4.29085   2 
   5   8   9 -10.433 5.86487   1 
   6   8   9 1.09618 9.19021   2 
  -4   9   1 52.7544 11.4724  -2 
   6   8   9 52.7544 11.4724   1 
   7   8   9 12.0472 7.03307   1 
   7   8   9 4.71373 9.51693   2 
   8   8   9 -5.0400 6.76400   1 
   8   8   9 -14.341 9.57870   2 
   9   8   9 -1.1469 7.05156   1 
   9   8   9 -13.461 9.42939   2 
  10   8   9 17.1151 10.6224   2 
  10   8   9 8.84414 9.02608   1 
  11   8   9 14.3967 10.5556   2 
  11   8   9 14.1774 9.08700   1 
  12   8   9 32.4787 10.2479   1 
  12   8   9 20.9264 12.4327   2 
  13   8   9 -10.352 15.2822   1 
  -9   9   9 1.19706 12.7391   2 
  -9   9   9 -9.7085 10.1786   1 
  -8   9   9 26.7634 12.1606   1 
  -8   9   9 6.47414 8.57885   2 
  -7   9   9 -3.6439 8.16393   1 
  -7   9   9 -8.7023 8.06127   2 
  -6   9   9 0.55392 7.03962   2 
  -6   9   9 8.85870 9.78420   1 
  -5   9   9 16.5129 7.38287   2 
  -5   9   9 42.5333 11.0148   1 
  -4   9   9 41.0026 10.5799   1 
  -4   9   9 1.82454 6.40633   2 
  -3   9   9 54.1871 11.7754   1 
  -3   9   9 18.1122 6.55207   2 
  -2   9   9 10.2012 6.04296   2 
  -2   9   9 35.1454 10.0752   1 
  -1   9   9 29.9235 6.56545   2 
  -1   9   9 95.7033 12.5408   1 
   0   9   9 108.573 12.7614   1 
   1   9   9 39.3460 5.88017   1 
   1   9   9 18.8701 5.69478   2 
   2   9   9 81.3434 7.40392   1 
   3   9   9 -3.6512 5.36399   1 
   3   9   9 2.11905 4.59981   2 
   4   9   9 4.04668 4.21922   2 
   4   9   9 -2.2888 5.82384   1 
   5   9   9 18.5497 10.4874   2 
   5   9   9 44.3918 7.73438   1 
   6   9   9 76.4079 9.10361   1 
   6   9   9 36.1624 11.6199   2 
   7   9   9 -16.572 6.29192   1 
   7   9   9 9.98052 10.2314   2 
   8   9   9 32.0289 8.50635   1 
   8   9   9 6.52947 10.2591   2 
   9   9   9 0.28698 7.98455   1 
   9   9   9 -0.3684 10.9032   2 
  10   9   9 -2.7872 10.7248   2 
  10   9   9 39.6606 9.90450   1 
  11   9   9 5.70498 9.15221   1 
  11   9   9 0.35693 10.9250   2 
  12   9   9 13.9492 9.43556   1 
  12   9   9 8.03023 11.8753   2 
  -8  10   9 -1.1578 8.61124   2 
  -7  10   9 9.81464 8.71223   2 
  -7  10   9 -18.381 9.05174   1 
  -6  10   9 14.0765 10.5004   1 
  -6  10   9 21.1372 8.82320   2 
  -5  10   9 -0.0680 6.60614   2 
  -5  10   9 11.7591 9.67613   1 
  -4  10   9 38.5755 8.12144   2 
  -4  10   9 107.448 13.9321   1 
  -3  10   9 8.80015 6.51748   2 
  -3  10   9 8.47907 9.41749   1 
  -2  10   9 29.3371 9.95161   1 
  -2  10   9 12.7339 6.12181   2 
  -1  10   9 17.5361 6.46678   2 
  -1  10   9 49.9270 10.9604   1 
   0  10   9 5.43220 5.50553   2 
   0  10   9 7.71122 9.06551   1 
   2  11   2 91.6488 16.4856  -2 
   1  10   9 91.6488 16.4856   1 
   1  10   9 34.0878 6.51125   2 
   2  10   9 24.0094 5.75042   1 
   2  10   9 16.2558 5.62004   2 
   3  10   9 0.35757 4.63799   2 
   3  10   9 30.2369 6.72628   1 
   4  10   9 46.4449 7.47426   1 
   4  10   9 24.7026 10.5217   2 
   5  10   9 3.72154 9.85681   2 
   5  10   9 -9.4549 6.11301   1 
  -3  10   0 22.2776 20.8299  -2 
   6  10   9 22.2776 20.8299   1 
   6  10   9 3.36313 9.82282   2 
   6  10   9 8.91442 9.14442   1 
   4 -10   1 28.5103 18.0745  -2 
   7  10   9 28.5103 18.0745   1 
   7  10   9 -2.6696 10.1920   2 
   7  10   9 0.19596 10.4801   1 
   8  10   9 6.35593 10.0489   2 
   8  10   9 2.01281 7.58301   1 
   9  10   9 51.4467 10.3807   1 
   9  10   9 20.0603 11.3692   2 
  10  10   9 -2.8273 8.95378   1 
  10  10   9 -12.613 10.2692   2 
  11  10   9 10.9695 11.4585   2 
  11  10   9 -0.2412 8.83101   1 
  12  10   9 -10.270 9.02942   1 
  12  10   9 8.13810 12.4810   2 
  -8  11   9 -10.407 13.4980   2 
  -7  11   9 -7.2476 10.5636   2 
  -6  11   9 9.15562 7.79596   2 
  -5  11   9 56.9368 12.1570   1 
  -5  11   9 28.5932 8.30969   2 
  -4  11   9 5.19319 8.74100   1 
  -4  11   9 12.5404 7.45077   2 
  -3  11   9 28.9404 7.65586   2 
  -3  11   9 106.834 13.9412   1 
  -2  11   9 38.9211 7.81783   2 
  -2  11   9 50.2257 11.2400   1 
  -1  11   9 14.1691 6.33790   2 
  -1  11   9 61.3213 11.9389   1 
   0  11   9 -0.6660 5.27207   2 
   0  11   9 -9.0001 8.47056   1 
   1  11   9 48.1493 11.3077   1 
   1  11   9 13.6828 6.11675   2 
   2  11   9 0.68968 5.55001   1 
   2  11   9 -6.4461 7.97394   2 
   3  11   9 144.261 9.82495   1 
   3  11   9 94.9910 14.6696   2 
   4  11   9 7.30289 6.51646   1 
   4  11   9 11.5869 10.0350   2 
   5  11   9 195.723 12.1682   1 
   5  11   9 88.2449 14.0285   2 
   6  11   9 5.46139 9.44283   2 
   6  11   9 1.19405 7.29223   1 
   7  11   9 7.97530 11.0290   2 
   7  11   9 18.0524 8.05590   1 
   8  11   9 -0.2955 7.56301   1 
   8  11   9 0.29656 10.5629   2 
   9  11   9 -2.1850 8.28701   1 
   9  11   9 -10.195 9.18667   2 
  10  11   9 11.6996 9.66771   1 
  10  11   9 4.39807 11.1566   2 
  11  11   9 2.39647 9.11173   1 
  11  11   9 -0.4999 10.2807   2 
  12  11   9 -4.1292 10.1728   1 
  12  11   9 -5.6938 11.6800   2 
  -7  12   9 4.67062 8.80286   2 
  -6  12   9 6.22099 8.90326   2 
  -5  12   9 8.76966 7.87631   2 
  -4  12   9 3.96051 7.08299   2 
  -3  12   9 8.67257 9.38121   1 
  -3  12   9 3.11188 6.76114   2 
  -2  12   9 47.7405 11.0944   1 
  -2  12   9 16.0256 7.27912   2 
  -1  12   9 20.7368 6.79330   2 
   0  12   9 -8.4631 6.01892   2 
   0  12   9 8.57121 9.55863   1 
   1  12   9 16.0430 10.1519   1 
   2  12   9 30.8628 10.3753   1 
   2  12   9 25.8739 11.4318   2 
   3  12   9 12.5020 9.49371   2 
   3  12   9 6.02678 6.60690   1 
   4  12   9 34.8707 11.7019   2 
   4  12   9 81.3517 9.08983   1 
   5  12   9 9.57129 7.43407   1 
   5  12   9 8.81000 10.1285   2 
   6  12   9 13.7628 7.85270   1 
   6  12   9 2.51366 10.6272   2 
   7  12   9 -3.0512 10.1386   2 
   7  12   9 14.2419 8.03892   1 
   8  12   9 -2.1415 7.73413   1 
   8  12   9 -6.8253 10.1581   2 
   9  12   9 11.4892 9.11683   1 
   9  12   9 -12.352 10.5852   2 
  10  12   9 -16.724 10.2380   2 
  10  12   9 28.2411 10.3356   1 
  11  12   9 -0.1082 8.82819   1 
  11  12   9 1.28429 12.7806   2 
  -6  13   9 7.97189 8.44490   2 
  -5  13   9 7.18870 8.42677   2 
  -4  13   9 0.15558 7.56636   2 
  -3  13   9 3.48929 7.12936   2 
  -2  13   9 4.28614 7.09093   2 
  -2  13   9 18.4353 10.1194   1 
  -1  13   9 7.19118 9.41192   1 
  -1  13   9 3.46563 6.61191   2 
   0  13   9 65.1847 12.4628   1 
   1  13   9 16.4067 11.7358   2 
   1  13   9 10.3278 10.2484   1 
   2  13   9 7.69659 9.28496   1 
   2  13   9 16.0785 12.1861   2 
  -1 -12   1 34.3456 18.5966  -2 
   3  13   9 34.3456 18.5966   1 
   3  13   9 3.08440 10.7037   2 
   0 -12   1 20.1142 15.5349  -2 
   4  13   9 20.1142 15.5349   1 
   4  13   9 -7.1489 9.40478   2 
   4  13   9 0.19408 9.35897   1 
   5  13   9 12.7290 11.2866   2 
   5  13   9 17.6428 7.97325   1 
   6  13   9 19.2372 8.51427   1 
   6  13   9 6.94849 11.0065   2 
   7  13   9 0.41854 7.89360   1 
   7  13   9 17.5657 11.6032   2 
   8  13   9 12.5596 8.88647   1 
   8  13   9 7.25752 11.5324   2 
   9  13   9 7.03866 9.44654   1 
   9  13   9 11.8413 12.0665   2 
  10  13   9 -10.827 9.03320   1 
  10  13   9 -16.106 9.74769   2 
  -5  14   9 -5.1917 8.24716   2 
  -4  14   9 20.2667 9.06593   2 
  -3  14   9 20.4551 8.05516   2 
  -2  14   9 10.4229 7.29215   2 
  -1  14   9 34.6729 13.2930   2 
   0  14   9 1.79538 9.39557   1 
   0  14   9 -5.1869 11.2008   2 
   1  14   9 -2.4096 9.46402   2 
   1  14   9 22.6672 10.4348   1 
   2  14   9 7.14836 10.6400   2 
   2  14   9 -11.599 8.86753   1 
   3  14   9 2.18473 9.69361   1 
   3  14   9 -9.5943 10.5366   2 
   4  14   9 -5.4893 11.1359   2 
   5  14   9 5.96993 11.2855   2 
   5  14   9 -3.9238 7.70505   1 
   6  14   9 -0.2149 8.22342   1 
   6  14   9 8.30070 12.0926   2 
   7  14   9 2.45203 11.9694   2 
   7  14   9 22.1656 9.46495   1 
   8  14   9 -2.0455 9.15921   1 
   9  14   9 7.48819 9.35365   1 
   9  14   9 -4.1223 10.9878   2 
  10  14   9 3.29784 10.9774   2 
  10  14   9 1.52133 9.67744   1 
  -3  15   9 22.6091 14.8134   2 
  -2  15   9 4.51720 12.8971   2 
  -1  15   9 18.4263 12.8067   2 
   0  15   9 -0.2656 12.0166   2 
   1  15   9 -7.1874 11.1319   2 
   2  15   9 -3.8209 12.5583   2 
   3  15   9 -16.795 10.0615   2 
   3  15   9 8.79463 10.0688   1 
   4  15   9 -4.1644 9.27873   1 
   4  15   9 10.8672 12.7781   2 
   5  15   9 0.98816 8.10787   1 
   5  15   9 6.30212 11.3157   2 
   6  15   9 5.86922 8.59481   1 
   6  15   9 -6.1382 10.4315   2 
   7  15   9 17.5403 9.35534   1 
   7  15   9 -3.1402 11.2622   2 
   8  15   9 13.3289 9.39057   1 
   8  15   9 7.13450 11.7613   2 
   9  15   9 7.39300 13.6385   1 
  -1  16   9 0.53165 13.2809   2 
   0  16   9 -2.4024 12.3017   2 
   2  16   9 -3.1705 13.0381   2 
   3  16   9 -4.5905 11.7214   2 
   4  16   9 7.71131 13.2402   2 
   5  16   9 19.4426 12.5904   1 
   5  16   9 9.20295 13.1168   2 
   1 -13   4 38.0200 18.9009  -2 
   6  16   9 38.0200 18.9009   1 
   6  16   9 31.6080 13.7071   1 
   6  16   9 22.5193 13.4994   2 
   7  16   9 7.76211 12.7970   1 
   7  16   9 -5.3342 11.4192   2 
   3  17   9 -8.6049 12.8365   2 
  -4  -8  10 5.08886 14.1475   1 
  -4  -8  10 1.66803 12.8510   2 
  -3  -8  10 16.9069 13.6371   2 
  -3  -8  10 -11.199 10.7593   1 
  -2  -8  10 -4.9022 13.0845   2 
  -2  -8  10 -2.7627 12.6130   1 
  -1  -8  10 -8.2973 12.2052   2 
  -1  -8  10 0.88321 12.2675   1 
   0  -8  10 8.29879 12.9971   1 
   0  -8  10 2.68810 11.9003   2 
   1  -8  10 -12.339 10.4716   1 
   1  -8  10 6.36399 12.7405   2 
   2  -8  10 22.3281 14.3946   2 
   2  -8  10 16.1324 13.0325   1 
   3  -8  10 2.65640 13.8945   1 
   3  -8  10 -4.8098 7.82473   2 
  -6  -7  10 -1.8250 12.6114   1 
  -6  -7  10 -2.6134 13.3868   2 
  -5  -7  10 6.35235 12.7231   1 
  -5  -7  10 -2.1339 13.4862   2 
  -4  -7  10 5.84653 11.4339   1 
  -4  -7  10 2.11353 12.6745   2 
  -3  -7  10 -0.4830 12.8595   2 
  -3  -7  10 -12.178 11.5050   1 
  -2  -7  10 25.3551 13.9777   2 
  -2  -7  10 72.3973 15.3390   1 
  -1  -7  10 -10.000 12.9084   1 
  -1  -7  10 9.04962 13.2914   2 
   0  -7  10 17.6450 13.9480   2 
   0  -7  10 42.8017 13.3596   1 
   1  -7  10 -2.0064 12.5029   2 
   1  -7  10 5.57440 11.6171   1 
   2  -7  10 -4.4439 10.9720   1 
   2  -7  10 -14.473 9.48093   2 
   3  -7  10 -7.3715 7.87002   2 
   3  -7  10 0.39530 12.1632   1 
   4  -7  10 -16.255 12.2079   1 
   4  -7  10 -2.6201 8.09674   2 
   5  -7  10 4.40296 9.06736   2 
   5  -7  10 19.7871 14.2835   1 
  -7  -6  10 -1.2493 9.15576   1 
  -7  -6  10 18.9941 13.1770   2 
  -6  -6  10 -1.5441 12.7533   2 
  -6  -6  10 8.47099 8.74319   1 
  -5  -6  10 1.61381 8.46422   1 
  -5  -6  10 10.0720 12.9714   2 
  -4  -6  10 -0.5244 8.02729   1 
  -4  -6  10 -1.8429 12.5573   2 
  -3  -6  10 22.3862 11.6987   1 
  -3  -6  10 4.85841 12.2492   2 
  -2  -6  10 -3.9728 10.7438   2 
  -2  -6  10 -4.7118 11.4679   1 
  -1  -6  10 33.0917 14.0448   2 
  -1  -6  10 61.9964 14.4245   1 
   0  -6  10 -9.6819 9.67266   1 
   0  -6  10 4.55197 11.3299   2 
   1  -6  10 35.6806 12.8756   1 
   2  -6  10 15.7588 7.95769   2 
   2  -6  10 67.5159 14.6840   1 
   3  -6  10 4.27603 7.11252   2 
   3  -6  10 -1.7213 10.9921   1 
   4  -6  10 -12.070 12.0820   1 
   4  -6  10 10.6126 8.12341   2 
   5  -6  10 -18.189 12.4987   1 
   5  -6  10 3.84223 7.91161   2 
   6  -6  10 -4.4110 12.6423   1 
   6  -6  10 11.7324 8.11515   2 
   7  -6  10 -5.9064 9.79208   2 
   7  -6  10 43.9636 17.6388   1 
  -8  -5  10 -19.515 11.4068   2 
  -8  -5  10 0.65199 9.03013   1 
  -7  -5  10 -5.5674 11.6000   2 
  -7  -5  10 20.1968 9.37232   1 
  -6  -5  10 2.87222 8.34645   1 
  -6  -5  10 16.5802 13.3140   2 
  -5  -5  10 21.8560 11.9033   2 
  -5  -5  10 57.0638 10.2449   1 
  -4  -5  10 34.5348 8.98892   1 
  -4  -5  10 13.2110 13.1205   2 
  -3  -5  10 31.0435 8.36653   1 
  -3  -5  10 15.7789 13.0187   2 
  -1   5  14 54.6362 12.2654  -2 
  -2  -5  10 54.6362 12.2654   1 
  -2  -5  10 21.6625 12.9060   2 
  -1  -5  10 -2.5251 10.0370   1 
  -1  -5  10 14.3963 12.8566   2 
   0  -5  10 61.3785 13.1272   1 
   1  -5  10 0.72931 6.28888   2 
   1  -5  10 -11.543 8.93426   1 
   2  -5  10 -2.8541 6.64394   2 
  -5   4  12 0.57048 13.2954  -2 
   2  -5  10 0.57048 13.2954   1 
   3  -5  10 6.25809 7.08129   2 
   3  -5  10 4.91984 11.3884   1 
   4  -5  10 3.58175 11.9931   1 
   4  -5  10 0.60301 7.67540   2 
   5  -5  10 40.3871 15.0296   1 
   5  -5  10 6.40450 8.08893   2 
   6  -5  10 3.32005 12.9954   1 
   6  -5  10 20.8947 9.14889   2 
   7  -5  10 8.13027 13.8452   1 
   7  -5  10 12.0546 8.54094   2 
   8  -5  10 24.7462 9.89502   2 
 -11   3   9 32.6560 30.7977  -2 
   8  -5  10 32.6560 30.7977   1 
  -9  -4  10 15.6729 8.61607   1 
  -9  -4  10 17.0802 13.6152   2 
  -8  -4  10 17.1337 8.72209   1 
  -8  -4  10 16.2152 11.8736   2 
  -7  -4  10 17.4678 13.0347   2 
  -7  -4  10 14.4439 8.77661   1 
  -6  -4  10 28.9174 8.76089   1 
  -5  -4  10 6.96419 7.87614   1 
  -5  -4  10 -5.1850 11.2729   2 
  -4  -4  10 14.7166 11.4822   2 
  -4  -4  10 50.8618 8.96622   1 
  -3  -4  10 -3.9824 10.6393   2 
  -3  -4  10 3.87684 7.18655   1 
  -2  -4  10 -10.571 10.3358   2 
  -2  -4  10 15.3091 7.20506   1 
  -1  -4  10 55.5724 13.5647   2 
  -1  -4  10 23.8237 7.31639   1 
   0  -4  10 10.6087 6.90789   1 
   0  -4  10 -10.378 5.61255   2 
   1  -4  10 -2.8891 4.96126   2 
   1  -4  10 -6.1738 9.01911   1 
   2  -4  10 17.6241 8.04690   2 
   2  -4  10 54.4523 13.1887   1 
   3  -4  10 -0.6395 5.31577   2 
   3  -4  10 16.3236 11.7310   1 
   4  -4  10 29.1721 6.74765   2 
   4  -4  10 105.505 16.7309   1 
   5  -4  10 -4.5941 5.74503   2 
   5  -4  10 -23.216 9.10953   1 
   6  -4  10 0.37835 6.44562   2 
   6  -4  10 16.2604 12.5148   1 
   7  -4  10 16.1905 7.13075   2 
   7  -4  10 31.7211 14.3680   1 
   8  -4  10 9.40526 9.37242   2 
   8  -4  10 -14.311 12.6887   1 
   9  -4  10 5.62755 7.81153   2 
   9  -4  10 -0.9101 14.9205   1 
  -9  -3  10 2.48854 12.0723   2 
  -9  -3  10 -6.1237 13.6634   1 
  -8  -3  10 44.1643 9.43087   1 
  -8  -3  10 3.63052 10.9326   2 
  -7  -3  10 3.57938 11.1256   2 
  -7  -3  10 2.45747 7.54404   1 
  -6  -3  10 2.07604 10.7973   2 
  -6  -3  10 10.0293 7.68696   1 
  -5  -3  10 17.6411 11.6205   2 
  -5  -3  10 14.4672 8.09704   1 
  -4  -3  10 -6.6238 6.83507   1 
  -4  -3  10 3.26884 10.8678   2 
  -3  -3  10 2.65749 6.55132   1 
  -3  -3  10 -3.2018 9.13896   2 
  -2  -3  10 19.5623 7.25103   1 
  -2  -3  10 13.2259 10.5693   2 
  -1  -3  10 13.1364 7.19846   1 
  -1  -3  10 12.8735 11.0401   2 
   0  -3  10 49.7257 8.16701   1 
   1  -3  10 17.3139 7.43645   2 
   1  -3  10 29.0147 7.29402   1 
   2  -3  10 19.5529 7.02907   1 
   3  -3  10 96.6834 14.7404   1 
   3  -3  10 32.5497 8.18321   2 
   4  -3  10 9.11543 7.55626   2 
   4  -3  10 13.2313 11.0616   1 
   5  -3  10 92.7651 15.6013   1 
   5  -3  10 47.7937 9.43890   2 
   6  -3  10 4.60367 7.64058   2 
   6  -3  10 11.4203 11.3361   1 
   7  -3  10 9.51783 6.61131   2 
   7  -3  10 8.10146 12.0801   1 
   8  -3  10 2.20745 6.56366   2 
 -10   4   8 0.33536 18.9261  -2 
   8  -3  10 0.33536 18.9261   1 
   9  -3  10 5.74170 7.35658   2 
   9  -3  10 29.6233 14.6445   1 
 -10  -2  10 5.05043 15.0800   1 
  -9  -2  10 28.8965 13.2459   2 
  -9  -2  10 21.1102 15.0677   1 
  -8  -2  10 -4.3370 12.7437   1 
  -8  -2  10 -11.758 11.1381   2 
  -7  -2  10 5.02532 6.86328   1 
  -6  -2  10 5.91098 7.50852   1 
  -6  -2  10 0.89014 10.0157   2 
  -5  -2  10 -4.6262 9.31935   2 
  -5  -2  10 -1.0673 6.75974   1 
  -4  -2  10 0.78837 8.32296   1 
   2   7  13 -13.404 16.2586  -2 
  -4  -2  10 -13.404 16.2586   1 
  -4  -2  10 13.3068 10.5626   2 
  -3  -2  10 85.7460 9.34670   1 
  -3  -2  10 33.5909 11.2237   2 
  -2  -2  10 -3.9709 5.93944   1 
  -2  -2  10 13.0353 9.79931   2 
  -1  -2  10 195.519 10.9390   1 
  -1  -2  10 83.2185 13.6979   2 
  -2   6  11 50.5472 9.95057  -2 
   0  -2  10 50.5472 9.95057   1 
   0  -2  10 1.05259 5.65578   2 
   1  -2  10 179.186 10.7940   1 
   1  -2  10 80.0715 12.3492   2 
   2  -2  10 14.1793 6.84527   1 
   2  -2  10 6.68830 6.41751   2 
   3  -2  10 0.64891 6.32870   2 
   3  -2  10 17.5156 6.99881   1 
   4  -2  10 -6.8618 6.59416   2 
   4  -2  10 11.7419 10.0488   1 
  -6   5   9 17.1821 16.4049  -2 
   4  -2  10 17.1821 16.4049   1 
   5  -2  10 28.0035 11.1830   1 
   5  -2  10 11.7525 7.10337   2 
   6  -2  10 20.2227 7.80474   2 
   6  -2  10 85.5153 14.5199   1 
   7  -2  10 12.6532 7.94397   2 
   7  -2  10 28.3999 13.1662   1 
   8  -2  10 -0.0039 7.46352   2 
   8  -2  10 -3.4878 12.0919   1 
   9  -2  10 30.5775 14.4407   1 
   9  -2  10 22.8667 9.35349   2 
  10  -2  10 13.5944 14.8785   1 
  10  -2  10 2.44855 7.34193   2 
 -10  -1  10 -4.3182 13.4037   1 
 -10  -1  10 11.3704 13.3094   2 
  -9  -1  10 7.70131 11.9819   2 
  -9  -1  10 12.5970 15.0730   1 
  -8  -1  10 11.9920 11.2923   2 
  -8  -1  10 26.1803 14.2500   1 
  -7  -1  10 13.6224 7.59256   1 
  -7  -1  10 22.9928 11.3251   2 
  -6  -1  10 -7.8565 6.95098   1 
  -6  -1  10 7.15815 10.6740   2 
  -5  -1  10 80.3222 8.80917   1 
  -5  -1  10 18.1778 10.1775   2 
  -4  -1  10 11.9141 9.60635   2 
  -4  -1  10 8.17630 6.80166   1 
  -3  -1  10 47.5685 11.2445   2 
  -3  -1  10 97.1256 9.08542   1 
  -2  -1  10 97.6473 8.91532   1 
  -2  -1  10 46.3218 11.5914   2 
  -1  -1  10 30.5270 7.08045   1 
  -1  -1  10 12.2484 6.04825   2 
   0  -1  10 230.511 11.2652   1 
   0  -1  10 111.134 8.81683   2 
   1  -1  10 37.7985 7.62194   1 
   1  -1  10 13.7584 7.03339   2 
   2  -1  10 61.0071 7.78681   1 
   2  -1  10 22.1778 6.88919   2 
   3  -1  10 5.85278 6.26991   2 
   3  -1  10 0.36973 5.96848   1 
   4  -1  10 12.3712 6.68231   2 
   4  -1  10 5.82808 6.35692   1 
   5  -1  10 14.6392 6.77700   1 
   5  -1  10 -6.4165 6.55276   2 
   6  -1  10 30.8786 7.73644   1 
   6  -1  10 4.41640 6.98714   2 
   7  -1  10 -19.453 9.95244   1 
   8  -1  10 25.7382 8.55221   2 
   8  -1  10 84.9316 16.1344   1 
   9  -1  10 22.0629 14.8939   1 
   9  -1  10 -1.6969 11.0042   2 
  10  -1  10 14.3374 8.54346   2 
  10  -1  10 27.8040 14.7321   1 
  11  -1  10 -3.2014 8.35652   2 
  11  -1  10 6.83623 15.4908   1 
 -10   0  10 3.10226 12.4107   2 
 -10   0  10 2.81660 14.2362   1 
  -9   0  10 10.9968 11.8039   2 
  -9   0  10 -10.182 13.1710   1 
  -8   0  10 1.73496 11.1385   2 
  -8   0  10 9.48512 12.7540   1 
  -7   0  10 25.4724 12.5486   1 
  -7   0  10 0.06818 9.42409   2 
  -6   0  10 56.6553 8.23872   1 
  -6   0  10 6.33459 10.0429   2 
  -5   0  10 28.9174 7.12456   1 
  -5   0  10 21.3429 10.2538   2 
  -4   0  10 43.2255 7.55240   1 
  -4   0  10 18.9613 9.64531   2 
  -3   0  10 48.0255 11.4870   2 
  -3   0  10 126.908 9.45200   1 
  -2   0  10 48.0536 6.46268   2 
  -2   0  10 116.518 8.86857   1 
  -1   0  10 9.08072 5.71828   2 
  -1   0  10 26.1539 6.81003   1 
   0   0  10 -3.1219 5.42759   2 
   0   0  10 17.0837 6.36303   1 
   1   0  10 9.81242 5.87992   1 
   2   0  10 -0.8545 5.88204   2 
   2   0  10 13.6543 5.79709   1 
   3   0  10 1.53516 5.61397   1 
   3   0  10 -10.447 5.57448   2 
   4   0  10 20.9508 6.83691   2 
  -5   6   8 53.5216 10.6971  -2 
   4   0  10 53.5216 10.6971   1 
   5   0  10 19.2869 6.92858   1 
   5   0  10 5.39924 6.41971   2 
   6   0  10 9.91960 6.75633   2 
   6   0  10 48.9026 11.0571   1 
  -7   6   7 112.981 19.7184  -2 
   6   0  10 112.981 19.7184   1 
   7   0  10 44.2697 8.64679   1 
   7   0  10 12.2076 7.16300   2 
   8   0  10 7.51875 7.11214   2 
   8   0  10 6.11329 7.78318   1 
   9   0  10 39.5283 8.69407   2 
   9   0  10 57.7241 14.4652   1 
  10   0  10 -2.5877 8.07613   2 
 -11   5   5 48.6682 20.9434  -2 
  10   0  10 48.6682 20.9434   1 
  11   0  10 4.91060 8.29837   2 
  11   0  10 25.0590 15.6198   1 
 -10   1  10 12.8029 13.9237   2 
 -10   1  10 36.6779 15.7022   1 
  -9   1  10 -14.992 12.0657   1 
  -9   1  10 -0.9914 11.6097   2 
  -8   1  10 23.5534 11.7559   2 
   7   9  13 90.6466 21.4095  -2 
  -8   1  10 90.6466 21.4095   1 
  -7   1  10 24.8908 11.7824   1 
  -7   1  10 18.0808 10.9980   2 
  -6   1  10 10.8116 10.9110   1 
  -6   1  10 7.33055 9.96491   2 
  -5   1  10 42.9082 7.27397   1 
  -5   1  10 12.0661 8.96235   2 
  -4   1  10 10.7747 5.96637   1 
  -4   1  10 17.1008 9.25296   2 
  -3   1  10 23.7235 6.45516   1 
  -3   1  10 18.6974 8.91338   2 
  -2   1  10 12.9625 5.49113   2 
  -2   1  10 25.3191 6.40918   1 
  -1   1  10 3.49374 5.56584   2 
  -1   1  10 8.04883 6.29685   1 
   0   1  10 79.2132 7.77131   1 
   1   1  10 21.7685 6.18865   2 
   1   1  10 56.5564 7.05492   1 
   2   1  10 18.5216 6.22668   1 
   2   1  10 9.11440 6.07126   2 
   3   1  10 74.0639 7.93462   2 
   3   1  10 168.192 10.0457   1 
   4   1  10 10.5597 6.18960   1 
   4   1  10 4.14659 5.86178   2 
   5   1  10 55.1862 7.97721   2 
   5   1  10 139.841 9.73665   1 
   6   1  10 25.6980 7.63559   1 
   6   1  10 16.6190 6.65131   2 
   7   1  10 19.9525 7.65520   1 
   7   1  10 7.98706 6.63696   2 
   8   1  10 16.5358 7.34641   2 
   8   1  10 50.9766 9.43989   1 
   9   1  10 17.4015 9.08292   1 
   9   1  10 5.56874 9.82190   2 
  10   1  10 14.5087 9.15589   1 
  10   1  10 2.72166 7.21174   2 
  11   1  10 -8.0766 13.3986   1 
  11   1  10 3.85582 7.92443   2 
 -10   2  10 9.81615 13.9334   1 
 -10   2  10 0.14130 14.3241   2 
  -9   2  10 61.3318 16.2467   1 
  -8   2  10 -8.3036 10.5096   2 
  -8   2  10 11.2362 11.8116   1 
  -7   2  10 35.4640 12.3200   1 
  -7   2  10 21.3321 11.5038   2 
  -6   2  10 0.32443 9.45232   1 
  -6   2  10 12.1127 10.1391   2 
  -5   2  10 4.60488 9.46975   2 
  -5   2  10 9.34072 10.9172   1 
  -4   2  10 15.5425 6.03500   1 
  -4   2  10 10.0943 8.42874   2 
  -3   2  10 8.42382 5.15072   2 
  -3   2  10 25.5678 6.13742   1 
  -2   2  10 8.04281 5.23888   2 
  -2   2  10 14.2006 5.85046   1 
  -1   2  10 130.293 8.90590   1 
  -1   2  10 73.8381 7.26911   2 
   0   2  10 98.2861 7.92450   1 
   0   2  10 49.2594 6.70143   2 
   1   2  10 129.564 8.56952   2 
   1   2  10 302.096 11.0292   1 
   2   2  10 115.505 8.52686   1 
   2   2  10 43.2529 6.78288   2 
   3   2  10 12.7404 6.31275   2 
   3   2  10 55.0819 7.40807   1 
   4   2  10 69.9928 8.05348   1 
   4   2  10 48.1370 7.15507   2 
   5   2  10 6.99087 5.74269   2 
   5   2  10 6.38879 5.94889   1 
   6   2  10 21.7152 6.20780   2 
   6   2  10 16.3565 6.95952   1 
   7   2  10 0.85622 6.15471   2 
   7   2  10 -0.0549 7.89752   1 
   8   2  10 2.59105 7.62863   1 
   9   2  10 9.21604 7.10316   2 
   9   2  10 2.50669 7.52177   1 
  10   2  10 3.32183 9.17983   2 
 -10   6   4 10.6928 17.5498  -2 
  10   2  10 10.6928 17.5498   1 
  10   2  10 -1.4137 11.6392   1 
  11   2  10 23.6359 8.74727   2 
  11   2  10 83.3803 12.2573   1 
  12   2  10 2.72319 8.16765   2 
  12   2  10 14.0174 16.5586   1 
 -10   3  10 11.2848 14.5576   2 
 -10   3  10 6.28083 12.6389   1 
  -9   3  10 -0.5042 12.7513   2 
  -9   3  10 24.1767 13.2627   1 
  -8   3  10 23.0797 12.6799   1 
  -8   3  10 5.35594 11.6347   2 
  -7   3  10 22.2077 12.0310   1 
  -6   3  10 30.3040 12.2079   1 
  -6   3  10 1.45454 9.81144   2 
  -5   3  10 42.5171 10.9301   2 
  -5   3  10 107.813 15.1767   1 
  -4   3  10 88.0264 7.15468   1 
  -4   3  10 36.9035 10.7468   2 
  -3   3  10 13.4894 5.48718   1 
  -3   3  10 7.26736 5.29636   2 
   2   9   9 222.614 10.9877  -2 
  -2   3  10 222.614 10.9877   1 
  -2   3  10 94.2381 7.55111   2 
  -1   3  10 137.104 8.35865   1 
  -1   3  10 70.8019 6.93347   2 
   0   3  10 309.222 11.0166   1 
   0   3  10 140.608 8.65647   2 
   1   3  10 1.42247 5.26273   2 
   1   3  10 2.07588 4.82963   1 
   2   3  10 161.581 9.31465   2 
  -2   8   7 383.267 12.6969  -2 
   2   3  10 383.267 12.6969   1 
   3   3  10 3.54207 5.40969   1 
   3   3  10 -7.6871 5.23206   2 
   4   3  10 41.6994 8.78093   1 
   4   3  10 9.70602 5.86620   2 
   5   3  10 -0.0708 5.32326   2 
   5   3  10 18.8658 6.70400   1 
   6   3  10 28.5490 6.84088   2 
   6   3  10 76.5508 8.76339   1 
   7   3  10 3.60745 6.74661   1 
   7   3  10 -8.9324 9.63462   2 
   8   3  10 78.9090 9.86758   1 
   8   3  10 31.8459 7.58727   2 
   9   3  10 4.81848 6.69387   2 
   9   3  10 9.78794 6.76913   1 
  10   3  10 26.4370 8.12071   2 
  10   3  10 84.8733 9.25761   1 
  11   3  10 15.2319 7.65818   1 
  11   3  10 -8.3020 7.10078   2 
  12   3  10 39.9563 11.6378   1 
  12   3  10 -9.5542 12.0982   2 
 -10   4  10 0.24969 14.2015   2 
 -10   4  10 -6.2815 13.3588   1 
  -9   4  10 1.09095 11.7351   1 
  -9   4  10 -3.3874 12.4407   2 
  -8   4  10 -6.6090 10.9348   2 
  -8   4  10 9.18396 11.9333   1 
  -7   4  10 -7.3566 10.0208   2 
  -7   4  10 -3.1512 8.12019   1 
  -6   4  10 -12.070 8.59057   2 
  -6   4  10 38.7342 12.4161   1 
  -5   4  10 95.4519 14.7757   1 
  -5   4  10 53.8961 11.6058   2 
  -4   4  10 7.83438 6.20390   2 
  -4   4  10 43.5081 10.8836   1 
  -3   4  10 230.557 9.06971   1 
  -3   4  10 100.513 8.08229   2 
  -2   4  10 379.381 11.2461   1 
  -2   4  10 205.415 9.92632   2 
  -1   4  10 26.8638 5.84663   2 
  -1   4  10 39.1080 6.10182   1 
   0   4  10 13.1571 5.08286   1 
   0   4  10 -2.1649 5.13400   2 
   1   4  10 61.8153 6.69583   1 
   2   4  10 19.1447 5.56470   1 
   2   4  10 1.68831 5.19296   2 
   3   4  10 14.6488 5.81101   1 
   3   4  10 10.9234 5.85194   2 
   4   4  10 97.8962 8.49989   1 
   4   4  10 30.8679 6.54459   2 
   5   4  10 22.8823 6.60620   1 
   5   4  10 -6.8808 5.38771   2 
   6   4  10 29.4858 6.03460   1 
   6   4  10 4.38568 5.43287   2 
   7   4  10 33.5879 6.40998   1 
   7   4  10 21.6303 6.45568   2 
   8   4  10 29.8649 6.73685   1 
   8   4  10 10.2113 6.18977   2 
   9   4  10 32.0864 7.48411   2 
   9   4  10 63.4811 8.25184   1 
  10   4  10 -1.1413 6.51184   2 
  10   4  10 15.6251 7.09027   1 
  11   4  10 4.46538 12.8832   2 
  11   4  10 20.2432 8.04814   1 
  12   4  10 9.03678 8.01614   1 
  12   4  10 -16.092 11.0741   2 
 -10   5  10 6.87489 11.9050   1 
 -10   5  10 17.6756 21.2306   2 
  -9   5  10 5.10515 14.1671   2 
  -9   5  10 13.2625 12.8102   1 
  -8   5  10 -3.3113 11.9681   2 
  -8   5  10 25.8344 12.3894   1 
  -7   5  10 37.0073 12.8933   1 
  -7   5  10 -0.1508 11.1263   2 
  -6   5  10 46.9023 12.7854   2 
  -6   5  10 52.8637 12.9361   1 
  -5   5  10 36.1498 7.30534   2 
  -5   5  10 72.1469 13.9769   1 
  -4   5  10 14.1452 6.09148   2 
  -4   5  10 40.5227 11.1018   1 
  -3   5  10 11.9024 7.28936   2 
  -3   5  10 123.744 14.6759   1 
  -2   5  10 10.5628 4.64187   1 
  -2   5  10 12.8172 5.81131   2 
  -1   5  10 77.7210 6.66755   1 
  -1   5  10 39.1777 6.40720   2 
   0   5  10 -0.2252 4.34534   1 
   0   5  10 3.52054 7.24210   2 
   1   5  10 33.9232 5.73372   1 
   1   5  10 11.0470 8.03926   2 
   2   5  10 9.97374 5.47098   2 
   2   5  10 0.52195 4.38022   1 
   3   5  10 180.202 9.51518   1 
   3   5  10 87.6011 7.54471   2 
   4   5  10 1.44589 4.30200   1 
   4   5  10 -5.5308 5.39809   2 
   5   5  10 102.021 8.35046   2 
   5   5  10 261.111 9.77564   1 
   6   5  10 32.3690 6.08597   1 
   6   5  10 18.1060 5.73510   2 
   7   5  10 37.0221 6.84609   2 
   7   5  10 72.1333 7.51449   1 
  -7   8   3 45.1715 11.6418  -2 
   8   5  10 45.1715 11.6418   1 
   8   5  10 10.6229 6.05054   2 
   9   5  10 9.11643 8.04006   1 
   9   5  10 3.12516 6.06595   2 
  10   5  10 17.9222 7.51820   1 
  10   5  10 27.0249 12.4736   2 
  11   5  10 5.28347 12.4313   2 
  11   5  10 -0.0527 7.14453   1 
  12   5  10 17.3086 9.89489   1 
  12   5  10 -11.351 11.5835   2 
 -11   7   1 -2.2589 20.7798  -2 
  12   5  10 -2.2589 20.7798   1 
 -10   6  10 -1.9772 11.2040   1 
  -9   6  10 27.8704 14.9212   2 
  -9   6  10 41.9867 14.1999   1 
  -8   6  10 -11.078 9.14445   1 
  -8   6  10 14.8942 12.6404   2 
  -7   6  10 32.0303 12.8761   2 
  -7   6  10 58.2218 14.1940   1 
  -6   6  10 6.96249 10.3492   1 
  -5   6  10 34.5669 7.61563   2 
  -5   6  10 85.2948 14.0884   1 
  -4   6  10 14.0067 6.53013   2 
  -4   6  10 17.2110 9.55318   1 
  -3   6  10 -2.3046 5.82886   2 
  -3   6  10 9.44928 8.98407   1 
  -2   6  10 3.84453 5.85185   2 
  -2   6  10 32.5564 10.2155   1 
  -1   6  10 253.549 8.92667   1 
  -1   6  10 115.648 8.68817   2 
   0   6  10 -5.0047 5.09369   2 
   1  10   6 31.7628 7.86756  -2 
   0   6  10 31.7628 7.86756   1 
   1   6  10 19.8053 6.03148   2 
   1   6  10 41.6129 5.75195   1 
   2   6  10 46.8400 6.21023   1 
   2   6  10 23.2833 6.04324   2 
   3   6  10 60.8155 5.79795   1 
   3   6  10 38.5510 6.48462   2 
   4   6  10 46.9021 5.74106   1 
   4   6  10 24.0794 6.26407   2 
   5   6  10 12.2910 5.83587   2 
   5   6  10 53.2318 8.01548   1 
   6   6  10 104.335 9.80208   1 
   6   6  10 47.6229 8.44681   2 
   7   6  10 12.0575 5.83283   2 
   7   6  10 18.7017 7.79990   1 
   8   6  10 30.3896 8.71598   1 
   9   6  10 10.2172 8.35443   1 
   9   6  10 -7.4847 9.73305   2 
  10   6  10 24.2376 9.39439   1 
  10   6  10 18.0248 11.6440   2 
  11   6  10 12.8433 10.1622   1 
  11   6  10 -8.3677 10.7683   2 
  12   6  10 37.5200 14.7874   2 
  12   6  10 22.6009 10.2131   1 
  -9   7  10 5.80388 11.0169   1 
  -9   7  10 -5.7999 12.2428   2 
  -8   7  10 44.9753 13.8221   1 
  -8   7  10 -9.3129 10.4146   2 
  -7   7  10 1.09001 9.58000   1 
  -7   7  10 -1.7471 10.3328   2 
  -6   7  10 22.4452 11.0967   1 
  -6   7  10 10.2972 7.62775   2 
  -5   7  10 86.7708 14.1947   1 
  -5   7  10 39.8726 7.76437   2 
  -4   7  10 -8.7683 8.60757   1 
  -4   7  10 -5.2999 6.22032   2 
  -3   7  10 16.2493 6.51980   2 
  -3   7  10 38.6546 11.2664   1 
  -2   7  10 52.5200 7.47482   2 
  -2   7  10 74.8062 12.4501   1 
  -1   7  10 0.79987 8.19344   1 
  -1   7  10 9.56715 5.97813   2 
   0   7  10 288.208 9.45693   1 
   0   7  10 146.956 9.24892   2 
   1   7  10 6.05789 4.83964   1 
   1   7  10 2.91207 5.78182   2 
   2   7  10 187.745 7.43793   1 
   2   7  10 93.9189 7.81146   2 
   3   7  10 -6.5266 5.26390   2 
   3   7  10 8.19416 5.88974   1 
   4   7  10 59.5560 8.03243   1 
   4   7  10 33.1781 6.39486   2 
   5   7  10 7.49385 5.18797   2 
   5   7  10 4.78368 6.25414   1 
   6   7  10 8.65648 5.46833   2 
   6   7  10 21.2484 7.57417   1 
   7   7  10 -0.8871 6.83514   1 
   7   7  10 7.38009 10.1897   2 
  -6   9   2 110.647 24.5536  -2 
   8   7  10 110.647 24.5536   1 
   8   7  10 52.6770 12.4365   1 
   8   7  10 16.0896 11.4004   2 
   9   7  10 10.6289 8.41290   1 
   9   7  10 23.7904 11.8281   2 
  10   7  10 22.0639 12.1058   2 
  10   7  10 48.2352 10.2577   1 
  11   7  10 18.1801 9.93783   1 
  11   7  10 11.2176 11.6582   2 
  12   7  10 11.1012 10.6379   1 
  12   7  10 -8.8513 10.6859   2 
  -9   8  10 0.15867 11.2099   1 
  -9   8  10 5.17371 12.8424   2 
  -8   8  10 -3.5346 10.0141   1 
  -8   8  10 23.8701 13.6528   2 
  -7   8  10 -2.6834 9.73794   2 
  -7   8  10 7.93796 9.95401   1 
  -6   8  10 31.2120 12.0849   1 
  -6   8  10 15.7590 8.10776   2 
  -5   8  10 -5.4679 8.70920   1 
  -5   8  10 5.76705 7.09345   2 
  -4   8  10 132.315 10.4615   2 
  -4   8  10 252.436 19.0072   1 
  -3   8  10 34.0290 11.5818   1 
  -3   8  10 26.5188 7.19462   2 
  -2   8  10 28.6073 7.17365   2 
  -2   8  10 86.4601 13.2882   1 
  -1   8  10 133.020 14.3876   1 
   2  11   5 45.6192 15.1654  -2 
   0   8  10 45.6192 15.1654   1 
   0   8  10 19.1686 6.25372   2 
   0   8  10 18.2667 5.37988   1 
   1   8  10 96.6080 5.64994   1 
   1   8  10 40.7414 6.62984   2 
   2   8  10 -0.2307 5.17533   1 
   2   8  10 8.41099 5.37461   2 
   3   8  10 19.0567 6.17561   1 
   3   8  10 10.7641 5.53941   2 
   4   8  10 33.9192 9.22617   1 
   4   8  10 11.3262 5.53413   2 
  -2  10   3 136.951 17.9828  -2 
   4   8  10 136.951 17.9828   1 
   5   8  10 2.13540 6.33742   1 
   5   8  10 -0.4378 4.82976   2 
   6   8  10 -0.0354 5.92424   1 
   6   8  10 -10.969 8.84199   2 
   7   8  10 25.7328 8.09553   1 
   7   8  10 32.3677 11.9379   2 
   8   8  10 -5.2574 7.40412   1 
   8   8  10 17.6423 10.8235   2 
   9   8  10 26.2235 12.0032   2 
   9   8  10 70.2086 10.7321   1 
  10   8  10 -0.0683 8.58075   1 
  10   8  10 -3.0773 10.6345   2 
  11   8  10 19.3773 9.63536   1 
  11   8  10 25.7266 13.3657   2 
  12   8  10 -5.7515 9.10850   1 
  -8   9  10 3.77634 10.8286   1 
  -7   9  10 -9.3612 7.91215   2 
  -7   9  10 -13.090 8.88580   1 
  -6   9  10 10.1040 7.86919   2 
  -6   9  10 19.6584 10.9800   1 
  -5   9  10 31.2294 8.03720   2 
  -5   9  10 66.3823 13.0124   1 
  -4   9  10 6.43925 9.58266   1 
  -4   9  10 -1.9650 6.80753   2 
  -3   9  10 60.9647 12.7999   1 
  -3   9  10 23.4276 7.19475   2 
  -2   9  10 26.5782 7.25745   2 
  -2   9  10 65.8582 12.4376   1 
  -1   9  10 -3.1338 5.37650   2 
  -1   9  10 17.9467 10.0197   1 
   0   9  10 58.1547 11.9423   1 
   0   9  10 22.6905 6.51063   2 
   1   9  10 9.52812 5.94729   2 
   1   9  10 10.0239 5.46764   1 
   2   9  10 4.07331 5.35317   2 
   2   9  10 5.04866 5.29571   1 
   3   9  10 29.9359 6.16916   2 
   3   9  10 54.9290 7.45303   1 
   4   9  10 -8.7173 5.32823   1 
   4   9  10 5.87755 4.72219   2 
   5   9  10 103.153 9.55345   1 
   5   9  10 58.9398 13.5961   2 
   6   9  10 -10.367 9.45350   2 
   6   9  10 4.95465 7.04148   1 
   7   9  10 23.6119 7.74204   1 
   8   9  10 0.94206 7.43135   1 
   8   9  10 -2.8299 10.7310   2 
   9   9  10 2.82532 8.72057   1 
  10   9  10 30.1998 10.0873   1 
  10   9  10 1.44360 11.7288   2 
  11   9  10 12.8234 12.9146   2 
  11   9  10 11.4957 9.95252   1 
  12   9  10 -16.318 9.13730   1 
  12   9  10 14.9063 12.7635   2 
  -8  10  10 6.78833 10.9355   1 
  -8  10  10 13.1480 14.3543   2 
  -7  10  10 16.4847 11.4030   1 
  -7  10  10 13.8458 9.20148   2 
  -6  10  10 -2.4417 8.00103   2 
  -6  10  10 13.1120 10.8451   1 
  -5  10  10 6.87172 7.58914   2 
  -5  10  10 15.4405 10.4752   1 
  -4  10  10 9.45932 7.05117   2 
  -4  10  10 -1.5117 9.48240   1 
  -3  10  10 4.18976 9.91918   1 
  -3  10  10 -2.1257 6.73027   2 
  -2  10  10 34.2168 11.0145   1 
  -2  10  10 7.96769 6.07327   2 
  -1  10  10 47.1912 11.4304   1 
  -1  10  10 12.6278 6.22469   2 
   0  10  10 12.5260 8.44421   2 
   0  10  10 -1.2386 9.49306   1 
   1  10  10 38.8364 11.0987   1 
   1  10  10 18.9973 6.42356   2 
   2  10  10 14.6794 6.00025   1 
   2  10  10 1.00190 5.27869   2 
   3  10  10 20.1019 5.77455   2 
   3  10  10 33.7685 7.09808   1 
   4  10  10 94.6532 9.04171   1 
   4  10  10 57.4211 13.2550   2 
   5  10  10 -4.1225 6.62110   1 
   5  10  10 0.22235 9.42410   2 
   6  10  10 47.2465 8.79502   1 
   6  10  10 18.0960 12.1426   2 
   7  10  10 -9.6382 7.31171   1 
   7  10  10 6.73014 10.8861   2 
   8  10  10 65.7637 10.2745   1 
   8  10  10 16.1769 11.7918   2 
   9  10  10 0.80633 10.4078   2 
   9  10  10 5.95850 8.52811   1 
  10  10  10 -2.2718 11.1707   1 
   7 -10   1 27.4811 22.6415  -2 
  10  10  10 27.4811 22.6415   1 
  10  10  10 -3.4853 12.1845   2 
  11  10  10 -17.128 8.60157   1 
  11  10  10 -2.4131 10.9769   2 
  12  10  10 15.2785 11.4276   1 
  12  10  10 -14.088 11.8121   2 
  -7  11  10 5.47317 9.32577   2 
  -6  11  10 3.95272 7.95461   2 
  -6  11  10 8.97916 10.4495   1 
  -5  11  10 17.8040 8.59658   2 
  -5  11  10 15.3298 10.3901   1 
  -4  11  10 4.38096 7.51925   2 
  -4  11  10 13.1053 9.85119   1 
  -3  11  10 24.6990 11.4789   1 
  -3  11  10 -2.7752 10.9122   2 
  -2  11  10 5.09757 6.58077   2 
  -2  11  10 22.1715 9.80246   1 
  -1  11  10 13.1031 10.3190   1 
  -1  11  10 4.89564 9.88804   2 
   0  11  10 54.4616 8.04574   2 
   0  11  10 136.588 15.0782   1 
   1  11  10 43.0013 11.1708   1 
   1  11  10 14.6325 6.16826   2 
   2  11  10 7.06547 9.23653   2 
   1  12   2 53.7267 15.7418  -2 
   2  11  10 53.7267 15.7418   1 
   3  11  10 91.1104 8.68272   1 
   3  11  10 29.8648 12.1446   2 
   4  11  10 16.9865 7.16797   1 
   4  11  10 2.68902 10.0302   2 
   5  11  10 13.7186 11.2456   2 
   5  11  10 8.41070 7.38979   1 
   6  11  10 8.06654 7.70554   1 
   6  11  10 0.24936 10.4945   2 
   7  11  10 21.2306 11.8026   2 
   7  11  10 10.8164 8.05978   1 
   8  11  10 33.6658 9.21662   1 
   8  11  10 5.12372 11.5175   2 
   9  11  10 -2.6955 7.96221   1 
   9  11  10 11.0514 11.8596   2 
  10  11  10 -4.8582 11.5128   2 
  10  11  10 6.24717 9.51051   1 
  11  11  10 -0.5452 11.4800   2 
  11  11  10 5.17364 9.42160   1 
  -6  12  10 5.38225 13.0873   2 
  -5  12  10 -0.7892 8.06845   2 
  -4  12  10 30.5622 11.2468   1 
  -4  12  10 5.41614 8.41356   2 
  -3  12  10 3.93994 9.90519   1 
  -3  12  10 -7.2589 6.63828   2 
  -2  12  10 31.8925 11.5340   1 
  -2  12  10 11.3021 7.24600   2 
  -1  12  10 4.37062 9.04838   1 
  -1  12  10 -1.1443 6.90791   2 
   0  12  10 -6.2071 5.97216   2 
   0  12  10 -11.297 8.55306   1 
   1  12  10 57.0363 12.7527   1 
   1  12  10 20.9024 12.5863   2 
   2  12  10 -0.9591 10.0323   1 
   2  12  10 1.63622 10.4110   2 
   3  12  10 44.6384 11.7217   1 
   3  12  10 20.9060 11.2840   2 
   4  12  10 43.3111 8.20211   1 
   4  12  10 18.3066 11.5458   2 
   5  12  10 43.9973 13.3374   2 
   5  12  10 106.416 10.5067   1 
   6  12  10 -0.4603 10.6641   2 
   6  12  10 6.03575 7.53638   1 
   7  12  10 3.63224 10.9162   2 
   7  12  10 13.0071 8.40726   1 
   8  12  10 -3.9508 8.32038   1 
   8  12  10 5.95378 11.9079   2 
   9  12  10 40.2920 10.0164   1 
   9  12  10 13.6448 12.1751   2 
  10  12  10 0.95935 9.37156   1 
  10  12  10 -4.1494 12.1124   2 
  11  12  10 -5.0614 9.33657   1 
  11  12  10 -1.4168 10.9965   2 
  -5  13  10 26.3073 8.79686   2 
  -4  13  10 -6.1159 8.08441   2 
  -3  13  10 28.3462 8.49204   2 
  -2  13  10 -8.6991 6.89921   2 
  -2  13  10 -3.0244 9.67794   1 
  -1  13  10 18.2870 7.65746   2 
  -1  13  10 48.0476 12.0928   1 
   0  13  10 3.71736 11.6926   2 
   0  13  10 -3.8456 9.61078   1 
   1  13  10 0.16868 10.0759   2 
   1  13  10 9.37119 9.89020   1 
   2  13  10 6.41457 10.4733   1 
   2  13  10 2.68273 11.8772   2 
   3  13  10 16.4555 11.1159   1 
   3  13  10 19.6126 11.9622   2 
   4  13  10 -0.0508 7.16610   1 
   4  13  10 16.2899 11.1524   2 
   5  13  10 28.2833 8.68305   1 
   5  13  10 1.69997 10.5433   2 
   6  13  10 0.58577 7.42696   1 
   6  13  10 -5.8383 11.0159   2 
   7  13  10 15.7942 8.42390   1 
   7  13  10 -14.181 9.93241   2 
   8  13  10 27.6545 14.4264   1 
   8  13  10 14.2438 12.6356   2 
   4 -12   2 15.8967 15.5570  -2 
   8  13  10 15.8967 15.5570   1 
   9  13  10 0.29329 9.23973   1 
   9  13  10 15.6909 13.2671   2 
  10  13  10 11.0203 10.2365   1 
  10  13  10 11.0110 12.5311   2 
  -4  14  10 5.71942 8.45545   2 
  -3  14  10 4.44605 8.03184   2 
  -1  14  10 5.96502 12.2611   2 
   0  14  10 18.1396 11.0339   1 
   0  14  10 1.21025 11.7993   2 
   1  14  10 15.7547 10.6235   1 
   1  14  10 -21.269 10.3308   2 
   2  14  10 4.91052 10.5176   1 
   2  14  10 -2.0671 11.1096   2 
   3  14  10 -4.9585 11.0593   2 
   3  14  10 -1.1482 9.70178   1 
   4  14  10 27.5761 12.3728   1 
   4  14  10 18.4737 11.2112   2 
   5  14  10 -9.3378 11.0738   2 
   5  14  10 -5.7918 10.8662   1 
   1 -13   1 36.7859 20.7923  -2 
   5  14  10 36.7859 20.7923   1 
   6  14  10 -6.0570 11.3163   1 
   6  14  10 24.5983 13.5459   2 
   7  14  10 -3.5033 8.40615   1 
   7  14  10 4.13025 12.1000   2 
   8  14  10 -0.4481 9.01349   1 
   8  14  10 -1.0219 11.7836   2 
   9  14  10 -6.5688 9.36393   1 
   9  14  10 8.60922 13.5060   2 
  -3  15  10 4.28430 14.4055   2 
  -2  15  10 12.6179 13.8466   2 
  -1  15  10 8.25777 13.1377   2 
   1  15  10 -3.4677 10.8703   2 
   2  15  10 16.6280 13.2983   2 
   2  15  10 23.7477 12.2181   1 
   3  15  10 13.1537 11.3841   1 
   3  15  10 3.87425 12.0330   2 
   4  15  10 -10.702 9.91298   1 
   4  15  10 11.3307 12.4034   2 
   5  15  10 17.9917 12.7142   1 
   5  15  10 -14.285 11.1787   2 
   6  15  10 9.58479 12.2556   2 
   6  15  10 -0.4557 8.61390   1 
   7  15  10 -3.3972 12.1064   1 
   7  15  10 -3.1302 11.4315   2 
   8  15  10 20.9310 9.97551   1 
   8  15  10 3.32032 12.7690   2 
  -1  16  10 -8.1354 13.3451   2 
   0  16  10 6.05975 13.2218   2 
   1  16  10 9.41894 13.8025   2 
   2  16  10 16.4462 13.9129   2 
   3  16  10 15.8655 13.1728   2 
   4  16  10 0.18163 11.5029   2 
   4  16  10 2.74171 11.7691   1 
   5  16  10 -22.884 11.5077   2 
   5  16  10 -5.8764 11.6785   1 
   6  16  10 1.20902 11.5435   2 
   6  16  10 -4.7496 12.4570   1 
  -4  -7  11 -5.2089 13.7265   2 
   0   5  17 39.2262 16.6322  -2 
  -4  -7  11 39.2262 16.6322   1 
  -3  -7  11 -17.341 13.5346   2 
  -3  -7  11 12.0027 13.8750   1 
  -2  -7  11 -1.9574 13.3929   2 
  -2  -7  11 35.8620 14.5471   1 
  -1  -7  11 10.6467 12.7779   1 
  -1  -7  11 -8.5417 12.2429   2 
   0  -7  11 8.07915 12.9395   2 
   0  -7  11 24.0714 13.8589   1 
   1  -7  11 -1.5537 12.2483   2 
   1  -7  11 -0.1033 11.9284   1 
   2  -7  11 9.72843 12.9483   2 
   2  -7  11 6.28386 12.4665   1 
   3  -7  11 1.09156 8.31233   2 
   3  -7  11 -5.6209 11.6989   1 
  -6  -6  11 12.4520 9.78027   1 
  -6  -6  11 2.32389 13.6135   2 
  -5  -6  11 -10.423 13.4105   2 
  -4  -6  11 22.2457 13.0203   1 
  -4  -6  11 12.1327 14.6967   2 
  -3  -6  11 8.22878 11.6388   1 
  -3  -6  11 14.7879 13.1839   2 
  -2  -6  11 6.40493 13.5467   2 
  -2  -6  11 30.6426 14.1140   1 
  -1  -6  11 -11.576 12.1706   2 
  -1  -6  11 8.40278 12.2487   1 
   0  -6  11 8.05447 12.0422   1 
   0  -6  11 -4.2747 12.4321   2 
   1  -6  11 3.02300 11.2806   1 
   1  -6  11 -0.2387 12.8435   2 
   2  -6  11 -5.3309 13.0834   1 
   2  -6  11 -8.1562 11.2428   2 
   3  -6  11 -0.7694 11.8486   1 
   3  -6  11 13.9738 8.37429   2 
   4  -6  11 37.3180 15.6097   1 
   4  -6  11 11.3666 8.85651   2 
   5  -6  11 7.30368 16.0562   1 
   5  -6  11 3.13456 9.17487   2 
  -7  -5  11 -8.3635 9.05758   1 
  -7  -5  11 -30.965 11.1096   2 
  -6  -5  11 14.2826 9.43598   1 
  -6  -5  11 0.75250 12.7842   2 
  -5  -5  11 5.51729 11.9591   2 
  -5  -5  11 7.14425 7.97040   1 
  -4  -5  11 2.64980 8.35967   1 
  -4  -5  11 13.0662 13.1488   2 
  -3  -5  11 3.76775 13.5976   2 
  -3  -5  11 13.3097 8.58893   1 
  -2  -5  11 -1.8281 12.4999   2 
  -2  -5  11 14.5940 11.3551   1 
  -1  -5  11 1.24939 10.8161   1 
   0  -5  11 -12.105 11.7474   2 
  -3   5  14 56.9114 19.8363  -2 
   0  -5  11 56.9114 19.8363   1 
   1  -5  11 -2.7130 10.8155   1 
   1  -5  11 -0.5596 11.6223   2 
   2  -5  11 7.87172 7.33070   2 
  -5   5  13 -3.0404 18.9252  -2 
   2  -5  11 -3.0404 18.9252   1 
   3  -5  11 56.4527 16.6899   1 
   3  -5  11 27.8086 8.51068   2 
   4  -5  11 -2.8244 7.88233   2 
   4  -5  11 12.0259 12.6215   1 
   5  -5  11 5.49747 8.21108   2 
   5  -5  11 19.5361 13.6689   1 
   6  -5  11 4.19017 8.36229   2 
   6  -5  11 5.84646 13.7793   1 
   7  -5  11 0.94986 12.2055   2 
   7  -5  11 1.02794 16.7348   1 
  -8  -4  11 -4.6032 14.3167   1 
  -7  -4  11 11.2434 10.0395   1 
  -7  -4  11 2.97291 12.2805   2 
   3   7  16 25.0131 13.3321  -2 
  -6  -4  11 25.0131 13.3321   1 
  -6  -4  11 5.04366 12.6012   2 
  -5  -4  11 10.1689 8.75231   1 
  -5  -4  11 -7.8204 10.8261   2 
  -4  -4  11 -8.4525 7.63869   1 
  -4  -4  11 14.1104 12.5977   2 
  -3  -4  11 -3.0700 7.26348   1 
  -3  -4  11 7.47114 11.9353   2 
  -2  -4  11 3.20559 7.43110   1 
  -2  -4  11 8.93189 12.6418   2 
  -1  -4  11 52.3529 9.15158   1 
  -1  -4  11 20.0191 11.9713   2 
   0  -4  11 2.81443 12.1946   2 
   0  -4  11 9.48767 10.3861   1 
   1  -4  11 32.1600 7.85188   2 
   1  -4  11 36.8405 12.2342   1 
   2  -4  11 12.5427 6.11038   2 
   2  -4  11 17.3900 12.6949   1 
   3  -4  11 11.0807 6.02305   2 
   3  -4  11 23.8434 12.4167   1 
   4  -4  11 11.6049 6.56118   2 
   4  -4  11 18.2271 12.5422   1 
   5  -4  11 -10.679 6.12350   2 
   5  -4  11 -0.1330 12.3789   1 
   6  -4  11 6.53875 7.09129   2 
   6  -4  11 21.0000 14.5329   1 
   7  -4  11 11.8946 7.01332   2 
   7  -4  11 15.0748 14.0051   1 
   8  -4  11 -3.9980 7.51352   2 
   8  -4  11 -7.9284 15.7574   1 
  -8  -3  11 -14.745 13.1773   1 
  -8  -3  11 2.38982 12.3053   2 
  -7  -3  11 2.69115 8.32339   1 
  -7  -3  11 -3.3664 12.0767   2 
  -6  -3  11 15.9403 8.85063   1 
  -6  -3  11 -0.1353 12.1654   2 
  -5  -3  11 18.9861 7.85526   1 
  -5  -3  11 7.37220 11.9154   2 
  -4  -3  11 12.2744 7.95425   1 
  -4  -3  11 -5.9318 10.9475   2 
  -3  -3  11 22.5713 8.26908   1 
  -3  -3  11 -3.2353 10.1308   2 
  -2  -3  11 20.0288 7.77005   1 
  -2  -3  11 5.19020 12.1847   2 
  -1  -3  11 24.9139 8.02945   1 
  -1  -3  11 15.3141 12.9229   2 
   0  -3  11 62.2355 9.20795   1 
   0  -3  11 21.5099 12.0152   2 
   1  -3  11 0.41868 7.09712   1 
   1  -3  11 3.33763 7.21197   2 
   2  -3  11 5.84912 7.45142   2 
   2  -3  11 29.3574 11.7332   1 
   3  -3  11 9.12809 7.78040   2 
   3  -3  11 -18.277 9.16620   1 
   4  -3  11 2.77565 7.29722   2 
   4  -3  11 6.79357 11.4664   1 
   5  -3  11 -0.7227 7.97512   2 
   6  -3  11 16.6251 12.9557   1 
   7  -3  11 2.60430 8.07778   2 
   7  -3  11 7.36587 13.2522   1 
   8  -3  11 9.05572 7.14482   2 
   8  -3  11 10.4873 14.5829   1 
  -9  -2  11 3.32075 14.9835   1 
  -9  -2  11 16.4644 13.4764   2 
  -8  -2  11 14.5564 12.4821   2 
  -8  -2  11 -10.559 13.6310   1 
  -7  -2  11 18.8200 8.37610   1 
  -7  -2  11 4.44483 12.0583   2 
  -6  -2  11 -8.7405 10.9217   2 
  -6  -2  11 22.1695 8.27746   1 
  -5  -2  11 9.54338 7.53097   1 
  -5  -2  11 16.8488 11.5521   2 
  -4  -2  11 30.6016 8.43398   1 
  -4  -2  11 5.00181 11.3773   2 
  -3  -2  11 37.1630 8.46151   1 
  -3  -2  11 10.0302 10.9033   2 
  -2  -2  11 55.3298 12.5972   2 
   0   7  13 144.977 12.4909  -2 
  -2  -2  11 144.977 12.4909   1 
  -1  -2  11 13.4039 7.28251   1 
  -1  -2  11 1.22115 11.4364   2 
   0  -2  11 1.07760 8.15247   2 
   0  -2  11 27.4710 7.89847   1 
   1  -2  11 8.15809 6.49636   2 
   1  -2  11 1.71141 6.88749   1 
   2  -2  11 -11.370 5.95975   2 
   2  -2  11 17.2706 10.1816   1 
   3  -2  11 -0.9301 6.79886   2 
   3  -2  11 -0.7093 7.21115   1 
   4  -2  11 13.3235 7.81274   2 
  -6   6  10 23.0772 19.7918  -2 
   4  -2  11 23.0772 19.7918   1 
   5  -2  11 -3.4109 7.32611   2 
   5  -2  11 1.09576 11.2477   1 
   6  -2  11 36.6081 8.82991   2 
   6  -2  11 92.9671 15.4947   1 
   7  -2  11 30.3429 13.2637   1 
   7  -2  11 -4.1175 7.65388   2 
   8  -2  11 6.80381 8.03617   2 
   8  -2  11 11.7159 12.8467   1 
   9  -2  11 7.34034 8.88754   2 
   9  -2  11 30.7099 16.5309   1 
  -9  -1  11 5.87040 14.4932   1 
  -9  -1  11 29.6208 13.7777   2 
  -8  -1  11 35.8276 13.6170   2 
  -8  -1  11 38.1614 16.1552   1 
  -7  -1  11 -3.3331 12.7063   1 
  -7  -1  11 -8.6529 11.2107   2 
  -6  -1  11 55.5501 9.15212   1 
  -6  -1  11 30.1020 12.3246   2 
  -5  -1  11 23.4766 8.26755   1 
  -5  -1  11 16.3268 12.7896   2 
  -4  -1  11 3.11683 6.55032   1 
  -4  -1  11 15.1043 10.3832   2 
  -3  -1  11 60.7580 8.91658   1 
  -2  -1  11 -2.4386 9.87398   2 
  -2  -1  11 23.8281 7.54277   1 
  -1  -1  11 171.110 11.1445   1 
   0  -1  11 44.3654 8.29148   2 
   0  -1  11 109.843 9.98231   1 
   1  -1  11 2.95488 6.82687   2 
   1  -1  11 0.27111 6.73820   1 
   2  -1  11 38.7865 7.77702   1 
   2  -1  11 15.0360 7.10261   2 
   3  -1  11 49.2544 8.23652   1 
   3  -1  11 -2.0087 8.19793   2 
   4  -1  11 -1.8492 6.75862   2 
   4  -1  11 2.47084 10.1716   1 
   5  -1  11 84.6455 9.94286   1 
   5  -1  11 45.1939 8.55524   2 
   6  -1  11 10.1285 7.26849   2 
   6  -1  11 21.5310 11.5327   1 
   7  -1  11 23.1229 8.67720   2 
   7  -1  11 42.1367 13.6529   1 
   8  -1  11 16.3180 13.9808   1 
   8  -1  11 -3.4748 7.67995   2 
   9  -1  11 -3.2547 7.35221   2 
   9  -1  11 26.6047 14.0913   1 
  10  -1  11 -6.4263 8.02913   2 
  10  -1  11 5.81033 14.5048   1 
  -9   0  11 17.3018 15.1909   1 
  -9   0  11 30.7918 14.1933   2 
  -8   0  11 -6.1293 12.5123   1 
  -8   0  11 -15.643 9.92408   2 
  -7   0  11 35.9146 13.2688   2 
  -7   0  11 80.3292 16.7919   1 
  -6   0  11 2.48818 12.4251   1 
  -6   0  11 -3.7057 9.44712   2 
  -5   0  11 29.1918 11.1687   2 
  -5   0  11 1.12702 7.26425   1 
  -4   0  11 -11.865 8.53668   2 
  -4   0  11 0.33088 6.81144   1 
  -3   0  11 1.99344 9.37482   2 
  -3   0  11 6.02614 6.93234   1 
  -2   0  11 4.38987 9.07924   2 
  -2   0  11 2.14179 6.14918   1 
  -1   0  11 27.1320 7.04760   2 
  -1   0  11 71.0067 8.44445   1 
   0   0  11 3.61554 6.26139   1 
   0   0  11 0.07823 6.28014   2 
   1   0  11 99.0768 9.26665   2 
   1   0  11 219.350 11.5643   1 
   2   0  11 11.5949 6.72793   2 
   2   0  11 7.46115 6.60963   1 
   3   0  11 18.8303 7.12566   2 
   3   0  11 30.4294 7.62772   1 
  -5   7   9 188.360 13.2255  -2 
   4   0  11 188.360 13.2255   1 
   4   0  11 64.8694 8.89510   2 
   5   0  11 4.26230 6.72371   2 
   5   0  11 5.52578 7.10045   1 
   6   0  11 46.3077 8.76340   1 
   6   0  11 23.0925 7.83097   2 
   7   0  11 1.74804 7.82552   1 
   8   0  11 7.42107 7.23050   2 
   8   0  11 3.66002 12.0575   1 
   9   0  11 9.28873 13.9812   1 
   9   0  11 1.91325 7.40845   2 
  10   0  11 -1.8459 7.21077   2 
  10   0  11 5.13704 13.9009   1 
  -9   1  11 14.9540 14.0826   1 
  -9   1  11 20.6226 13.4959   2 
  -8   1  11 0.90964 12.4673   1 
  -7   1  11 1.35313 12.1743   1 
  -7   1  11 15.4108 10.9807   2 
  -6   1  11 41.0031 13.4523   1 
  -6   1  11 19.8725 12.3367   2 
  -5   1  11 50.1430 7.92017   1 
  -5   1  11 18.7291 11.0884   2 
  -4   1  11 -0.7002 9.11983   2 
   3   9  12 -10.203 7.66502  -2 
  -4   1  11 -10.203 7.66502   1 
  -3   1  11 5.55398 6.10001   1 
  -3   1  11 -1.9115 8.96327   2 
  -2   1  11 118.332 9.00289   1 
  -2   1  11 36.2867 11.0600   2 
  -1   1  11 142.240 9.88729   1 
  -1   1  11 72.6827 7.71079   2 
   0   1  11 64.5684 7.78431   2 
   0   1  11 169.173 10.3115   1 
   1   1  11 -1.6950 5.71631   2 
   1   1  11 -3.7657 5.92612   1 
   2   1  11 98.9851 8.96420   2 
   2   1  11 241.871 11.6999   1 
   3   1  11 7.30255 6.23752   1 
   3   1  11 1.53237 6.13889   2 
   4   1  11 11.1552 6.21321   2 
   4   1  11 14.5933 6.94145   1 
   5   1  11 10.5294 7.04992   2 
   5   1  11 18.3608 7.44852   1 
   6   1  11 -7.5827 6.45420   1 
   7   1  11 -5.3124 6.62410   2 
   7   1  11 -5.1389 7.04705   1 
   8   1  11 40.9782 9.70421   1 
   8   1  11 6.63047 7.63019   2 
   9   1  11 15.3277 9.14557   1 
   9   1  11 2.37792 7.71132   2 
  10   1  11 20.4598 8.16826   2 
  10   1  11 76.1761 17.2386   1 
  11   1  11 2.06679 8.11828   2 
  11   1  11 0.98975 14.1153   1 
  -9   2  11 -3.7943 12.0962   2 
  -9   2  11 6.90299 13.5218   1 
  -8   2  11 -15.808 11.5772   1 
  -8   2  11 15.6597 11.7862   2 
  -7   2  11 26.3473 11.4003   2 
  -7   2  11 -2.0147 10.9092   1 
  -6   2  11 10.4796 10.0539   2 
  -6   2  11 14.5293 11.3907   1 
  -5   2  11 -14.405 7.96239   2 
  -5   2  11 -12.530 9.95603   1 
  -4   2  11 232.108 11.1081   1 
  -4   2  11 100.398 13.6994   2 
  -3   2  11 30.2157 6.76540   1 
  -3   2  11 6.39503 9.49802   2 
  -2   2  11 192.511 10.4923   1 
  -1   2  11 59.9052 7.66409   1 
  -1   2  11 33.4389 6.43619   2 
   0   2  11 31.6665 9.12850   2 
   0   2  11 63.8873 7.82176   1 
   1   2  11 87.4940 8.37669   1 
   1   2  11 34.5163 6.79237   2 
   2   2  11 -1.8079 5.73693   2 
   2   2  11 -2.5686 5.70998   1 
   3   2  11 9.87819 8.73066   2 
   3   2  11 13.7100 6.59009   1 
   4   2  11 6.46313 6.13872   2 
   4   2  11 12.0743 6.87650   1 
   5   2  11 6.52529 6.53025   2 
   5   2  11 14.1705 6.90712   1 
   6   2  11 12.8978 6.30693   2 
   6   2  11 22.4051 7.90752   1 
   7   2  11 11.0609 7.96548   1 
   7   2  11 5.48623 7.01441   2 
   8   2  11 21.7117 8.56871   1 
   8   2  11 -5.2700 6.83777   2 
   9   2  11 71.5687 9.83365   2 
   9   2  11 142.621 12.8899   1 
  10   2  11 1.90528 7.35782   2 
  10   2  11 2.55865 8.89402   1 
  11   2  11 37.7686 16.1827   1 
  11   2  11 25.4279 8.81934   2 
  -9   3  11 4.69920 13.5694   1 
  -9   3  11 11.0405 14.4647   2 
  -8   3  11 26.2547 12.7759   1 
  -8   3  11 16.5862 13.5863   2 
  -7   3  11 5.79920 11.1753   1 
  -7   3  11 -1.4062 9.99091   2 
  -6   3  11 40.8122 12.7917   2 
  -6   3  11 95.7901 17.0996   1 
  -5   3  11 30.6133 10.6423   2 
  -5   3  11 83.5743 15.4253   1 
  -4   3  11 6.18889 8.72152   2 
  -4   3  11 34.0054 11.1051   1 
  -3   3  11 79.1516 7.93287   1 
  -2   3  11 31.6268 6.07431   2 
  -2   3  11 80.8574 7.84734   1 
  -1   3  11 56.5051 7.47194   1 
  -1   3  11 34.0647 6.75929   2 
   0   3  11 -2.6067 5.85175   2 
   0   9   9 35.7098 10.3276  -2 
   0   3  11 35.7098 10.3276   1 
   1   3  11 -7.2970 5.22144   1 
   1   3  11 -10.850 5.24556   2 
  -2   9   8 -20.900 13.5593  -2 
   2   3  11 -20.900 13.5593   1 
   2   3  11 -1.7782 5.61358   2 
   2   3  11 10.3334 8.06975   1 
   3   3  11 23.3611 6.49950   1 
   3   3  11 4.85323 6.02385   2 
   4   3  11 6.89852 5.76915   1 
   4   3  11 1.85289 5.92556   2 
   5   3  11 163.103 10.7600   1 
   5   3  11 74.6453 8.25454   2 
  -6   8   6 58.1101 10.4143  -2 
   6   3  11 58.1101 10.4143   1 
   6   3  11 21.4020 6.73448   2 
   7   3  11 57.5931 8.55188   2 
   7   3  11 105.261 10.6027   1 
   8   3  11 3.00773 6.57902   2 
   8   3  11 20.3573 8.52797   1 
   9   3  11 21.4884 8.76615   1 
   9   3  11 -9.0841 8.78441   2 
  10   3  11 14.9029 9.19449   1 
  10   3  11 1.44417 7.05215   2 
  11   3  11 -7.1910 7.24816   2 
  11   3  11 20.2349 13.9809   1 
  -9   4  11 19.5807 13.6460   2 
  -9   4  11 27.3561 14.1279   1 
  -8   4  11 -10.555 12.3308   2 
  -8   4  11 25.4443 13.0056   1 
  -7   4  11 38.8622 13.4979   2 
  -7   4  11 96.7719 15.8670   1 
  -6   4  11 -7.8869 9.40896   2 
   6  11  11 8.85178 17.9896  -2 
  -6   4  11 8.85178 17.9896   1 
  -5   4  11 34.1857 10.7231   2 
  -5   4  11 60.2731 14.1359   1 
  -4   4  11 43.0159 12.6781   1 
  -4   4  11 1.45404 9.19359   2 
  -3   4  11 -3.5553 5.51553   2 
  -3   4  11 2.52787 9.06303   1 
  -2   4  11 0.20217 5.41892   2 
  -2   4  11 15.3154 5.80073   1 
  -1   4  11 23.3646 6.07040   1 
  -1   4  11 4.17385 6.19483   2 
   0   4  11 0.86408 5.45702   2 
   0   4  11 16.1622 5.89180   1 
   1   4  11 85.8298 8.25659   2 
   1   4  11 189.980 9.97211   1 
   2   4  11 3.92867 5.66551   2 
   2   4  11 4.32563 5.43692   1 
   3   4  11 92.8143 8.33238   1 
   3   4  11 46.6116 7.44374   2 
   4   4  11 24.0388 6.41738   2 
   4   4  11 58.9665 7.87974   1 
   5   4  11 22.3367 7.08857   1 
   6   4  11 96.2468 9.96366   1 
   6   4  11 45.1217 7.65479   2 
   7   4  11 4.03904 6.69249   1 
   8   4  11 12.6016 6.97337   2 
   8   4  11 42.3280 9.47600   1 
   9   4  11 -0.9739 6.42072   1 
   9   4  11 0.92602 6.37844   2 
  10   4  11 8.10449 7.94628   1 
  10   4  11 1.26157 7.21018   2 
  11   4  11 -8.5649 7.27411   1 
  11   4  11 -9.0554 11.7807   2 
  12   4  11 -4.8803 12.0018   2 
  12   4  11 12.9972 8.67608   1 
  -9   5  11 19.5145 13.6970   1 
  -9   5  11 13.8677 13.3453   2 
  -8   5  11 31.2998 13.2812   2 
  -8   5  11 3.85794 11.9243   1 
  -7   5  11 -16.012 10.4114   1 
  -7   5  11 -7.6282 10.5017   2 
  -6   5  11 16.9167 11.3532   2 
  -6   5  11 38.1867 12.8705   1 
  -5   5  11 8.44704 10.5770   1 
  -5   5  11 8.63108 9.45171   2 
  -4   5  11 -0.1030 6.03110   2 
  -4   5  11 -10.501 8.60393   1 
  -3   5  11 0.14862 5.73233   2 
  -3   5  11 1.54328 9.58415   1 
  -2   5  11 12.9791 6.27872   2 
  -2   5  11 36.1448 11.4780   1 
  -1   5  11 64.2075 6.96983   1 
  -1   5  11 30.7934 7.19291   2 
   0   5  11 79.4636 7.19373   1 
   0   5  11 44.6848 7.00175   2 
   1   5  11 20.9944 5.85502   1 
   1   5  11 14.2209 6.18164   2 
   2   5  11 79.9437 8.30083   2 
   2   5  11 157.272 9.36317   1 
   3   5  11 18.5379 6.02909   1 
   3   5  11 13.5282 6.33142   2 
   4   5  11 31.9917 6.75525   2 
   4   5  11 83.3677 8.46205   1 
   5   5  11 2.44735 5.99792   1 
   5   5  11 2.38370 5.98550   2 
   6   5  11 8.25146 6.14139   2 
  -5   9   5 36.6316 18.5770  -2 
   6   5  11 36.6316 18.5770   1 
   6   5  11 15.1655 6.98812   1 
   7   5  11 -1.9824 5.85945   2 
   7   5  11 9.60223 6.08698   1 
   8   5  11 22.7723 6.70665   1 
   8   5  11 10.6946 6.86638   2 
   9   5  11 -1.6082 6.38574   2 
   9   5  11 -4.4025 6.27769   1 
  10   5  11 19.3949 7.61017   1 
  10   5  11 8.06533 13.4854   2 
  11   5  11 24.1210 8.19932   1 
  11   5  11 3.74072 12.9335   2 
  12   5  11 6.73060 8.30131   1 
  12   5  11 6.47437 14.1137   2 
  -9   6  11 6.38946 13.5222   2 
  -9   6  11 5.14080 11.8331   1 
  -8   6  11 8.63908 11.9720   1 
  -8   6  11 1.62874 12.7257   2 
  -7   6  11 5.09264 11.3327   2 
  -7   6  11 5.95374 10.8500   1 
  -6   6  11 13.9633 10.6355   2 
  -6   6  11 -2.2964 10.4606   1 
  -5   6  11 2.49020 9.48118   2 
  -5   6  11 29.6042 12.0042   1 
  -4   6  11 171.553 17.8157   1 
  -4   6  11 83.7691 12.9001   2 
  -3   6  11 15.5578 6.62204   2 
  -3   6  11 25.2770 10.9086   1 
   3  11   8 110.742 17.5805  -2 
  -2   6  11 110.742 17.5805   1 
  -1   6  11 -4.5341 5.61227   2 
  -1   6  11 13.4783 9.72619   1 
   0   6  11 92.8411 8.57671   2 
   0   6  11 165.828 8.95543   1 
   1   6  11 36.1767 6.72218   2 
   1   6  11 57.5477 6.82001   1 
   2   6  11 4.70426 5.32112   1 
   2   6  11 10.6643 5.50302   2 
   3   6  11 41.8437 6.80327   1 
   3   6  11 10.7325 5.86316   2 
   4   6  11 12.3389 6.37454   2 
   4   6  11 23.1240 10.3799   1 
  -3  10   5 23.5192 13.0341  -2 
   4   6  11 23.5192 13.0341   1 
   5   6  11 0.65915 5.49051   2 
   5   6  11 13.1802 5.24800   1 
   6   6  11 43.3531 6.72079   1 
   6   6  11 21.0829 6.83472   2 
   7   6  11 11.4546 6.12998   2 
   7   6  11 12.6946 5.96550   1 
   8   6  11 11.7461 6.17361   2 
   8   6  11 -0.1977 6.26212   1 
   9   6  11 76.4512 8.97369   1 
   9   6  11 19.5572 11.9383   2 
  10   6  11 8.21177 7.51631   1 
  10   6  11 -3.1121 11.0271   2 
  11   6  11 6.93525 13.0018   2 
  11   6  11 42.6903 8.72437   1 
  12   6  11 27.0638 8.92951   1 
  12   6  11 12.0885 13.7941   2 
  -9   7  11 -11.997 11.5871   1 
  -9   7  11 -19.388 13.0136   2 
  -8   7  11 -7.3020 13.1249   2 
  -8   7  11 17.2516 12.3101   1 
  -7   7  11 -4.9195 11.7639   2 
  -7   7  11 -8.7982 9.64112   1 
  -6   7  11 17.0540 11.4965   2 
  -6   7  11 37.6011 12.5260   1 
  -5   7  11 40.5793 12.1723   1 
  -5   7  11 21.6938 8.06140   2 
  -4   7  11 21.3179 11.4232   1 
  -4   7  11 15.0893 7.22774   2 
  -3   7  11 91.9452 9.18143   2 
  -3   7  11 164.789 16.9896   1 
  -2   7  11 24.1479 6.86912   2 
  -2   7  11 38.9714 11.6592   1 
  -1   7  11 62.6833 7.80213   2 
  -1   7  11 134.541 15.6630   1 
   0   7  11 14.1252 5.23577   1 
   0   7  11 6.22210 5.91639   2 
   1   7  11 38.0388 10.7292   1 
   1   7  11 28.1517 6.76987   2 
   2   7  11 -2.9274 5.23617   2 
   2   7  11 4.43905 5.34752   1 
   3   7  11 18.4647 4.98614   1 
   3   7  11 -0.0984 5.64483   2 
   4   7  11 9.22755 4.68870   1 
   5   7  11 40.7553 6.88863   2 
   5   7  11 92.8659 7.45816   1 
   6   7  11 5.10372 6.90961   1 
   7   7  11 5.30294 10.8479   2 
   7   7  11 77.2721 10.1805   1 
   8   7  11 43.5369 9.71855   1 
   8   7  11 28.4584 12.4677   2 
   9   7  11 28.9406 9.16792   1 
   9   7  11 5.11499 11.5333   2 
  10   7  11 35.1599 14.4921   2 
  10   7  11 47.2204 11.3529   1 
  11   7  11 -8.1437 9.12375   1 
  11   7  11 4.43298 12.1443   2 
  12   7  11 23.5647 11.0744   1 
  12   7  11 26.0978 15.1022   2 
  -8   8  11 0.41414 12.9469   2 
  -8   8  11 13.3716 11.5781   1 
  -7   8  11 95.5365 17.2405   1 
  -7   8  11 31.5969 13.8627   2 
  -6   8  11 -10.522 10.0217   1 
  -6   8  11 -9.6780 9.64774   2 
  -5   8  11 97.0048 15.3097   1 
  -5   8  11 37.6148 9.07757   2 
  -4   8  11 9.93288 10.6511   1 
  -4   8  11 0.15643 7.08061   2 
  -3   8  11 22.3216 10.9914   1 
  -3   8  11 10.3513 7.29408   2 
  -2   8  11 22.9724 10.5395   1 
  -2   8  11 9.41853 6.57609   2 
  -1   8  11 -4.1407 8.47500   1 
  -1   8  11 3.40742 6.13645   2 
   0   8  11 5.81814 6.35493   2 
   0   8  11 11.0982 9.00911   1 
   1   8  11 45.9740 7.46736   2 
   1   8  11 110.257 7.57686   1 
   2   8  11 22.5317 6.66265   2 
   2   8  11 33.6615 5.12955   1 
   3   8  11 22.8321 6.55514   2 
   3   8  11 64.6674 6.07565   1 
   4   8  11 29.6657 6.68955   2 
  -2  11   4 75.5472 16.4638  -2 
   4   8  11 75.5472 16.4638   1 
   5   8  11 -8.3029 5.37058   2 
   5   8  11 -5.6587 6.44597   1 
   6   8  11 18.6910 11.5127   2 
   6   8  11 20.7200 8.04860   1 
   7   8  11 5.60600 9.96367   2 
   7   8  11 -0.1323 7.58724   1 
  -6  10   2 8.94041 15.5777  -2 
   8   8  11 8.94041 15.5777   1 
   8   8  11 45.0512 13.9346   1 
   8   8  11 8.02895 11.9719   2 
   9   8  11 -7.5810 9.89477   2 
   9   8  11 0.85395 8.68912   1 
  10   8  11 21.3309 9.93683   1 
  10   8  11 -3.3420 11.3065   2 
  11   8  11 -1.0768 12.3292   2 
  11   8  11 6.65848 9.99279   1 
  12   8  11 16.4932 10.3616   1 
  12   8  11 -7.2066 12.2677   2 
  -8   9  11 14.0067 13.9841   2 
  -8   9  11 5.06365 11.9353   1 
  -7   9  11 -4.2444 10.8313   2 
  -7   9  11 -14.554 10.2346   1 
  -6   9  11 18.0058 8.91643   2 
  -6   9  11 57.9920 14.0556   1 
  -5   9  11 -6.1924 6.96292   2 
  -5   9  11 2.19908 10.7495   1 
  -4   9  11 21.0530 8.03136   2 
   6  13   7 73.7579 16.7684  -2 
  -4   9  11 73.7579 16.7684   1 
  -3   9  11 18.4449 7.42128   2 
  -3   9  11 34.2312 12.7795   1 
  -2   9  11 2.65340 7.11091   2 
  -2   9  11 30.3949 10.9388   1 
  -1   9  11 28.2620 11.4068   2 
  -1   9  11 14.4841 9.86558   1 
   0   9  11 7.04310 6.59081   2 
   0   9  11 18.6203 10.2469   1 
   1   9  11 30.2365 6.99412   2 
   1   9  11 76.9020 13.7123   1 
   2   9  11 39.0268 7.08522   2 
   2   9  11 91.6010 6.31385   1 
   3   9  11 20.9518 6.19426   2 
   3   9  11 17.7215 6.86132   1 
   4   9  11 36.5047 7.80987   1 
   4   9  11 22.4892 6.25336   2 
   5   9  11 12.6225 11.4738   2 
   5   9  11 12.5544 8.92858   1 
   6   9  11 30.9672 8.18032   1 
   6   9  11 5.05354 9.71756   2 
   7   9  11 14.4179 11.3971   2 
   7   9  11 31.2497 8.92276   1 
   8   9  11 7.38380 8.23828   1 
   8   9  11 -7.1206 11.3251   2 
   9   9  11 -3.2721 8.17295   1 
   9   9  11 -10.130 10.9391   2 
  10   9  11 11.0963 13.3494   2 
  10   9  11 11.2819 9.40257   1 
  11   9  11 1.64340 9.57311   1 
  12   9  11 42.4338 19.4274   1 
  -7  10  11 16.2737 12.4304   2 
  -7  10  11 1.80344 11.2282   1 
  -6  10  11 5.58952 9.00781   2 
  -6  10  11 11.4166 10.6050   1 
  -5  10  11 -0.5576 8.07721   2 
  -5  10  11 7.09405 10.2924   1 
  -4  10  11 5.59036 9.42613   2 
  -4  10  11 12.2912 10.3848   1 
  -3  10  11 18.8770 11.1620   1 
  -3  10  11 3.83976 6.87119   2 
  -2  10  11 7.56827 8.53011   2 
  -2  10  11 29.2392 11.2422   1 
  -1  10  11 19.9834 11.3831   1 
  -1  10  11 7.87989 6.78246   2 
   0  10  11 9.03748 6.60803   2 
   0  10  11 28.3491 11.4502   1 
   1  10  11 61.3949 13.1580   1 
   1  10  11 11.1919 6.55929   2 
   2  10  11 9.34979 6.36525   2 
   2  10  11 24.5089 10.8880   1 
   3  10  11 95.3243 9.07489   1 
   3  10  11 54.5316 7.19564   2 
   4  10  11 21.6269 7.38989   1 
   4  10  11 1.01105 9.90768   2 
   5  10  11 37.1011 8.46774   1 
   5  10  11 4.24249 10.7012   2 
   6  10  11 -6.3626 7.09489   1 
   6  10  11 -15.984 9.52038   2 
   7  10  11 10.6129 7.90097   1 
   7  10  11 -7.2198 10.0606   2 
   8  10  11 2.47477 7.91621   1 
   8  10  11 -9.4743 10.4714   2 
   9  10  11 20.7787 13.6223   2 
   9  10  11 18.7286 9.84461   1 
  10  10  11 4.69092 9.36422   1 
  10  10  11 -7.3893 11.4098   2 
  11  10  11 49.5251 11.5093   1 
  11  10  11 32.6936 13.6606   2 
  -7  11  11 -3.5000 10.2104   1 
  -7  11  11 15.4891 14.4708   2 
  -6  11  11 30.9038 12.2241   2 
  -6  11  11 0.59333 10.5023   1 
  -5  11  11 2.36977 10.3591   1 
  -5  11  11 0.86535 7.89942   2 
  -4  11  11 11.3994 10.1807   1 
  -4  11  11 -1.4612 7.99494   2 
  -3  11  11 94.4247 15.2156   1 
  -3  11  11 38.8026 8.71312   2 
  -2  11  11 0.84305 7.31715   2 
  -2  11  11 -3.0197 9.22279   1 
  -1  11  11 48.7465 8.44934   2 
  -1  11  11 100.122 15.1020   1 
   0  11  11 20.6656 6.96294   2 
   3  13   4 52.8255 18.1308  -2 
   0  11  11 52.8255 18.1308   1 
   1  11  11 95.2437 14.8455   1 
   1  11  11 42.0156 7.88385   2 
   2  11  11 11.2188 10.3109   1 
   2  11  11 5.92548 10.4863   2 
   3  11  11 3.63455 10.3831   2 
   3  11  11 1.44480 10.1083   1 
   4  11  11 5.77861 7.07593   1 
   4  11  11 18.1682 11.5348   2 
   5  11  11 76.6973 9.91573   1 
   5  11  11 -4.7883 10.4721   2 
  -3  12   1 29.3174 11.2182  -2 
   6  11  11 29.3174 11.2182   1 
   7  11  11 60.9815 10.3400   1 
   7  11  11 7.35957 11.4048   2 
   8  11  11 0.41012 11.8438   2 
   8  11  11 8.55735 8.52434   1 
   9  11  11 19.4149 9.58495   1 
   9  11  11 -8.8697 11.2603   2 
  10  11  11 14.2002 14.2932   1 
   7 -11   1 13.3264 23.3762  -2 
  10  11  11 13.3264 23.3762   1 
  10  11  11 18.8619 13.7103   2 
  11  11  11 -3.7087 11.9970   2 
   8 -11   1 -24.714 20.3340  -2 
  11  11  11 -24.714 20.3340   1 
  11  11  11 -11.738 12.8672   1 
  -6  12  11 4.12884 9.14059   2 
  -5  12  11 9.64630 11.2815   1 
  -5  12  11 9.44062 8.25294   2 
  -4  12  11 -9.0621 9.95740   1 
  -4  12  11 0.65182 7.98885   2 
  -3  12  11 5.75225 9.78084   2 
  -3  12  11 19.8942 11.2011   1 
  -2  12  11 2.69672 7.01229   2 
  -2  12  11 11.2741 11.3067   1 
  -1  12  11 6.05220 9.89781   1 
  -1  12  11 7.97492 6.54041   2 
   0  12  11 24.1543 7.55870   2 
   0  12  11 58.6893 13.3200   1 
   1  12  11 21.4696 12.6654   2 
   2  12  11 16.7728 10.9651   2 
   2  12  11 13.6966 10.3335   1 
   3  12  11 -4.6291 9.97704   1 
   3  12  11 7.63157 11.3784   2 
   4  12  11 39.7139 8.29634   1 
   4  12  11 5.71575 12.0014   2 
   5  12  11 9.51528 7.99127   1 
   5  12  11 18.3661 12.1409   2 
   6  12  11 3.17484 7.80763   1 
   6  12  11 17.8634 12.4631   2 
   7  12  11 -0.9606 7.99930   1 
   7  12  11 -2.5438 11.7275   2 
   8  12  11 30.2888 13.8544   2 
   8  12  11 38.0577 10.6364   1 
   9  12  11 11.8282 9.75068   1 
   9  12  11 16.0610 13.1123   2 
  10  12  11 25.7000 14.3288   2 
  10  12  11 10.4358 9.74949   1 
  -5  13  11 7.10593 9.22862   2 
  -4  13  11 6.26479 8.62563   2 
  -3  13  11 3.81416 10.0158   1 
  -2  13  11 9.77198 7.38693   2 
  -2  13  11 -8.2198 9.57419   1 
  -1  13  11 2.63498 9.88987   1 
  -1  13  11 -1.2637 6.70868   2 
   0  13  11 -11.842 11.6411   2 
   0  13  11 6.73139 11.1942   1 
   1  13  11 0.31496 10.9229   1 
   1  13  11 -14.724 10.3987   2 
   2  13  11 32.9871 11.9236   1 
   2  13  11 16.4217 12.4497   2 
   3  13  11 7.59080 10.5603   1 
   4  13  11 35.1355 12.6857   1 
   4  13  11 -0.5040 11.2300   2 
   5  13  11 -0.2312 7.31862   1 
   5  13  11 6.65809 11.9536   2 
   6  13  11 22.4551 13.2973   2 
  -2  13   0 -6.6320 19.3217  -2 
   6  13  11 -6.6320 19.3217   1 
   6  13  11 20.8000 12.1149   1 
   7  13  11 -2.8945 8.47525   1 
   7  13  11 12.5548 13.3386   2 
   8  13  11 -1.1711 11.5111   2 
   8  13  11 -2.3993 8.61747   1 
   9  13  11 5.14467 9.15219   1 
   9  13  11 -24.021 11.5201   2 
  10  13  11 0.64309 9.38370   1 
  10  13  11 -5.1495 10.5917   2 
  -4  14  11 4.29658 8.43322   2 
  -3  14  11 -1.2813 7.71030   2 
  -2  14  11 -15.885 11.5934   2 
  -1  14  11 -3.3635 10.5756   1 
  -1  14  11 3.67810 12.9831   2 
   0  14  11 6.52775 10.3218   1 
   0  14  11 -12.948 11.6836   2 
   1  14  11 -8.8288 11.8497   2 
   1  14  11 8.01865 11.1506   1 
   2  14  11 -9.3347 10.1593   2 
   2  14  11 -11.983 9.92732   1 
   3  14  11 16.0634 11.1986   1 
   3  14  11 -0.5219 11.8965   2 
   4  14  11 -3.2872 11.8609   2 
   4  14  11 6.25143 10.8630   1 
   5  14  11 14.7987 12.0551   2 
   5  14  11 -1.6476 11.7027   1 
   6  14  11 -9.5603 7.56709   1 
   6  14  11 -3.1089 12.0577   2 
   7  14  11 -9.8716 11.0175   1 
   8  14  11 4.61831 8.97894   1 
   8  14  11 19.4191 13.4686   2 
   9  14  11 28.8390 13.7093   2 
   9  14  11 17.8806 10.3510   1 
  -2  15  11 24.0714 14.8502   2 
  -1  15  11 36.2324 15.3974   2 
   0  15  11 -1.3044 12.8941   2 
   1  15  11 44.3188 13.3430   1 
   1  15  11 -0.7198 12.5444   2 
   2  15  11 -5.1489 10.7231   1 
   2  15  11 9.24858 12.9462   2 
   3  15  11 8.11005 11.6592   1 
   3  15  11 -2.1311 13.1123   2 
   4  15  11 10.6078 13.3160   2 
   4  15  11 9.30037 11.8583   1 
   5  15  11 10.1893 12.2191   2 
   5  15  11 -18.704 10.1933   1 
   6  15  11 -18.427 10.5990   2 
   6  15  11 -4.0575 12.4590   1 
   7  15  11 -3.1435 13.6278   2 
   7  15  11 5.25615 10.0762   1 
   8  15  11 9.90879 18.5738   2 
   8  15  11 -6.2123 11.8573   1 
   0  16  11 10.6498 15.0156   2 
   1  16  11 14.6878 14.4524   2 
   2  16  11 0.53306 13.7323   2 
   3  16  11 -5.6731 10.5983   1 
   3  16  11 6.08954 12.8269   2 
   4  16  11 -10.480 9.75528   1 
   4  16  11 10.9990 12.9480   2 
   5  16  11 5.40536 12.7728   1 
   5  16  11 3.59444 13.1365   2 
   6  16  11 12.2550 13.7044   2 
   6  16  11 17.1243 13.5420   1 
  -3  -6  12 -10.809 11.0766   1 
  -3  -6  12 -2.6832 14.1897   2 
  -2  -6  12 -24.890 11.0564   1 
  -2  -6  12 9.64673 14.5886   2 
  -1  -6  12 -13.944 11.5253   1 
  -1  -6  12 6.55931 12.8535   2 
   0  -6  12 0.61936 13.1045   2 
   0  -6  12 -7.7629 10.6709   1 
   1  -6  12 -4.8136 12.3182   2 
   1  -6  12 8.24101 11.9051   1 
   2  -6  12 19.4746 14.0755   2 
   2  -6  12 12.3612 13.1498   1 
   3  -6  12 5.82661 12.6859   1 
   3  -6  12 1.55337 12.9231   2 
  -5  -5  12 -4.1440 12.8662   2 
  -5  -5  12 6.89236 9.17999   1 
  -4  -5  12 -17.918 13.6143   2 
  -4  -5  12 -7.2649 10.7674   1 
  -3  -5  12 36.6984 13.2887   1 
  -3  -5  12 24.9536 15.2231   2 
  -2  -5  12 4.88801 12.7872   2 
  -2  -5  12 1.39114 11.2020   1 
  -1  -5  12 8.50896 13.6039   2 
  -1  -5  12 0.77659 11.4929   1 
   0  -5  12 5.77944 11.7306   1 
   0  -5  12 15.8570 13.7563   2 
   1  -5  12 6.57939 12.2087   1 
   1  -5  12 15.1800 14.3154   2 
   2  -5  12 15.0700 13.7013   2 
   2  -5  12 31.3288 14.1538   1 
   3  -5  12 3.29485 7.81321   2 
   3  -5  12 0.69686 12.6147   1 
   4  -5  12 14.5282 13.6658   1 
   4  -5  12 10.3120 8.31284   2 
   5  -5  12 -1.3927 13.0842   1 
  -6  -4  12 2.61685 12.5444   2 
  -6  -4  12 11.2416 9.35762   1 
  -5  -4  12 -1.6106 8.11621   1 
  -5  -4  12 -16.696 12.6107   2 
  -4  -4  12 10.0567 8.83077   1 
  -4  -4  12 4.73353 13.1730   2 
  -3  -4  12 8.37250 8.12330   1 
  -2  -4  12 27.4423 9.29841   1 
  -2  -4  12 -4.7206 13.1732   2 
  -1  -4  12 0.48078 10.7575   1 
  -1  -4  12 13.6322 13.9040   2 
   0  -4  12 14.7773 11.9952   1 
   0  -4  12 7.07220 12.4862   2 
   1  -4  12 29.2417 12.7276   1 
   1  -4  12 8.20613 13.2201   2 
   2  -4  12 4.05676 12.0733   1 
   2  -4  12 -7.2940 6.84223   2 
   3  -4  12 -6.1978 12.6871   1 
   3  -4  12 3.08265 6.21943   2 
   4  -4  12 26.5911 13.4820   1 
   4  -4  12 15.3435 6.85580   2 
   5  -4  12 8.65199 13.0146   1 
   5  -4  12 0.84612 6.83054   2 
   6  -4  12 -3.5964 13.9157   1 
   6  -4  12 -1.9713 6.83677   2 
  -7  -3  12 10.0181 13.3854   2 
  -7  -3  12 12.3706 9.06211   1 
  -6  -3  12 58.8711 10.8844   1 
  -6  -3  12 33.7350 14.2213   2 
  -5  -3  12 16.5317 8.16849   1 
  -5  -3  12 -4.9418 12.4202   2 
  -4  -3  12 14.2761 8.43993   1 
  -3  -3  12 16.1750 8.64711   1 
  -3  -3  12 15.1241 13.8055   2 
  -2  -3  12 -10.427 7.57395   1 
  -2  -3  12 3.35681 12.8226   2 
  -1  -3  12 3.99715 13.1173   2 
  -1  -3  12 10.1104 8.22991   1 
   0  -3  12 4.59864 7.61331   1 
   0  -3  12 7.87805 11.9245   2 
   1  -3  12 0.88248 11.1805   1 
   1  -3  12 -4.9239 10.8888   2 
   2  -3  12 2.05213 10.3740   1 
   2  -3  12 -4.8683 7.51431   2 
   3  -3  12 5.99148 8.04051   2 
   3  -3  12 0.64145 11.0567   1 
   4  -3  12 9.87760 8.83691   2 
   4  -3  12 7.29588 12.9527   1 
   5  -3  12 15.8656 8.93375   2 
   5  -3  12 55.8309 15.8799   1 
   6  -3  12 -12.636 6.44703   2 
   6  -3  12 12.2935 13.1165   1 
   7  -3  12 4.53871 7.25297   2 
   7  -3  12 69.7622 17.6378   1 
  -7  -2  12 14.5839 14.6588   1 
  -7  -2  12 -0.9131 12.7555   2 
  -6  -2  12 7.93260 8.19589   1 
  -6  -2  12 -1.9251 10.7585   2 
  -5  -2  12 -15.586 10.8500   2 
  -5  -2  12 15.3676 8.82504   1 
  -4  -2  12 21.2861 8.31187   1 
  -4  -2  12 -8.9771 11.0332   2 
  -3  -2  12 1.22477 10.5526   2 
  -3  -2  12 -4.3390 6.94202   1 
  -2  -2  12 10.5899 11.7925   2 
  -2  -2  12 19.7083 7.70592   1 
  -1  -2  12 7.37433 11.9864   2 
  -1  -2  12 3.29045 7.39584   1 
   0  -2  12 -4.8625 10.8498   2 
   0  -2  12 5.23187 7.40048   1 
   1  -2  12 19.8875 8.03298   1 
   1  -2  12 16.6210 7.61310   2 
   2  -2  12 14.5966 8.70458   2 
  -4   7  12 94.8525 13.0001  -2 
   2  -2  12 94.8525 13.0001   1 
   3  -2  12 24.1348 8.43470   2 
   3  -2  12 60.2675 14.0257   1 
   4  -2  12 3.30940 10.8325   1 
   4  -2  12 11.7038 8.12497   2 
   5  -2  12 3.73663 7.79773   2 
   5  -2  12 23.5064 13.0614   1 
   6  -2  12 13.2279 8.57803   2 
   6  -2  12 51.7349 15.3341   1 
   7  -2  12 6.92508 8.64804   2 
   7  -2  12 7.82455 12.2440   1 
   8  -2  12 25.3840 9.35130   2 
   8  -2  12 21.5309 14.3448   1 
  -8  -1  12 22.9238 13.3565   2 
  -8  -1  12 0.84968 14.4690   1 
  -7  -1  12 0.27200 11.4583   2 
  -7  -1  12 0.04258 13.8647   1 
  -6  -1  12 19.8351 14.2116   1 
  -6  -1  12 13.4207 12.3730   2 
  -5  -1  12 8.17923 7.81462   1 
  -5  -1  12 18.8342 12.0703   2 
  -4  -1  12 -6.8092 6.70079   1 
  -4  -1  12 5.89321 10.9150   2 
  -3  -1  12 2.34256 7.68313   1 
  -3  -1  12 36.4017 12.9549   2 
  -2  -1  12 13.6768 7.94991   1 
  -2  -1  12 -6.9844 10.1393   2 
  -1  -1  12 50.2206 12.9802   2 
  -1  -1  12 89.0832 9.88814   1 
   0  -1  12 28.5055 7.94074   1 
   0  -1  12 29.3256 12.7383   2 
   1  -1  12 -12.209 6.76394   1 
   1  -1  12 -7.5969 6.89833   2 
   2  -1  12 115.255 10.7751   1 
   2  -1  12 49.3534 9.14710   2 
   3  -1  12 -0.1664 7.34986   1 
   3  -1  12 -5.5699 9.96911   2 
   4  -1  12 43.6689 9.03433   2 
   4  -1  12 97.7572 10.4558   1 
   5  -1  12 5.26050 11.7423   1 
   5  -1  12 -6.7258 9.45103   2 
   6  -1  12 3.77276 11.5888   1 
   6  -1  12 -8.0662 7.14863   2 
   7  -1  12 27.4556 13.1402   1 
   7  -1  12 5.93850 8.36188   2 
   8  -1  12 15.8130 8.76245   2 
   8  -1  12 3.27422 13.1124   1 
   9  -1  12 1.10877 8.14147   2 
   9  -1  12 -24.733 12.4917   1 
  -8   0  12 27.4269 13.5531   2 
  -8   0  12 22.8464 15.7547   1 
  -7   0  12 13.7696 14.0098   1 
  -7   0  12 4.59781 12.3461   2 
  -6   0  12 -3.1441 11.6442   2 
  -6   0  12 -12.248 11.9467   1 
  -5   0  12 -6.5771 6.71537   1 
  -4   0  12 56.8483 9.37296   1 
  -4   0  12 21.5275 11.6217   2 
  -3   0  12 -2.7456 7.16056   1 
  -2   0  12 47.8406 8.53481   1 
  -2   0  12 17.5610 11.3601   2 
  -1   0  12 31.4022 7.96054   1 
  -1   0  12 9.85900 10.5322   2 
   0   0  12 76.4100 9.30276   1 
   0   0  12 27.8989 7.85464   2 
   1   0  12 10.1565 7.31663   2 
   1   0  12 26.4579 7.91247   1 
   2   0  12 10.3608 7.44850   1 
   2   0  12 2.30256 6.97290   2 
   3   0  12 -7.8561 6.92405   1 
   3   0  12 0.57499 7.48810   2 
   4   0  12 5.15735 7.64669   1 
   4   0  12 11.6864 7.70175   2 
   5   0  12 20.3168 8.01767   1 
   5   0  12 0.59513 7.75313   2 
   6   0  12 1.19346 7.32969   2 
   6   0  12 18.0841 8.31916   1 
   7   0  12 4.54678 7.86853   2 
   7   0  12 11.9755 13.1868   1 
   8   0  12 11.2366 8.25373   2 
   8   0  12 3.78047 13.0524   1 
   9   0  12 22.5925 8.50497   2 
   9   0  12 36.6720 14.4440   1 
  -8   1  12 28.5736 14.4886   1 
  -8   1  12 -0.8986 11.8154   2 
  -7   1  12 -13.815 11.8587   1 
  -7   1  12 0.46237 10.9240   2 
  -6   1  12 34.1390 12.1509   2 
   5  10  14 63.4089 20.2016  -2 
  -6   1  12 63.4089 20.2016   1 
  -5   1  12 17.9417 11.0714   2 
  -5   1  12 25.8409 14.1082   1 
  -4   1  12 41.9869 8.90053   1 
  -4   1  12 -4.8607 9.71864   2 
  -3   1  12 15.7204 10.7966   2 
  -3   1  12 62.6291 8.76662   1 
  -2   1  12 35.7496 7.85027   1 
  -2   1  12 7.10471 10.2207   2 
  -1   1  12 41.4863 8.03323   1 
  -1   1  12 13.4113 10.5457   2 
  -1   9  11 30.7959 14.7731  -2 
   0   1  12 30.7959 14.7731   1 
   0   1  12 9.64802 11.2170   1 
   0   1  12 5.22869 6.83614   2 
   1   1  12 11.2982 6.98896   2 
   1   1  12 28.0256 7.53427   1 
   2   1  12 4.90746 6.92718   2 
   2   1  12 7.49082 7.16289   1 
   3   1  12 1.61565 6.95865   2 
   3   1  12 1.98866 7.13385   1 
   4   1  12 1.20070 7.15281   1 
   4   1  12 0.52370 6.83185   2 
   5   1  12 40.1970 8.17820   2 
   5   1  12 81.3963 10.1864   1 
   6   1  12 7.93391 7.50995   2 
   6   1  12 6.32230 7.84476   1 
   7   1  12 122.763 11.9182   1 
   7   1  12 48.7202 9.45215   2 
   8   1  12 29.3238 9.54711   1 
   8   1  12 17.6290 7.93331   2 
   9   1  12 -8.7822 7.79216   2 
   9   1  12 22.8556 13.6746   1 
  10   1  12 15.7208 8.74516   2 
  10   1  12 40.6269 16.6044   1 
  -9   2  12 17.1161 15.0036   1 
  -8   2  12 -4.0618 11.2928   2 
  -8   2  12 20.8483 13.7577   1 
  -7   2  12 22.6675 12.0822   2 
  -7   2  12 43.2628 14.7561   1 
  -6   2  12 4.82204 12.4210   1 
  -6   2  12 8.21658 10.7155   2 
  -5   2  12 95.6618 16.3296   1 
  -5   2  12 34.9546 12.0362   2 
  -4   2  12 5.15430 9.60157   2 
  -4   2  12 9.05406 10.6642   1 
  -3   2  12 63.3437 8.64544   1 
  -3   2  12 22.6163 10.6024   2 
  -2   2  12 15.3543 6.81245   1 
  -2   2  12 4.72284 9.83218   2 
  -1   2  12 22.0512 6.92428   1 
  -1   2  12 -4.4386 6.17251   2 
   0   2  12 35.3160 7.83242   1 
   0   2  12 13.6952 6.60799   2 
   1   2  12 38.4892 7.76993   1 
   1   2  12 19.4699 6.83629   2 
   2   2  12 -3.4912 8.42721   2 
   2   2  12 14.7287 6.87562   1 
   3   2  12 36.0937 7.42129   2 
   3   2  12 54.6808 8.37684   1 
   4   2  12 34.8104 8.05030   1 
   5   2  12 12.6430 6.98051   2 
   5   2  12 27.1686 7.84827   1 
   6   2  12 88.1687 10.2586   1 
   6   2  12 49.0808 8.90234   2 
   7   2  12 3.43654 7.25771   2 
   7   2  12 8.07045 7.95792   1 
   8   2  12 26.2335 9.48059   1 
   8   2  12 9.17327 8.14849   2 
   9   2  12 3.44491 9.13570   1 
   9   2  12 2.10347 7.95424   2 
  10   2  12 9.88872 8.49852   2 
  10   2  12 4.11708 13.3600   1 
  -9   3  12 33.4364 16.0462   1 
  -8   3  12 13.3077 13.1954   1 
  -8   3  12 10.2290 13.0965   2 
  -7   3  12 -7.0850 10.4145   2 
  -7   3  12 15.9489 12.1091   1 
  -6   3  12 21.4750 11.1173   2 
  -5   3  12 -0.4693 9.51295   2 
  -5   3  12 13.4529 11.3034   1 
  -4   3  12 74.7370 14.1167   1 
  -4   3  12 27.6047 11.1056   2 
  -3   3  12 50.0712 12.0109   2 
  -3   3  12 113.393 16.6180   1 
  -2   3  12 4.16783 6.01780   1 
  -2   3  12 9.14718 6.04832   2 
  -1   3  12 -2.3731 6.31384   1 
  -1   3  12 9.31132 6.38555   2 
   0  10  10 113.486 20.6547  -2 
   0   3  12 113.486 20.6547   1 
   0   3  12 41.4733 7.64949   2 
   0   3  12 102.806 12.3511   1 
   1   3  12 5.70001 6.28552   2 
   1   3  12 5.96782 5.81881   1 
   2   3  12 48.5545 7.90434   2 
   2   3  12 124.187 9.72654   1 
   3   3  12 22.0128 6.95335   1 
   3   3  12 4.33095 6.66659   2 
  -4   9   8 214.460 20.1824  -2 
   4   3  12 214.460 20.1824   1 
   4   3  12 99.5260 9.68215   2 
   4   3  12 200.577 16.0378   1 
   5   3  12 2.81733 6.47822   1 
   5   3  12 -5.7381 6.49303   2 
   6   3  12 34.9347 8.05929   1 
   6   3  12 15.9730 7.09709   2 
   7   3  12 7.19660 7.86477   1 
   7   3  12 7.59331 7.24427   2 
   8   3  12 4.53688 7.91888   1 
   8   3  12 -1.8865 6.90578   2 
   9   3  12 -0.0817 7.15087   2 
  -9   8   6 13.7090 21.1994  -2 
   9   3  12 13.7090 21.1994   1 
   9   3  12 4.16719 13.0565   1 
  10   3  12 6.42253 8.67920   2 
 -10   8   5 33.1237 23.0083  -2 
  10   3  12 33.1237 23.0083   1 
  11   3  12 16.5174 10.8875   1 
  11   3  12 3.14191 8.53767   2 
  -9   4  12 -17.300 12.5793   1 
   8  12  13 3.23948 17.0268  -2 
  -8   4  12 3.23948 17.0268   1 
  -8   4  12 -2.7471 13.1088   2 
  -7   4  12 3.48462 10.9916   2 
  -7   4  12 0.04025 11.7062   1 
  -6   4  12 4.84906 12.4395   1 
  -6   4  12 -15.203 9.16456   2 
  -5   4  12 8.52215 11.6121   1 
  -4   4  12 3.52587 9.42474   2 
  -4   4  12 30.3421 12.9968   1 
  -3   4  12 24.4885 11.7480   1 
  -2   4  12 27.6672 11.5749   1 
  -2   4  12 21.9911 6.80746   2 
  -1   4  12 171.216 10.1295   1 
  -1   4  12 65.3051 8.10459   2 
   0   4  12 134.795 9.45260   1 
   0   4  12 58.8139 7.86920   2 
   1   4  12 18.5294 6.26481   1 
   1   4  12 3.68583 6.42313   2 
   2   4  12 6.94795 6.30147   2 
   2   4  12 13.2144 6.63896   1 
   3   4  12 33.8100 7.65483   2 
   3   4  12 76.2235 8.72740   1 
   4   4  12 -7.7575 6.02692   1 
   4   4  12 0.43751 6.37419   2 
   5   4  12 51.2800 8.26219   1 
   5   4  12 15.3899 6.79963   2 
   6   4  12 8.79674 7.36901   1 
   6   4  12 -1.0930 5.99480   2 
   7   4  12 2.14757 6.39512   2 
   7   4  12 4.98053 7.59249   1 
   8   4  12 9.52411 8.71618   1 
   8   4  12 5.77217 6.87169   2 
   9   4  12 48.9007 10.3734   1 
   9   4  12 16.2121 7.55382   2 
  10   4  12 18.3471 9.54024   1 
  10   4  12 4.02399 7.60003   2 
  11   4  12 22.9454 10.8920   1 
  -8   5  12 -2.5668 12.4845   2 
  -8   5  12 -14.289 10.6462   1 
  -7   5  12 -14.381 10.8761   1 
  -7   5  12 -4.2644 11.9765   2 
  -6   5  12 33.8530 12.4016   2 
  -6   5  12 56.6474 15.3874   1 
  -5   5  12 -7.1712 8.88624   2 
  -5   5  12 -3.3926 11.4268   1 
  -4   5  12 12.1613 9.75262   2 
  -4   5  12 26.2548 12.0892   1 
  -3   5  12 135.872 16.8768   1 
  -3   5  12 34.9166 7.47362   2 
  -2   5  12 64.4802 13.3019   1 
  -2   5  12 27.7824 10.1908   2 
  -1   5  12 89.2547 8.22357   1 
  -1   5  12 38.1820 7.51699   2 
   0   5  12 -3.8679 5.40180   1 
   0   5  12 -0.2256 6.08586   2 
   1   5  12 90.1205 8.32984   1 
   1   5  12 35.5192 7.39080   2 
   2   5  12 -2.5978 5.83838   2 
   2   5  12 5.56415 5.73899   1 
   3   5  12 17.8257 6.24378   1 
   4   5  12 -5.0236 6.07322   1 
   4   5  12 4.60775 6.25597   2 
   5   5  12 40.3015 9.94264   2 
   5   5  12 67.4293 8.77077   1 
   6   5  12 -12.454 9.76301   2 
   6   5  12 -3.5561 6.61903   1 
   7   5  12 119.180 11.4918   1 
   7   5  12 35.8768 7.46252   2 
   8   5  12 19.2520 8.71996   1 
   8   5  12 14.3018 6.72243   2 
   9   5  12 21.7270 7.55388   2 
   9   5  12 37.1523 9.95761   1 
  10   5  12 25.9229 8.13097   1 
  10   5  12 9.61203 13.4772   2 
  11   5  12 -10.316 7.15688   1 
  11   5  12 14.8721 14.1990   2 
  -8   6  12 4.37151 12.1740   1 
  -8   6  12 11.2912 12.0152   2 
  -7   6  12 7.49800 12.8058   2 
  -7   6  12 20.1893 12.6885   1 
  -6   6  12 -12.037 10.2447   2 
  -6   6  12 8.57718 11.1633   1 
  -5   6  12 118.031 17.6694   1 
  -5   6  12 46.6831 12.2700   2 
  -4   6  12 30.2286 12.8705   1 
  -4   6  12 6.53448 9.81402   2 
  -3   6  12 57.5659 8.00322   2 
  -3   6  12 119.164 15.7500   1 
  -2   6  12 39.6739 11.7841   1 
  -2   6  12 19.2409 6.81481   2 
  -1   6  12 -0.4974 9.39517   1 
  -1   6  12 2.17336 6.04750   2 
   0   6  12 73.3522 7.73447   1 
   0   6  12 26.6498 7.17919   2 
   1   6  12 80.3934 7.94724   1 
   1   6  12 40.8229 7.76012   2 
  -1  11   7 8.33389 8.84449  -2 
   2   6  12 8.33389 8.84449   1 
   3   6  12 5.20786 6.20944   1 
   3   6  12 7.43050 6.19599   2 
   4   6  12 40.8072 7.88074   1 
   4   6  12 15.5955 9.15160   2 
   5   6  12 5.84100 6.29697   2 
   5   6  12 20.9279 7.11879   1 
   6   6  12 31.2086 6.49749   1 
   6   6  12 21.3236 6.93610   2 
  -6  10   5 60.3043 15.9812  -2 
   7   6  12 60.3043 15.9812   1 
   7   6  12 64.1172 15.1675   1 
   7   6  12 21.8268 7.02106   2 
   8   6  12 112.116 9.58260   1 
   8   6  12 40.3573 10.4431   2 
   9   6  12 8.06636 11.9950   2 
   9   6  12 1.53898 6.79112   1 
  10   6  12 13.1337 7.60268   1 
  10   6  12 1.63044 12.5704   2 
  11   6  12 -4.6060 9.61278   1 
  11   6  12 6.46839 13.7575   2 
  -8   7  12 2.92006 13.4645   2 
  -8   7  12 19.3956 12.1621   1 
  -7   7  12 13.5153 12.4127   2 
  -7   7  12 46.5579 15.4220   1 
  -6   7  12 39.3000 13.6683   1 
  -6   7  12 2.33999 11.1239   2 
  -5   7  12 3.87119 10.4798   2 
  -5   7  12 7.11176 10.5852   1 
  -4   7  12 150.792 18.1479   1 
  -3   7  12 37.1881 12.1271   1 
  -3   7  12 15.4485 7.08149   2 
  -2   7  12 18.4963 10.9885   1 
  -2   7  12 5.32596 6.84283   2 
  -1   7  12 -1.7756 8.19421   1 
  -1   7  12 8.50171 6.77702   2 
   0   7  12 0.25492 6.16688   2 
   0   7  12 -9.5471 7.76961   1 
   1   7  12 5.26117 5.31144   1 
   1   7  12 -4.0500 6.30459   2 
   2   7  12 58.5571 8.18834   2 
   2   7  12 133.028 9.26664   1 
   3   7  12 -2.4915 6.14833   2 
   3   7  12 3.69466 5.45024   1 
   4   7  12 78.9556 13.9161   1 
   4   7  12 35.6980 7.55464   2 
   5   7  12 6.64204 5.53621   1 
   5   7  12 -7.8477 5.90980   2 
   6   7  12 85.4789 8.20449   1 
   6   7  12 37.5650 7.35907   2 
   7   7  12 10.7730 6.53794   1 
   7   7  12 -16.504 9.84558   2 
   8   7  12 15.1240 11.2839   2 
   8   7  12 4.86936 6.71923   1 
   9   7  12 24.4612 7.79662   1 
   9   7  12 15.5280 12.6752   2 
  10   7  12 18.3259 7.86112   1 
  11   7  12 -13.280 13.3356   2 
  11   7  12 2.52882 7.64920   1 
  -8   8  12 13.2894 12.2058   1 
  -7   8  12 -5.4458 10.6233   1 
  -7   8  12 5.50899 12.9294   2 
  -6   8  12 7.67612 11.3469   1 
  -6   8  12 11.0653 12.2367   2 
  -5   8  12 12.2715 10.4073   2 
  -5   8  12 7.75384 11.2170   1 
  -4   8  12 -4.4850 7.62582   2 
  -4   8  12 19.2384 11.7941   1 
  -3   8  12 5.68111 7.25333   2 
  -3   8  12 12.8436 11.4944   1 
  -2   8  12 66.6427 8.46835   2 
  -2   8  12 190.317 18.5529   1 
  -1   8  12 5.28737 9.80133   1 
  -1   8  12 -1.7525 6.33215   2 
   0   8  12 8.38083 6.50667   2 
   0   8  12 43.2571 12.4840   1 
   1   8  12 17.4223 10.9082   1 
   1   8  12 8.06908 6.89447   2 
   2   8  12 16.3203 5.81964   1 
   2   8  12 1.47978 6.20771   2 
   3   8  12 82.7952 8.84724   2 
   3   8  12 175.768 10.2098   1 
   4   8  12 0.74489 5.71387   2 
   4   8  12 2.77094 5.10392   1 
   5   8  12 9.45306 6.30584   2 
   5   8  12 22.5190 5.95079   1 
   6   8  12 -4.4098 5.57892   1 
   7   8  12 9.37327 12.6574   2 
   7   8  12 8.40704 8.28617   1 
   8   8  12 6.69222 11.4352   2 
   8   8  12 -5.7945 12.2674   1 
   9   8  12 47.0898 11.0202   1 
   9   8  12 20.1650 13.4208   2 
  10   8  12 -1.2306 9.28607   1 
  10   8  12 -6.4906 11.6449   2 
  11   8  12 42.0069 11.4525   1 
  11   8  12 14.8570 13.8706   2 
  -7   9  12 10.7738 14.0386   2 
  -7   9  12 29.1338 13.5977   1 
   8  14   9 8.66298 16.8756  -2 
  -6   9  12 8.66298 16.8756   1 
  -6   9  12 -1.5766 12.4084   2 
  -5   9  12 6.00835 7.57702   2 
  -5   9  12 -3.3527 10.1511   1 
  -4   9  12 19.0077 7.72658   2 
  -4   9  12 21.3405 12.3302   1 
  -3   9  12 58.5638 14.4956   1 
  -3   9  12 31.6399 8.00547   2 
  -2   9  12 12.3553 7.47185   2 
  -2   9  12 6.14354 11.0328   1 
  -1   9  12 136.609 16.6989   1 
  -1   9  12 40.4300 8.18034   2 
   0   9  12 22.6482 7.06079   2 
   2  13   6 28.8712 18.6308  -2 
   0   9  12 28.8712 18.6308   1 
   1   9  12 0.68577 6.14893   2 
   1   9  12 -10.576 8.46267   1 
   2   9  12 24.5928 7.08461   2 
   2   9  12 48.3368 7.01871   1 
   3   9  12 -0.4271 5.77311   1 
   4   9  12 24.1158 6.74834   1 
   4   9  12 13.6184 6.61548   2 
  -2  12   4 21.0285 18.5633  -2 
   4   9  12 21.0285 18.5633   1 
   5   9  12 13.8790 7.74469   1 
   5   9  12 19.6927 12.4790   2 
   6   9  12 -13.413 9.44741   2 
   6   9  12 -2.4212 7.65854   1 
   7   9  12 37.2016 9.69846   1 
   7   9  12 4.57360 11.7320   2 
   8   9  12 20.9393 14.2726   2 
   8   9  12 12.3770 9.10799   1 
   9   9  12 -17.960 11.2431   2 
   9   9  12 11.6444 10.0140   1 
  10   9  12 48.6632 11.7021   1 
  10   9  12 26.6709 13.7018   2 
  11   9  12 -13.028 12.3036   2 
  11   9  12 1.57055 10.4648   1 
  -7  10  12 9.10916 12.3324   1 
  -6  10  12 5.61222 11.1500   1 
  -6  10  12 14.4830 11.2682   2 
  -5  10  12 64.6826 14.9793   1 
  -5  10  12 14.5786 8.91019   2 
  -4  10  12 -0.1522 7.84291   2 
  -4  10  12 13.6356 12.0545   1 
  -3  10  12 49.7818 13.3290   1 
  -3  10  12 7.52502 7.70371   2 
  -2  10  12 49.3033 13.0531   1 
  -2  10  12 15.6139 7.71733   2 
  -1  10  12 -6.1102 9.43556   1 
  -1  10  12 -2.0972 7.11254   2 
   0  10  12 2.35491 6.30880   2 
   0  10  12 34.5322 12.3303   1 
   1  10  12 2.34479 6.37896   2 
   1  10  12 -10.481 9.30094   1 
   2  10  12 0.49166 5.85341   2 
   2  10  12 -2.6175 9.14054   1 
   3  10  12 0.62953 5.21607   1 
   3  10  12 -0.3951 6.54483   2 
   4  10  12 10.0649 7.14062   1 
   4  10  12 -6.1793 10.2214   2 
   5  10  12 -8.2697 9.76096   2 
   5  10  12 -0.8080 7.37564   1 
   6  10  12 46.2217 9.40656   1 
   6  10  12 9.71934 11.9264   2 
   7  10  12 -0.8834 8.20256   1 
   7  10  12 6.18018 11.7860   2 
   8  10  12 70.4123 11.0811   1 
   8  10  12 23.6577 13.3839   2 
   9  10  12 1.43850 9.15356   1 
   9  10  12 16.8366 13.4592   2 
  10  10  12 13.1491 13.8968   2 
  10  10  12 30.8369 10.7076   1 
  11  10  12 19.7090 10.4815   1 
  -6  11  12 -2.1313 8.01031   2 
  -6  11  12 9.85003 12.0074   1 
  -5  11  12 16.7633 11.3203   1 
  -4  11  12 35.1175 13.0270   1 
  -3  11  12 15.1252 11.4772   1 
  -3  11  12 1.82859 7.10737   2 
  -2  11  12 13.6607 7.41238   2 
  -2  11  12 55.7844 14.0155   1 
  -1  11  12 -1.2663 6.90871   2 
  -1  11  12 3.33109 10.3519   1 
   0  11  12 -5.8039 6.56704   2 
   3  14   5 43.0028 17.3493  -2 
   0  11  12 43.0028 17.3493   1 
   1  11  12 -9.3077 7.68339   2 
   1  11  12 -3.3428 10.0282   1 
   2  11  12 21.4847 12.1203   2 
   2  11  12 51.0276 13.2132   1 
   3  11  12 7.28973 10.4805   1 
   3  11  12 -5.1398 9.92006   2 
  -1  13   3 22.3948 15.6722  -2 
   4  11  12 22.3948 15.6722   1 
   4  11  12 13.3717 11.6896   2 
   4  11  12 19.8766 11.2945   1 
   5  11  12 67.2300 9.99885   1 
   5  11  12 28.2673 13.9295   2 
   6  11  12 -7.3832 11.5956   2 
   6  11  12 4.51816 7.94609   1 
   7  11  12 7.07063 8.37677   1 
   7  11  12 -5.1745 12.0303   2 
   8  11  12 17.8630 9.41600   1 
   8  11  12 24.4729 15.2633   2 
   9  11  12 8.52767 13.5240   2 
   9  11  12 6.31100 9.57090   1 
  10  11  12 7.86161 10.1064   1 
  10  11  12 7.15501 13.6856   2 
  -5  12  12 19.5692 12.7298   1 
  -5  12  12 14.3810 9.07731   2 
  -4  12  12 1.89829 8.44515   2 
  -4  12  12 1.80482 10.6949   1 
  -3  12  12 3.43071 11.3596   1 
  -3  12  12 -0.8457 7.58895   2 
  -2  12  12 17.8780 7.54678   2 
  -2  12  12 24.4260 12.1908   1 
  -1  12  12 -4.8024 10.1516   1 
  -1  12  12 -4.2909 7.55592   2 
   0  12  12 7.29341 11.5181   1 
   0  12  12 4.55561 6.85224   2 
   1  12  12 11.1645 10.9797   1 
   1  12  12 8.46213 10.8235   2 
   2  12  12 -7.6143 10.6238   2 
   2  12  12 9.42166 11.3314   1 
   3  12  12 39.7369 12.8641   1 
   3  12  12 4.34216 11.4447   2 
   4  12  12 -0.2316 10.3349   1 
   5  12  12 26.8761 8.95927   1 
   5  12  12 7.52401 11.6332   2 
   6  12  12 3.22802 8.06394   1 
   6  12  12 1.78104 11.3190   2 
   7  12  12 32.4259 10.0765   1 
   7  12  12 16.6535 16.4723   2 
   8  12  12 17.9710 9.12754   1 
   8  12  12 4.54954 12.7647   2 
   9  12  12 0.78091 12.6566   2 
   9  12  12 6.15637 9.80661   1 
  10  12  12 -13.557 9.63912   1 
  10  12  12 -1.8098 13.1475   2 
  -4  13  12 7.71854 8.61428   2 
  -4  13  12 1.04902 10.6893   1 
  -3  13  12 17.7235 12.2753   1 
  -3  13  12 5.85652 7.99909   2 
  -2  13  12 -2.3109 7.11902   2 
  -2  13  12 4.55320 11.6674   1 
  -1  13  12 26.7188 8.48810   2 
  -1  13  12 36.8296 13.0901   1 
   0  13  12 4.13151 10.8011   1 
   0  13  12 0.55227 12.5906   2 
   1  13  12 47.1967 13.2858   1 
   1  13  12 18.5357 13.1096   2 
   2  13  12 14.9981 12.1269   2 
   2  13  12 11.2221 10.8370   1 
   3  13  12 -3.9731 10.0237   1 
   4  13  12 33.6938 12.6279   1 
   4  13  12 -8.4094 11.3139   2 
   5  13  12 26.7751 14.3073   2 
   5  13  12 -4.0638 11.1463   1 
   6  13  12 6.88117 8.62669   1 
   6  13  12 24.9632 14.2666   2 
   7  13  12 31.4731 9.86845   1 
   7  13  12 18.6965 14.1331   2 
   8  13  12 1.41532 8.69888   1 
   8  13  12 -4.2842 13.3937   2 
   9  13  12 16.3147 13.8665   2 
   9  13  12 -5.7675 9.03173   1 
  -3  14  12 11.8251 8.52566   2 
  -2  14  12 7.00853 12.8850   1 
  -2  14  12 7.24787 13.7555   2 
  -1  14  12 3.06141 12.8595   2 
  -1  14  12 8.98323 12.4116   1 
   0  14  12 -4.6287 10.7463   1 
   0  14  12 12.0564 13.6965   2 
   1  14  12 -7.0106 11.0143   1 
   1  14  12 -20.897 10.0711   2 
   2  14  12 -7.3434 11.8396   2 
   2  15   2 9.94162 16.2781  -2 
   2  14  12 9.94162 16.2781   1 
   3  14  12 18.4992 12.0485   1 
   3  14  12 -5.2252 11.5522   2 
   4  14  12 -21.276 10.6750   1 
   4  14  12 -3.1769 11.9912   2 
   5  14  12 -3.5268 11.0125   1 
   5  14  12 -19.665 10.4077   2 
   6  14  12 5.41205 13.0383   2 
  -2  14   0 -2.7034 18.2524  -2 
   6  14  12 -2.7034 18.2524   1 
   7  14  12 -7.4615 11.7279   1 
   7  14  12 -6.3404 12.4865   2 
  -3  14   0 -0.5837 20.4539  -2 
   7  14  12 -0.5837 20.4539   1 
   8  14  12 -0.4896 9.10339   1 
   8  14  12 -11.591 12.1322   2 
  -1  15  12 9.56198 14.1745   2 
   0  15  12 7.34765 13.8665   2 
   0  15  12 -2.4096 11.3574   1 
   1  15  12 9.21930 12.0851   2 
   1  15  12 -9.6264 10.7996   1 
   2  15  12 13.6987 12.2183   1 
   2  15  12 25.3499 14.3486   2 
   3  15  12 5.39981 12.6059   2 
   3  15  12 14.3830 12.4202   1 
   4  15  12 4.77618 12.6317   2 
   4  15  12 9.90635 12.0215   1 
   5  15  12 9.07774 13.1175   2 
   5  15  12 -1.6685 11.8080   1 
   6  15  12 -8.3816 13.4373   2 
   6  15  12 10.2823 13.8733   1 
   7  15  12 25.1867 13.8864   1 
   7  15  12 -22.437 11.5754   2 
   3  16   1 -19.207 19.4528  -2 
   2  16  12 -19.207 19.4528   1 
   2  16  12 10.5875 14.3876   2 
   3  16  12 36.4976 16.0301   2 
   3  16  12 24.4672 13.3775   1 
   4  16  12 0.47533 13.5959   2 
  -2  -5  13 11.5147 12.9278   1 
  -2  -5  13 7.91841 14.5708   2 
  -1  -5  13 -12.070 13.2810   2 
  -1  -5  13 27.4087 14.5814   1 
   0  -5  13 -16.741 12.7493   2 
   0  -5  13 16.8311 13.1157   1 
   1  -5  13 23.7789 14.4787   1 
   1  -5  13 2.39807 14.5432   2 
   2  -5  13 33.9678 14.1623   1 
   2  -5  13 11.3963 14.5196   2 
  -4  -4  13 -8.6985 13.4558   2 
  -4  -4  13 4.94323 9.06752   1 
  -3  -4  13 -10.537 12.7239   2 
  -3  -4  13 22.1862 13.2919   1 
  -2  -4  13 -4.6953 12.3602   2 
  -1  -4  13 -1.9175 12.8278   2 
  -1  -4  13 -10.073 10.1578   1 
   0  -4  13 11.2316 13.5775   2 
   0  -4  13 2.80984 11.3800   1 
   1  -4  13 27.6257 15.3665   2 
   1  -4  13 -10.132 10.7187   1 
   2  -4  13 4.64249 12.9229   2 
   2  -4  13 -16.388 11.3239   1 
   3  -4  13 18.0831 13.6132   2 
   3  -4  13 43.5667 15.4189   1 
   4  -4  13 0.21654 6.88536   2 
   4  -4  13 15.6917 13.4667   1 
  -5  -3  13 -3.7440 12.1150   2 
  -5  -3  13 0.13150 8.47628   1 
  -4  -3  13 6.61456 8.54715   1 
  -4  -3  13 6.01965 13.6274   2 
  -3  -3  13 0.97321 8.08512   1 
  -3  -3  13 10.9076 14.4769   2 
  -2  -3  13 -1.1481 8.66351   1 
  -2  -3  13 4.99335 12.8274   2 
  -1  -3  13 27.7294 13.8316   2 
  -1  -3  13 21.1912 8.99413   1 
   0  -3  13 -10.194 11.1545   2 
   0  -3  13 20.8576 12.1059   1 
   1  -3  13 5.07941 11.0321   1 
   1  -3  13 1.29898 13.0319   2 
   2  -3  13 14.9662 12.1420   2 
   2  -3  13 34.8518 13.8383   1 
   3  -3  13 7.82243 6.30135   2 
   3  -3  13 6.59668 12.4050   1 
   4  -3  13 37.2109 14.1754   1 
   4  -3  13 22.2579 8.95258   2 
   5  -3  13 2.93641 6.55426   2 
   5  -3  13 8.89774 13.8936   1 
   6  -3  13 -5.2674 6.77877   2 
   6  -3  13 25.7451 15.1542   1 
  -6  -2  13 -8.6806 14.6187   1 
  -5  -2  13 7.13256 9.15804   1 
  -5  -2  13 21.6395 14.7442   2 
  -4  -2  13 5.82230 8.41637   1 
  -4  -2  13 -19.175 10.7793   2 
  -3  -2  13 18.4996 8.75044   1 
  -3  -2  13 3.76421 12.0988   2 
  -2  -2  13 25.8128 14.1542   2 
  -2  -2  13 34.2323 8.99208   1 
  -1  -2  13 10.7624 8.34677   1 
  -1  -2  13 1.77555 12.5280   2 
   0  -2  13 49.5697 12.5530   1 
   0  -2  13 26.5400 13.9595   2 
  -2   8  14 59.2963 23.2653  -2 
   0  -2  13 59.2963 23.2653   1 
   1  -2  13 22.7817 12.9157   2 
   1  -2  13 19.6314 9.22474   1 
   2  -2  13 8.50738 8.69674   2 
   2  -2  13 22.4614 12.0011   1 
   3  -2  13 1.89671 9.00212   2 
   3  -2  13 -10.551 11.5086   1 
   4  -2  13 9.21886 13.5590   1 
   4  -2  13 -6.9827 8.37841   2 
   5  -2  13 20.5037 9.41405   2 
   5  -2  13 47.4579 14.6469   1 
   6  -2  13 3.56907 8.92384   2 
   6  -2  13 20.4117 13.4657   1 
   7  -2  13 -2.8749 9.04749   2 
   7  -2  13 14.7700 13.6275   1 
  -7  -1  13 11.0841 14.9012   1 
  -7  -1  13 6.61646 13.4563   2 
  -6  -1  13 4.74468 12.1607   2 
  -6  -1  13 21.9869 14.6845   1 
  -5  -1  13 -8.5158 11.1602   2 
  -5  -1  13 21.2626 8.82129   1 
  -4  -1  13 20.7574 8.16400   1 
  -4  -1  13 5.85280 13.1461   2 
  -3  -1  13 14.0231 8.54663   1 
  -3  -1  13 2.18217 12.1849   2 
  -2  -1  13 -9.4510 11.5004   2 
  -2  -1  13 17.4261 7.84289   1 
  -1  -1  13 52.6343 9.39152   1 
  -1  -1  13 -20.164 9.51979   2 
   0  -1  13 -12.047 11.3109   2 
   0  -1  13 2.35893 7.79671   1 
   1  -1  13 125.550 11.7074   1 
   1  -1  13 63.1535 14.6636   2 
   2  -1  13 20.0787 8.80793   1 
   2  -1  13 9.64134 8.00157   2 
   3  -1  13 11.3042 8.02009   2 
   3  -1  13 5.41947 10.7007   1 
   4  -1  13 2.16940 8.14416   2 
   4  -1  13 4.93516 11.4422   1 
   5  -1  13 20.5336 13.7800   1 
   5  -1  13 1.93061 8.29535   2 
   6  -1  13 2.13737 8.02548   2 
   6  -1  13 0.13715 12.0353   1 
   7  -1  13 20.7455 9.20456   2 
   7  -1  13 45.3388 15.1695   1 
   8  -1  13 9.97914 12.3302   2 
   8  -1  13 7.17613 13.7231   1 
  -7   0  13 37.4375 15.7592   1 
  -7   0  13 17.9963 12.7851   2 
  -6   0  13 13.3306 14.0272   1 
  -6   0  13 11.1443 11.7231   2 
  -5   0  13 31.1731 13.5736   2 
  -5   0  13 66.0018 16.9690   1 
  -4   0  13 16.3999 7.72174   1 
  -4   0  13 7.41159 11.6113   2 
  -3   0  13 -7.5729 11.0954   2 
  -3   0  13 26.0366 8.62836   1 
  -2   0  13 -2.0763 11.2821   2 
  -2   0  13 -4.2537 6.63809   1 
  -1   0  13 -2.0044 10.7131   2 
  -1   0  13 4.58836 7.37307   1 
   0   0  13 11.1586 11.7449   2 
   0   0  13 14.4011 7.78374   1 
   1   0  13 14.7733 8.15517   2 
   1   0  13 32.9702 8.41617   1 
   2   0  13 15.1788 8.01751   1 
   2   0  13 -8.4032 8.18274   2 
   3   0  13 91.3562 10.3893   1 
   3   0  13 36.1997 13.4023   2 
   4   0  13 -1.4233 8.12204   2 
   4   0  13 8.23091 7.98514   1 
   5   0  13 16.5118 8.32903   2 
   5   0  13 60.4817 10.1442   1 
   6   0  13 31.5361 9.10322   2 
   6   0  13 98.6661 18.5752   1 
   7   0  13 3.42082 11.7474   1 
   7   0  13 -5.3409 7.57004   2 
   8   0  13 75.9011 17.4261   1 
   8   0  13 30.0488 9.20122   2 
  -7   1  13 18.8786 14.9611   1 
  -7   1  13 8.06994 12.3567   2 
  -6   1  13 25.8060 14.6745   1 
  -6   1  13 -1.7529 11.0185   2 
  -5   1  13 -2.4894 11.2757   2 
  -5   1  13 -2.4101 13.1080   1 
  -4   1  13 21.4947 12.2481   2 
  -4   1  13 36.0674 14.1015   1 
  -3   1  13 2.94753 7.54567   1 
  -3   1  13 4.16528 10.7992   2 
   1  10  13 15.5022 11.3642  -2 
  -2   1  13 15.5022 11.3642   1 
  -2   1  13 1.04751 11.4516   2 
  -1   1  13 4.35937 7.65024   1 
  -1   1  13 7.66990 10.9485   2 
   0   1  13 54.2321 9.01808   1 
   0   1  13 38.9709 12.8431   2 
   1   1  13 10.0816 8.02662   1 
   1   1  13 17.0703 8.12360   2 
   2   1  13 43.5830 8.98214   1 
   2   1  13 11.6876 7.71050   2 
   3   1  13 -6.6587 7.41761   2 
   3   1  13 5.93277 7.39831   1 
   4   1  13 51.3512 9.91151   2 
   4   1  13 96.7813 10.8032   1 
   5   1  13 5.49718 7.55411   2 
   5   1  13 -6.3169 7.00888   1 
   6   1  13 13.0311 7.98090   2 
   6   1  13 38.9635 9.52329   1 
  -8   8   9 40.1237 23.4703  -2 
   7   1  13 40.1237 23.4703   1 
   7   1  13 8.12494 8.42049   2 
   7   1  13 44.9265 14.1920   1 
   8   1  13 -0.3274 7.85456   2 
   8   1  13 10.9113 13.0980   1 
   9   1  13 -1.1224 8.07271   2 
   9   1  13 2.58649 13.2670   1 
  -8   2  13 33.9945 16.0110   1 
  -7   2  13 -25.830 11.0991   2 
  -7   2  13 -5.5374 11.4617   1 
  -6   2  13 3.25254 12.8329   1 
  -5   2  13 -0.1496 10.8132   2 
  -5   2  13 9.23176 12.9382   1 
  -4   2  13 6.56068 10.8758   2 
  -4   2  13 -2.9290 12.2795   1 
  -3   2  13 11.0185 11.2987   2 
  -3   2  13 -7.1319 10.8881   1 
  -2   2  13 47.5771 13.1787   2 
  -2   2  13 86.6116 9.68949   1 
  -1   2  13 5.02773 7.26980   1 
  -1   2  13 -4.5618 10.3686   2 
   0   2  13 34.4869 8.09466   2 
   0   2  13 114.114 10.4033   1 
  -2  10  11 5.22105 21.9305  -2 
   1   2  13 5.22105 21.9305   1 
   1   2  13 33.6170 11.2529   1 
   1   2  13 14.6147 7.48409   2 
   2   2  13 30.1512 7.96172   2 
   2   2  13 39.7963 8.72649   1 
   3   2  13 28.7322 8.31408   2 
   3   2  13 60.0535 9.05905   1 
   4   2  13 14.0966 7.58543   1 
   4   2  13 1.58010 7.21837   2 
   5   2  13 36.8215 8.93137   1 
   5   2  13 -2.9017 7.16296   2 
   6   2  13 -1.7455 7.24932   2 
   6   2  13 -0.0339 7.64487   1 
   7   2  13 5.54978 8.45304   1 
   7   2  13 7.22658 8.10712   2 
   8   2  13 7.56664 8.79908   1 
   8   2  13 9.22003 8.32944   2 
   9   2  13 14.1630 8.22147   2 
   9   2  13 9.47371 13.1797   1 
  -8   3  13 -0.3352 13.0474   1 
  -8   3  13 6.32225 13.5561   2 
  -7   3  13 7.31223 11.8803   2 
  -7   3  13 6.65968 12.9277   1 
  -6   3  13 16.7717 13.8709   1 
  -6   3  13 0.99589 10.1291   2 
  -5   3  13 -3.5242 12.0121   1 
  -5   3  13 -3.2593 10.7248   2 
  -4   3  13 15.2743 11.1950   2 
  -4   3  13 43.4680 15.0559   1 
  -3   3  13 4.57014 9.55562   2 
  -3   3  13 58.6009 15.5531   1 
  -2   3  13 72.6826 8.69560   1 
  -2   3  13 22.7675 11.3623   2 
  -1   3  13 43.6751 8.33866   2 
  -1   3  13 120.393 16.8861   1 
   0   3  13 10.6212 7.27741   2 
   0   3  13 26.6214 11.4827   1 
   1   3  13 45.0166 8.12597   1 
   1   3  13 13.7611 7.07507   2 
   2   3  13 27.0968 7.25594   1 
   2   3  13 24.5997 11.3456   2 
   3   3  13 7.10105 6.82069   1 
   3   3  13 0.46165 6.65092   2 
   4   3  13 8.70194 7.42176   2 
   4   3  13 -0.1937 7.34270   1 
   5   3  13 -0.5962 6.87349   2 
   5   3  13 1.42295 7.45550   1 
   6   3  13 1.35963 7.49768   1 
   6   3  13 11.4444 7.28460   2 
   7   3  13 20.3723 7.98455   2 
   7   3  13 60.1337 10.3762   1 
   8   3  13 5.56445 7.93271   2 
   8   3  13 9.69448 9.20334   1 
   9   3  13 42.4270 14.8958   1 
   9   3  13 19.5038 8.83498   2 
  10   3  13 13.9867 10.6042   1 
  10   3  13 5.14883 8.51739   2 
  -8   4  13 16.4693 14.2893   1 
  -8   4  13 -17.483 12.2941   2 
  -7   4  13 10.6947 12.7931   1 
  -7   4  13 28.5743 13.7004   2 
  -6   4  13 0.88484 10.5874   2 
   6  12  13 18.1915 22.1826  -2 
  -6   4  13 18.1915 22.1826   1 
  -5   4  13 70.0913 15.8242   1 
  -5   4  13 28.7300 12.0975   2 
   4  12  12 -7.6070 19.8002  -2 
  -4   4  13 -7.6070 19.8002   1 
  -4   4  13 -22.736 8.19913   2 
  -3   4  13 87.2026 15.7842   1 
  -3   4  13 33.9997 11.8419   2 
  -2   4  13 -0.9166 10.8689   1 
  -2   4  13 6.48651 9.45794   2 
  -1   4  13 1.83617 6.53760   2 
  -1   4  13 -1.9219 6.36753   1 
   0   4  13 49.0530 8.23248   2 
   0   4  13 98.9618 9.34634   1 
   1   4  13 15.8339 6.68277   1 
   1   4  13 -10.589 9.31807   2 
   2   4  13 -0.8673 6.76887   2 
   2   4  13 11.8892 6.77434   1 
   3   4  13 14.4923 7.32663   2 
   3   4  13 49.3184 8.34780   1 
   4   4  13 0.56176 6.75879   1 
   4   4  13 17.6488 7.18675   2 
  -5  10   8 91.4578 13.6593  -2 
   5   4  13 91.4578 13.6593   1 
   5   4  13 27.0462 7.95917   2 
   6   4  13 18.7288 8.37238   1 
   6   4  13 6.75620 7.18482   2 
   7   4  13 20.6389 7.85356   2 
   7   4  13 28.8939 8.87264   1 
   8   4  13 70.2055 11.2906   1 
   8   4  13 36.0178 9.00783   2 
   9   4  13 -5.3206 8.52996   1 
   9   4  13 4.30821 7.79779   2 
  10   4  13 13.3573 8.12286   2 
  10   4  13 46.7962 11.6139   1 
  -8   5  13 -9.3032 12.2065   1 
  -7   5  13 19.3772 14.8748   1 
  -7   5  13 14.2161 12.2311   2 
  -6   5  13 19.1491 13.1834   1 
  -6   5  13 2.09998 11.1945   2 
  -5   5  13 13.7941 13.3280   1 
  -4   5  13 34.1517 11.5373   2 
  -4   5  13 81.8481 16.2704   1 
  -3   5  13 6.92213 11.0272   1 
  -3   5  13 7.44239 9.95426   2 
  -2   5  13 -10.790 6.38737   2 
  -2   5  13 1.07890 11.0937   1 
  -1   5  13 11.7508 6.92730   2 
  -1   5  13 34.6242 11.6783   1 
   0   5  13 18.3572 6.93505   2 
   0   5  13 19.7827 6.55704   1 
   1   5  13 -1.1563 6.81211   2 
   1   5  13 19.6167 6.50362   1 
   2   5  13 -4.3768 6.35345   2 
   2   5  13 3.04031 6.17309   1 
   3   5  13 22.4948 7.12310   1 
   3   5  13 6.15576 7.07429   2 
   4   5  13 68.9850 9.13352   2 
   4   5  13 166.629 11.4580   1 
   5   5  13 41.2093 7.98580   1 
   5   5  13 16.3221 7.41825   2 
   6   5  13 128.072 11.5647   1 
   6   5  13 53.5436 8.85921   2 
   7   5  13 23.8833 8.39426   1 
   7   5  13 -4.1432 6.78048   2 
   8   5  13 21.2801 7.61778   2 
   8   5  13 6.18403 8.38480   1 
   9   5  13 17.2299 9.31770   1 
   9   5  13 -0.3164 7.79999   2 
  10   5  13 0.32399 13.2905   2 
  10   5  13 3.06649 9.46514   1 
  -7   6  13 -11.539 11.1242   1 
  -7   6  13 7.89167 12.6569   2 
  -6   6  13 16.4792 12.8814   1 
  -6   6  13 10.3918 11.7951   2 
  -5   6  13 -1.0382 11.7685   2 
  -5   6  13 58.8819 16.0590   1 
  -4   6  13 -3.5383 9.14073   2 
  -4   6  13 1.51899 10.7948   1 
  -3   6  13 8.23571 10.4924   1 
  -3   6  13 -3.2026 9.54054   2 
  -2   6  13 41.6578 13.0964   1 
  -2   6  13 11.2241 7.41049   2 
  -1   6  13 -3.0455 6.35375   2 
  -1   6  13 5.21561 9.70137   1 
   0   6  13 8.09660 7.07946   2 
   1  12   9 25.4831 19.0387  -2 
   0   6  13 25.4831 19.0387   1 
   1   6  13 -0.5473 5.87114   1 
   1   6  13 -3.4380 6.35216   2 
   2   6  13 77.9628 9.91804   1 
   2   6  13 42.1009 8.01615   2 
   3   6  13 12.8743 6.76728   2 
   3   6  13 48.9968 7.79769   1 
   4   6  13 8.33836 6.80293   1 
   4   6  13 7.89800 7.29523   2 
   5   6  13 77.5835 9.62759   1 
   5   6  13 28.7731 7.86117   2 
   6   6  13 24.0995 12.6319   1 
  -5  11   6 -4.7687 15.2460  -2 
   6   6  13 -4.7687 15.2460   1 
   6   6  13 7.14673 7.13705   2 
   7   6  13 19.0906 8.78395   1 
   7   6  13 1.46140 6.83252   2 
   8   6  13 13.5076 6.80703   2 
   8   6  13 9.26089 8.42374   1 
   9   6  13 3.32533 12.3352   2 
   9   6  13 11.2115 8.90989   1 
  10   6  13 6.72877 9.40144   1 
  10   6  13 4.19711 13.2208   2 
  -7   7  13 -0.8403 13.7363   1 
  -7   7  13 11.0567 13.3933   2 
  -6   7  13 -1.9027 11.0339   2 
   7  14  11 31.0818 24.4547  -2 
  -6   7  13 31.0818 24.4547   1 
  -5   7  13 -14.012 9.94768   2 
  -5   7  13 -13.384 10.7322   1 
  -4   7  13 -5.7690 9.51674   2 
  -4   7  13 3.68303 10.9567   1 
  -3   7  13 10.7892 7.10704   2 
  -3   7  13 19.1251 11.4929   1 
  -2   7  13 8.18841 7.46655   2 
  -2   7  13 13.1165 11.4130   1 
  -1   7  13 56.0283 8.71676   2 
  -1   7  13 130.591 17.1702   1 
   0   7  13 27.3900 11.4068   1 
   1   7  13 43.2716 8.44990   2 
   1   7  13 75.2931 8.35164   1 
   2   7  13 -3.7604 5.77926   1 
   2   7  13 0.12024 8.93195   2 
   3   7  13 14.0263 7.00276   2 
   3   7  13 23.4214 7.27703   1 
   4   7  13 13.5630 11.4462   2 
   4   7  13 44.4150 8.32086   1 
   5   7  13 -8.4114 6.40670   2 
   5   7  13 8.93303 7.08312   1 
   6   7  13 7.29461 7.02477   1 
   6   7  13 3.47412 6.54945   2 
   7   7  13 2.78722 12.1119   2 
   7   7  13 11.2446 6.40132   1 
   8   7  13 -6.1294 12.2655   2 
   8   7  13 -5.6751 6.74575   1 
   9   7  13 47.1031 8.77260   1 
   9   7  13 7.64683 14.1232   2 
  10   7  13 15.5532 8.21397   1 
  10   7  13 -3.7546 11.7943   2 
  11   7  13 14.5858 15.4283   1 
  -7   8  13 -17.631 10.3111   1 
  -7   8  13 7.52014 11.8664   2 
  -6   8  13 4.16991 12.7425   1 
  -6   8  13 3.32099 12.2905   2 
  -5   8  13 33.6168 12.9493   2 
  -5   8  13 43.7172 14.9532   1 
  -4   8  13 -4.9948 7.24619   2 
  -4   8  13 13.0635 11.9595   1 
  -3   8  13 29.1790 8.37514   2 
  -3   8  13 45.4314 14.3355   1 
  -2   8  13 24.4603 7.50059   2 
  -2   8  13 3.95557 10.6926   1 
  -1   8  13 14.6918 7.48042   2 
  -1   8  13 63.8933 14.4287   1 
   0   8  13 14.2427 7.37808   2 
   0   8  13 42.4724 13.0665   1 
   1   8  13 7.04630 7.02894   2 
   1   8  13 -7.5622 9.69538   1 
   2   8  13 27.9039 7.81496   2 
   2   8  13 72.1511 8.10560   1 
   3   8  13 38.6503 7.95525   2 
   3   8  13 47.6924 8.07206   1 
   4   8  13 9.84695 6.52482   2 
   4   8  13 23.6999 6.95465   1 
   5   8  13 37.9900 6.91929   1 
   5   8  13 21.6295 7.05998   2 
   6   8  13 15.3922 6.42383   1 
   6   8  13 11.4180 12.1207   2 
   7   8  13 -3.5759 10.2868   2 
   7   8  13 8.84975 6.09839   1 
   8   8  13 46.1973 8.24138   1 
   8   8  13 15.8348 13.8651   2 
   9   8  13 3.13496 7.25109   1 
   9   8  13 -1.0010 13.3700   2 
  10   8  13 27.1673 8.77408   1 
  10   8  13 -9.4665 12.0441   2 
  -6   9  13 -9.4641 10.1323   1 
  -6   9  13 6.27999 12.6014   2 
  -5   9  13 -12.014 9.66139   1 
  -5   9  13 0.47556 11.6675   2 
  -4   9  13 100.920 17.7909   1 
  -4   9  13 31.8842 9.33888   2 
  -3   9  13 -8.9711 6.82930   2 
  -3   9  13 23.4059 11.9357   1 
   4  14   8 129.373 19.4817  -2 
  -2   9  13 129.373 19.4817   1 
  -2   9  13 44.5002 9.23394   2 
  -1   9  13 43.6542 13.1495   1 
  -1   9  13 3.35365 6.68498   2 
   0   9  13 6.44017 7.30851   2 
   0   9  13 6.99963 10.3701   1 
   1   9  13 5.38294 6.76848   2 
   1   9  13 5.91021 9.99898   1 
   2   9  13 11.3475 7.17965   2 
   2   9  13 2.92601 10.6036   1 
   3   9  13 1.78627 6.02419   1 
   3   9  13 3.36113 6.63085   2 
   4   9  13 27.5970 6.19247   1 
   4   9  13 16.3470 7.32257   2 
   5   9  13 15.4198 6.36622   1 
   5   9  13 21.0955 12.3934   2 
   6   9  13 72.5685 8.29902   1 
   6   9  13 25.7105 13.3654   2 
   7   9  13 37.5336 9.58753   1 
   8   9  13 13.7985 14.8976   2 
   8   9  13 13.8367 9.51273   1 
   9   9  13 29.5565 10.4208   1 
  10   9  13 -1.5233 9.92112   1 
  10   9  13 -5.9893 12.7495   2 
  -6  10  13 -6.9805 11.4023   2 
  -6  10  13 3.92342 11.9063   1 
  -5  10  13 -2.8891 10.9833   1 
  -5  10  13 10.9454 11.0284   2 
  -4  10  13 12.9139 8.59992   2 
  -4  10  13 -6.3888 10.5740   1 
  -3  10  13 20.6263 12.1869   1 
  -3  10  13 9.01010 8.28461   2 
  -2  10  13 1.81356 7.44532   2 
  -2  10  13 10.5140 11.9290   1 
  -1  10  13 2.97021 6.93393   2 
  -1  10  13 -10.528 10.4718   1 
   0  10  13 5.25189 11.5964   1 
   0  10  13 -5.2534 6.65083   2 
   1  10  13 17.7341 12.0803   1 
   2  10  13 1.15812 7.04047   2 
   2  10  13 -0.2093 10.2649   1 
   3  10  13 21.9910 7.24444   2 
   3  10  13 74.2795 15.1653   1 
   4  10  13 0.42688 5.35476   1 
   4  10  13 7.85096 12.1817   2 
   5  10  13 30.2328 14.1879   2 
   5  10  13 43.3089 7.42969   1 
   6  10  13 -4.2063 8.21219   1 
   6  10  13 -11.782 10.6445   2 
   7  10  13 17.4161 9.44572   1 
   7  10  13 -4.4575 13.0326   2 
   8  10  13 -1.5086 8.92037   1 
   8  10  13 6.06731 13.3581   2 
   9  10  13 10.3332 10.1760   1 
   9  10  13 14.3354 13.7784   2 
  10  10  13 -0.6532 14.7291   2 
  10  10  13 13.6948 10.7618   1 
  -5  11  13 0.27367 8.64091   2 
  -5  11  13 -3.6960 10.8416   1 
  -4  11  13 -3.0629 10.0795   2 
  -4  11  13 1.92097 12.0501   1 
  -3  11  13 21.7913 12.6428   1 
  -3  11  13 -4.5500 7.39743   2 
  -2  11  13 2.09890 7.46855   2 
  -2  11  13 -5.0790 10.9757   1 
  -1  11  13 26.7320 8.14373   2 
  -1  11  13 59.6703 14.4234   1 
   0  11  13 -2.4289 10.1386   1 
   0  11  13 10.9575 9.97572   2 
   1  11  13 75.1858 14.9915   1 
   1  11  13 49.7564 8.58380   2 
   2  11  13 9.84598 12.0674   2 
   2  11  13 3.12656 11.0355   1 
   3  11  13 55.7595 14.5276   1 
   3  11  13 50.6320 15.1660   2 
   4  11  13 38.2136 12.9146   1 
   4  11  13 0.36227 12.0025   2 
   5  11  13 6.31950 12.4021   2 
   5  11  13 -5.2057 7.92688   1 
   6  11  13 11.7450 8.64600   1 
   6  11  13 18.1429 13.3966   2 
   7  11  13 5.25981 12.9461   2 
   7  11  13 44.4078 10.3877   1 
   8  11  13 -4.8899 12.7589   2 
   8  11  13 0.30844 12.8073   1 
  -5  13   2 1.23034 21.4560  -2 
   8  11  13 1.23034 21.4560   1 
   9  11  13 -0.5901 13.1065   2 
   9  11  13 22.6146 10.5467   1 
  10  11  13 2.06956 10.6577   1 
  10  11  13 -2.8635 13.7513   2 
  -4  12  13 1.42800 8.82796   2 
  -4  12  13 -1.3573 11.7401   1 
  -3  12  13 15.7538 8.59161   2 
  -3  12  13 27.8645 13.4512   1 
  -2  12  13 12.8623 12.4218   1 
  -2  12  13 8.54478 8.31534   2 
  -1  12  13 1.70634 10.9612   1 
  -1  12  13 -7.7519 7.20369   2 
   0  12  13 21.6817 7.06175   2 
   3  15   5 16.6729 18.9748  -2 
   0  12  13 16.6729 18.9748   1 
   1  12  13 6.67354 10.8008   1 
   1  12  13 9.97095 12.0456   2 
   2  12  13 60.7524 15.2436   1 
   2  12  13 38.2530 13.6954   2 
   3  12  13 6.51300 12.5809   2 
   3  12  13 12.5237 11.7008   1 
   4  12  13 7.75438 11.6994   1 
   4  12  13 2.16639 12.0228   2 
   5  12  13 7.11833 13.3086   2 
   5  12  13 -3.3765 11.7181   1 
   6  12  13 39.9587 9.88241   1 
   7  12  13 0.51010 12.6683   2 
   7  12  13 1.33238 8.56950   1 
   8  12  13 6.40718 9.61853   1 
   9  12  13 18.0518 10.8205   1 
   9  12  13 21.7905 16.1507   2 
  -3  13  13 5.59169 7.98905   2 
  -3  13  13 13.3224 12.5582   1 
  -2  13  13 17.2875 13.0560   1 
  -2  13  13 8.96775 8.65770   2 
  -1  13  13 15.1508 12.1231   1 
  -1  13  13 -0.2864 12.5229   2 
   0  13  13 11.2649 12.3369   1 
   0  13  13 9.02482 13.0670   2 
   1  13  13 11.2733 12.6750   2 
   1  13  13 3.93491 11.1880   1 
   2  13  13 4.17796 12.8048   2 
   2  13  13 -2.2529 11.7171   1 
   3  13  13 2.39308 12.2328   2 
   3  13  13 10.4778 12.0653   1 
   4  13  13 30.4624 13.3408   1 
   4  13  13 21.8441 13.5238   2 
   5  13  13 -13.631 11.1600   1 
   5  13  13 1.68274 13.0741   2 
   6  13  13 8.63450 14.8380   2 
   6  13  13 -1.1351 12.4724   1 
   7  13  13 -3.5806 13.3671   2 
   7  13  13 -9.8928 8.16426   1 
   8  13  13 25.1701 14.1592   2 
   8  13  13 24.3276 10.6901   1 
  -2  14  13 -5.3395 14.4511   2 
  -2  14  13 15.8842 13.6622   1 
  -1  14  13 21.5150 13.8456   2 
  -1  14  13 2.41174 12.1818   1 
   4  16   4 -5.1388 18.6719  -2 
   0  14  13 -5.1388 18.6719   1 
   0  14  13 11.2655 13.7886   2 
   1  14  13 7.91741 13.2032   2 
   1  14  13 12.1205 12.8759   1 
   2  14  13 -14.593 9.96604   1 
   2  14  13 -11.332 12.1145   2 
   3  14  13 8.41175 13.0502   2 
   3  14  13 -4.9351 11.4899   1 
   4  14  13 2.68237 11.7857   1 
   4  14  13 -8.9188 12.2711   2 
   5  14  13 19.0996 14.4444   2 
   5  14  13 20.8195 12.8887   1 
   6  14  13 14.1934 14.0100   2 
   6  14  13 14.5464 14.1351   1 
   7  14  13 15.3879 14.1508   1 
   7  14  13 22.2942 14.3300   2 
   0  15  13 15.2744 12.6811   1 
   0  15  13 3.49341 15.0137   2 
   1  15  13 56.3505 16.1372   1 
   1  15  13 20.7685 14.5900   2 
   2  15  13 3.79201 13.2662   2 
   2  15  13 12.9324 13.2156   1 
   3  15  13 26.6699 14.8064   2 
   3  15  13 23.1305 12.4723   1 
   4  15  13 12.0237 13.2781   2 
   4  15  13 -0.0018 12.8717   1 
   5  15  13 -4.4959 12.2078   2 
   5  15  13 -3.2670 12.1762   1 
  -3  -3  14 -2.7055 12.0591   1 
   0   9  17 43.6990 23.7058  -2 
  -3  -3  14 43.6990 23.7058   1 
  -3  -3  14 0.56956 14.4872   2 
  -2  -3  14 18.2321 13.7498   1 
  -2  -3  14 4.18375 14.9284   2 
  -1  -3  14 28.2892 14.9141   2 
   0  -3  14 -3.2673 13.1730   2 
   0  -3  14 -29.248 9.99720   1 
   1  -3  14 27.8300 13.4229   1 
   1  -3  14 27.6899 15.2214   2 
   2  -3  14 25.0835 14.2956   1 
   2  -3  14 -18.847 13.0378   2 
   3  -3  14 -6.2519 12.9035   1 
   3  -3  14 0.72330 13.0843   2 
   4  -3  14 -2.7720 10.2060   2 
  -4  -2  14 -10.207 12.5187   2 
  -4  -2  14 -1.9448 8.71902   1 
  -3  -2  14 43.2515 10.1883   1 
  -3  -2  14 31.0777 14.6158   2 
  -2  -2  14 3.97397 8.93866   1 
  -2  -2  14 4.18385 13.9990   2 
  -1  -2  14 7.42320 14.5063   2 
  -1  -2  14 2.10647 8.59919   1 
   0  -2  14 32.5217 13.7305   1 
   0  -2  14 8.84601 12.8950   2 
   1  -2  14 -1.6550 10.7121   1 
   1  -2  14 13.8235 12.4522   2 
   2  -2  14 4.02704 13.2028   2 
   2  -2  14 -9.1818 11.3372   1 
   3  -2  14 3.56647 12.3409   2 
   3  -2  14 -6.1440 11.2925   1 
   4  -2  14 -10.944 11.6762   1 
   4  -2  14 14.9104 8.96325   2 
   5  -2  14 8.90166 9.39235   2 
   5  -2  14 32.9456 15.1819   1 
  -5  -1  14 -0.3116 15.4517   1 
  -5  -1  14 26.3424 14.9454   2 
  -4  -1  14 13.4336 8.87628   1 
  -4  -1  14 21.1432 14.3279   2 
  -3  -1  14 3.89835 11.6466   2 
  -3  -1  14 -6.3485 8.30806   1 
  -2  -1  14 1.31001 13.5608   2 
  -2  -1  14 7.53058 8.42863   1 
  -1  -1  14 -13.979 7.45152   1 
  -1  -1  14 0.54168 12.5124   2 
   0  -1  14 4.38637 8.15451   1 
   0  -1  14 13.6724 13.4598   2 
  -3   9  14 27.7938 12.9846  -2 
   1  -1  14 27.7938 12.9846   1 
   1  -1  14 2.72514 12.5420   2 
   2  -1  14 1.55040 8.06179   1 
   2  -1  14 -8.0906 11.1583   2 
   3  -1  14 4.93146 11.9274   1 
   3  -1  14 12.9877 9.24409   2 
   4  -1  14 55.4013 15.3871   1 
   4  -1  14 35.8029 13.6049   2 
   5  -1  14 15.2067 8.57038   2 
   5  -1  14 3.90674 12.1043   1 
   6  -1  14 26.3721 9.80529   2 
   6  -1  14 45.9662 15.9749   1 
  -6   0  14 21.5294 13.5834   2 
  -6   0  14 27.5979 15.4837   1 
  -5   0  14 18.5275 15.4157   1 
  -5   0  14 1.82839 13.4159   2 
  -4   0  14 24.0125 14.7679   1 
  -4   0  14 4.21882 13.5773   2 
  -3   0  14 -15.684 7.66764   1 
  -3   0  14 6.71509 13.2387   2 
  -2   0  14 19.9218 12.6072   2 
  -2   0  14 10.1243 14.0021   1 
  -1   0  14 -2.7958 7.49528   1 
  -1   0  14 20.5063 14.1111   2 
   0   0  14 55.6329 10.2189   1 
   0   0  14 55.4515 16.0398   2 
   1   0  14 -10.370 11.1886   2 
   1   0  14 11.6840 8.57818   1 
   2   0  14 27.2232 9.46766   2 
   2   0  14 69.2666 10.6651   1 
   3   0  14 17.3814 8.93260   1 
   3   0  14 -7.3495 8.52323   2 
   4   0  14 -2.5406 8.26650   2 
   4   0  14 28.3759 8.88247   1 
   5   0  14 -3.4721 8.73248   2 
   5   0  14 12.4003 13.0025   1 
   6   0  14 -6.7996 12.2148   1 
   7   0  14 17.5257 13.7606   1 
   7   0  14 5.93921 8.31899   2 
  -6   1  14 15.6446 13.5177   2 
  -6   1  14 42.1317 16.1126   1 
  -5   1  14 8.22809 12.0977   2 
  -5   1  14 -13.774 13.0037   1 
  -4   1  14 27.5101 15.4033   1 
  -4   1  14 16.5890 12.4741   2 
  -3   1  14 22.6422 13.8226   1 
  -3   1  14 -3.7374 10.6751   2 
  -2   1  14 41.8247 8.45477   1 
  -2   1  14 15.0398 12.7269   2 
  -1   1  14 7.00372 11.7372   2 
  -1   1  14 33.3242 8.58742   1 
   0   1  14 18.3286 12.7226   1 
   0   1  14 -0.6064 11.4620   2 
   1   1  14 30.1399 9.25611   1 
   1   1  14 29.1477 13.8308   2 
   2   1  14 31.8755 9.12204   2 
   2   1  14 18.6672 8.17073   1 
   3   1  14 17.1277 8.85524   2 
   3   1  14 37.0552 8.99352   1 
   4   1  14 15.0537 8.90009   2 
   4   1  14 -12.882 7.88657   1 
   5   1  14 15.6329 8.75562   1 
   5   1  14 -5.8557 8.07168   2 
   6   1  14 26.4547 12.8782   1 
   6   1  14 -2.8943 8.04149   2 
  -8   9  10 56.1945 20.7834  -2 
   7   1  14 56.1945 20.7834   1 
   7   1  14 15.6206 9.10390   2 
   8   1  14 -0.8938 13.4455   1 
   8   1  14 -2.3986 8.57265   2 
  -6   2  14 18.0995 14.5274   1 
  -6   2  14 -0.6204 11.3576   2 
  -5   2  14 28.4927 15.4501   1 
  -5   2  14 -6.1421 10.8551   2 
  -4   2  14 17.2229 14.0211   1 
  -4   2  14 0.94946 10.8145   2 
  -3   2  14 36.5695 13.6039   2 
  -3   2  14 76.2350 16.5725   1 
  -2   2  14 -14.525 10.9354   2 
  -2   2  14 2.33736 7.29410   1 
   0  11  13 59.5787 20.9299  -2 
  -1   2  14 59.5787 20.9299   1 
  -1   2  14 10.5073 11.9916   2 
  -1   2  14 49.7032 11.9536   1 
   0   2  14 76.8120 9.98694   1 
   0   2  14 37.3768 12.6458   2 
   1   2  14 7.28163 7.37707   1 
   1   2  14 -2.2854 7.51194   2 
   2   2  14 15.1200 7.91745   1 
   2   2  14 -2.6023 7.55340   2 
   3   2  14 14.5752 9.26301   2 
  -4  10  11 12.2623 21.9497  -2 
   3   2  14 12.2623 21.9497   1 
   3   2  14 -0.0808 9.27396   1 
   4   2  14 4.93338 7.52850   1 
   4   2  14 -4.1106 7.61160   2 
   5   2  14 20.7272 8.50639   2 
   5   2  14 41.7432 10.1424   1 
   6   2  14 15.5155 9.57767   1 
   6   2  14 5.66100 8.50552   2 
   7   2  14 -2.8843 7.84462   2 
   7   2  14 -0.1312 8.39147   1 
   8   2  14 18.4708 8.79263   2 
   8   2  14 59.3364 15.4260   1 
  -6   3  14 13.2543 11.7770   2 
  -6   3  14 35.3020 15.6875   1 
  -5   3  14 6.17967 11.0769   2 
  -5   3  14 4.75856 13.8323   1 
  -4   3  14 9.68164 11.5240   2 
  -4   3  14 24.0551 14.5480   1 
  -3   3  14 10.5235 12.1222   2 
  -3   3  14 1.87918 12.4504   1 
  -2   3  14 122.448 17.9808   1 
  -2   3  14 67.2300 14.2174   2 
  -1   3  14 36.5736 8.32844   1 
  -1   3  14 14.8048 12.5881   2 
   0   3  14 7.33462 7.87992   2 
   0   3  14 26.4139 8.13844   1 
   1   3  14 1.93640 7.36678   1 
   1   3  14 -1.3691 7.76360   2 
   2   3  14 18.4735 8.07053   2 
   2   3  14 28.8837 8.51079   1 
   3   3  14 3.98435 7.10111   1 
   3   3  14 -4.6013 7.14141   2 
   4   3  14 95.1606 10.5930   1 
   4   3  14 45.0604 8.98107   2 
   5   3  14 34.5450 9.35226   1 
   5   3  14 3.63343 7.65530   2 
   6   3  14 36.2423 9.33940   2 
   6   3  14 95.4054 11.6387   1 
   7   3  14 11.9233 14.0489   2 
   7   3  14 20.9608 9.22657   1 
   8   3  14 6.33461 8.63744   2 
   8   3  14 26.7818 13.7159   1 
   9   3  14 23.8324 10.5662   1 
   9   3  14 -1.3676 8.05307   2 
  -7   4  14 1.11578 12.8802   1 
  -6   4  14 10.2872 11.4134   2 
   6  13  14 77.6750 25.4073  -2 
  -6   4  14 77.6750 25.4073   1 
  -5   4  14 12.8340 14.1842   1 
  -5   4  14 9.98760 11.4386   2 
  -4   4  14 24.3604 13.1193   1 
  -4   4  14 -2.3120 10.7091   2 
  -3   4  14 14.7761 12.5443   1 
  -3   4  14 -9.2983 10.2424   2 
  -2   4  14 -0.6158 11.4382   1 
  -2   4  14 -3.6670 9.73423   2 
  -1   4  14 -13.552 9.82627   2 
  -1   4  14 -3.7111 11.3963   1 
   0   4  14 78.1412 9.44115   1 
   0   4  14 31.9543 8.83078   2 
   1   4  14 17.7583 8.25039   2 
   1   4  14 63.5228 9.06868   1 
   2   4  14 10.1085 7.83185   2 
   2   4  14 30.7159 8.21232   1 
   3   4  14 35.0335 8.71634   2 
  -3  11  10 66.3916 18.2602  -2 
   3   4  14 66.3916 18.2602   1 
   3   4  14 24.5025 12.7692   1 
   4   4  14 0.93856 7.44186   2 
   4   4  14 27.9675 8.44767   1 
   5   4  14 25.8984 8.70635   2 
   5   4  14 70.8856 10.0423   1 
   6   4  14 1.27877 7.43892   1 
   6   4  14 -4.9673 7.13025   2 
   7   4  14 83.6661 11.6598   1 
   7   4  14 34.4289 8.31169   2 
   8   4  14 7.28285 7.85195   2 
   8   4  14 9.21380 9.33845   1 
   9   4  14 6.03189 9.43552   1 
   9   4  14 -6.9929 8.26524   2 
  -6   5  14 3.42584 12.0583   2 
  -6   5  14 2.37468 13.2313   1 
  -5   5  14 13.3814 13.9927   1 
  -5   5  14 -3.5036 10.5956   2 
  -4   5  14 -8.0326 12.0653   2 
  -4   5  14 3.44285 15.9613   1 
   3  13  12 34.8934 22.8023  -2 
  -3   5  14 34.8934 22.8023   1 
  -2   5  14 17.4144 12.0557   1 
  -2   5  14 9.90876 10.2094   2 
  -1   5  14 72.0187 15.6187   1 
   0   5  14 8.48710 8.26805   2 
   0   5  14 -0.0426 11.5235   1 
   1   5  14 34.8330 8.52668   2 
   1   5  14 75.5080 9.07632   1 
   2   5  14 7.45265 7.60403   2 
   2   5  14 14.7788 8.34838   1 
   3   5  14 101.995 10.4082   1 
   3   5  14 44.9889 8.91306   2 
   4   5  14 2.66133 7.08170   2 
   4   5  14 14.3654 7.50065   1 
   5   5  14 9.99640 8.15598   1 
   5   5  14 15.2873 7.24069   2 
   6   5  14 0.77223 7.84741   1 
   6   5  14 2.01187 7.11740   2 
   7   5  14 9.25853 7.16425   2 
   7   5  14 15.5920 9.08651   1 
   8   5  14 3.98997 8.09334   2 
   8   5  14 4.23278 8.71080   1 
   9   5  14 26.4871 10.2129   1 
   9   5  14 47.2137 16.0787   2 
  -6   6  14 24.2320 14.1832   1 
  -6   6  14 -9.1908 11.2068   2 
  -5   6  14 1.74879 12.8617   1 
  -5   6  14 -7.1766 9.94626   2 
  -4   6  14 -7.4596 10.4213   2 
  -4   6  14 11.4583 13.3219   1 
  -3   6  14 31.0717 11.9783   2 
  -3   6  14 42.7644 15.7760   1 
  -2   6  14 6.13486 11.0064   2 
  -1   6  14 24.6360 7.90660   2 
  -1   6  14 52.9400 15.1156   1 
   0   6  14 24.8790 8.14078   2 
   0   6  14 57.1396 14.4122   1 
   1   6  14 7.58552 7.41444   2 
   1   6  14 -1.8923 5.90016   1 
   2   6  14 58.1388 8.69909   1 
   2   6  14 14.3883 7.81108   2 
   3   6  14 -6.5336 6.11432   1 
   3   6  14 9.94264 7.67935   2 
   4   6  14 -4.2599 7.16889   2 
   4   6  14 7.78911 6.99607   1 
   5   6  14 -0.2918 6.96935   2 
   5   6  14 13.9252 7.45252   1 
   6   6  14 10.0875 7.34105   2 
   6   6  14 16.1143 7.73371   1 
   7   6  14 8.96648 7.41603   2 
   7   6  14 5.76442 8.06472   1 
   8   6  14 6.16531 12.9465   2 
   8   6  14 38.0294 10.4890   1 
   9   6  14 1.36257 12.6890   1 
  -8  11   6 -10.411 21.2324  -2 
   9   6  14 -10.411 21.2324   1 
   9   6  14 9.25598 14.2932   2 
  10   6  14 67.5560 19.1243   1 
  -6   7  14 16.5046 14.4384   1 
  -6   7  14 2.68179 11.8152   2 
  -5   7  14 19.4756 11.6730   2 
  -5   7  14 12.7093 13.0055   1 
  -4   7  14 58.6366 17.0844   1 
  -4   7  14 20.4234 11.7061   2 
  -3   7  14 1.43046 11.0698   1 
  -3   7  14 7.51327 9.87427   2 
  -2   7  14 43.0336 8.65720   2 
  -2   7  14 90.4088 17.0693   1 
  -1   7  14 16.0180 7.86689   2 
  -1   7  14 18.2828 12.0494   1 
   0   7  14 33.1979 8.21257   2 
   0   7  14 55.7737 14.6703   1 
   1   7  14 2.31037 7.11124   2 
   0  13   9 64.1039 18.6853  -2 
   1   7  14 64.1039 18.6853   1 
   2   7  14 9.10888 6.29310   1 
   2   7  14 4.80693 7.37747   2 
   3   7  14 3.70190 7.55442   2 
   3   7  14 1.82542 6.47394   1 
   4   7  14 32.4557 8.32924   2 
   4   7  14 49.8019 8.60676   1 
   5   7  14 -7.9626 6.74431   2 
   5   7  14 9.47216 7.05329   1 
   6   7  14 34.5224 8.66786   2 
   6   7  14 90.2159 10.8896   1 
   7   7  14 30.6555 9.59581   1 
   7   7  14 5.55985 13.0870   2 
   8   7  14 15.9547 9.09376   1 
   8   7  14 14.6325 12.9481   2 
   9   7  14 13.1164 9.11984   1 
   9   7  14 -0.8532 13.8036   2 
  10   7  14 0.36486 14.6106   1 
  10   7  14 -19.114 11.7820   2 
  -6   8  14 8.66087 12.6997   2 
  -6   8  14 13.4257 14.2103   1 
  -5   8  14 -6.4400 11.3835   2 
  -5   8  14 22.4720 13.2925   1 
  -4   8  14 28.5013 13.9964   1 
  -4   8  14 5.76696 10.6936   2 
  -3   8  14 19.6737 12.7308   1 
  -3   8  14 2.79152 7.21683   2 
  -2   8  14 -1.5297 11.0111   1 
  -2   8  14 17.2173 10.1867   2 
  -1   8  14 13.7739 11.6990   1 
  -1   8  14 7.23110 7.55548   2 
   0   8  14 24.0320 8.10104   2 
   0   8  14 72.9442 15.9544   1 
   1   8  14 3.62922 7.45004   2 
   1   8  14 -6.8462 10.0206   1 
   2   8  14 4.15421 7.72311   2 
   2   8  14 7.86381 11.4317   1 
   3   8  14 22.6852 7.57201   1 
   3   8  14 1.36644 6.82751   2 
   4   8  14 18.0749 7.80578   2 
   4   8  14 15.6466 7.18689   1 
   5   8  14 86.1859 10.2979   1 
   5   8  14 36.7688 8.09375   2 
   6   8  14 8.46716 7.50667   1 
   6   8  14 13.2168 13.2342   2 
   7   8  14 77.2658 10.9640   1 
   7   8  14 39.2694 15.3175   2 
   8   8  14 -6.3566 6.60889   1 
   8   8  14 -2.3090 12.3125   2 
   9   8  14 0.14774 7.55159   1 
   9   8  14 -8.1742 12.4115   2 
  10   8  14 3.70961 15.5848   1 
  -5   9  14 -3.3269 11.5325   2 
  -5   9  14 38.8007 15.7874   1 
  -4   9  14 25.2831 13.1198   1 
  -3   9  14 10.1495 12.5477   1 
  -2   9  14 5.43107 7.66703   2 
  -2   9  14 22.9710 13.2524   1 
  -1   9  14 -0.5821 7.25709   2 
  -1   9  14 -7.1965 9.58728   1 
   0   9  14 -7.2065 6.68542   2 
   0   9  14 11.8243 11.5645   1 
   1   9  14 46.2708 8.71912   2 
   1   9  14 104.262 16.9605   1 
   2   9  14 -1.7372 7.59128   2 
   2   9  14 0.33618 11.7064   1 
   3   9  14 21.9472 11.7399   1 
   3   9  14 2.56720 6.71831   2 
   4   9  14 19.6119 7.45122   2 
   4   9  14 23.6741 9.57620   1 
   5   9  14 18.2047 7.95866   1 
   5   9  14 -1.1723 12.1013   2 
   6   9  14 28.2700 7.23576   1 
   6   9  14 25.9848 14.3262   2 
   7   9  14 -4.2042 13.7741   2 
  -5  13   5 13.9557 15.1247  -2 
   7   9  14 13.9557 15.1247   1 
   7   9  14 11.0980 13.1707   1 
   8   9  14 10.2976 13.9567   2 
   8   9  14 14.1762 7.49404   1 
   9   9  14 -0.3584 7.77381   1 
   9   9  14 12.8234 13.6865   2 
  -5  10  14 -8.7573 9.64894   2 
  -5  10  14 -13.857 10.1120   1 
  -4  10  14 1.04170 7.73720   2 
  -4  10  14 -1.3751 12.7457   1 
  -3  10  14 21.0447 8.20281   2 
  -3  10  14 56.9691 15.6432   1 
  -2  10  14 14.0146 8.05819   2 
  -2  10  14 -8.1193 10.9811   1 
  -1  10  14 15.9926 7.96436   2 
  -1  10  14 22.9855 12.8142   1 
   0  10  14 0.30899 7.19648   2 
   0  10  14 2.17138 11.3672   1 
   1  10  14 -3.5750 6.97482   2 
   1  10  14 8.56959 11.5837   1 
   2  10  14 59.9553 15.1193   1 
   2  10  14 29.8832 8.53219   2 
   3  10  14 -16.312 10.8957   2 
   3  10  14 18.1588 10.9858   1 
   4  10  14 -5.4154 6.52787   1 
   4  10  14 18.2216 12.8908   2 
   5  10  14 6.01478 6.09427   1 
   6  10  14 4.37921 6.72460   1 
   6  10  14 5.83537 12.7536   2 
   7  10  14 -1.3898 6.73386   1 
   7  10  14 -5.1949 13.8893   2 
   8  10  14 26.2084 8.14520   1 
   8  10  14 11.2088 14.2768   2 
   9  10  14 8.47615 8.26337   1 
   9  10  14 4.16016 13.4485   2 
  -4  11  14 4.41033 8.21215   2 
  -4  11  14 16.8791 14.3371   1 
  -3  11  14 1.45375 11.7430   1 
  -3  11  14 0.25666 9.77257   2 
  -2  11  14 1.19424 8.06211   2 
  -2  11  14 37.3027 14.6676   1 
  -1  11  14 -13.461 11.5624   1 
  -1  11  14 3.35679 7.29256   2 
   0  11  14 27.6019 8.50131   2 
   0  11  14 56.5265 15.4081   1 
   1  11  14 -1.3024 11.4156   1 
   1  11  14 1.04564 7.04260   2 
   2  11  14 8.39866 11.7877   1 
   2  11  14 -6.7618 11.9843   2 
   3  11  14 -14.863 11.8229   2 
   3  11  14 17.7767 12.7371   1 
   4  11  14 4.56120 13.1159   1 
   4  11  14 8.92027 13.6395   2 
   5  11  14 0.28821 7.27159   1 
   5  11  14 -19.351 12.2547   2 
   6  11  14 46.8942 7.88763   1 
   6  11  14 6.45551 12.6916   2 
   7  11  14 7.82227 13.0847   1 
   7  11  14 8.86652 13.0102   2 
   8  11  14 16.5118 15.7000   2 
   8  11  14 6.84565 9.84005   1 
   9  11  14 10.4171 10.2683   1 
   9  11  14 11.8587 14.8972   2 
  -3  12  14 19.7524 9.42366   2 
  -3  12  14 4.99546 12.5295   1 
  -2  12  14 2.99431 12.0088   1 
  -1  12  14 -1.3178 7.56918   2 
  -1  12  14 20.6561 13.3231   1 
   0  12  14 18.1161 12.9061   1 
   0  12  14 -1.5141 7.49890   2 
   1  12  14 -6.6072 11.8379   2 
   1  12  14 17.0526 13.5139   1 
   2  12  14 28.0965 13.6186   1 
   2  12  14 27.9482 13.8737   2 
   3  12  14 3.43263 11.8020   1 
   3  12  14 15.7479 13.7309   2 
   4  12  14 4.87198 13.3788   2 
   4  12  14 48.8478 15.3795   1 
   5  12  14 1.25042 13.7899   2 
   5  12  14 14.8963 12.3279   1 
   6  12  14 30.2725 15.0186   2 
   6  12  14 6.37204 8.65850   1 
   7  12  14 13.1164 12.4753   2 
   7  12  14 45.9523 10.9543   1 
   8  12  14 -11.453 13.0065   2 
   8  12  14 11.9219 10.2513   1 
  -2  13  14 0.99110 7.97240   2 
  -2  13  14 -9.4701 11.8783   1 
  -1  13  14 1.39782 11.8433   1 
  -1  13  14 -5.2598 12.8480   2 
   0  13  14 2.91602 13.0222   2 
   0  13  14 11.2249 13.2459   1 
   1  13  14 12.1673 13.3383   1 
   1  13  14 38.4577 15.8345   2 
   2  13  14 9.15665 12.8951   2 
   2  13  14 5.95667 11.2333   1 
   3  13  14 29.8251 15.7537   2 
   3  13  14 53.7676 15.8802   1 
   4  13  14 7.84544 13.5342   2 
   4  13  14 3.14379 11.8885   1 
   5  13  14 8.01857 14.3671   2 
   5  13  14 -2.8617 12.4386   1 
   6  13  14 34.0591 14.7459   1 
   7  13  14 -0.4721 9.55145   1 
   7  13  14 -14.875 13.7119   2 
   0  14  14 5.24596 14.3078   2 
   0  14  14 -7.5884 11.9816   1 
   1  14  14 -21.968 10.7402   1 
   1  14  14 2.94964 13.2306   2 
   2  14  14 1.73022 13.4926   1 
   2  14  14 22.5742 14.3228   2 
   3  14  14 4.10949 13.8777   2 
   3  14  14 -6.3203 11.6067   1 
   4  14  14 1.98162 14.3185   2 
   4  14  14 6.46149 12.0833   1 
   5  14  14 -9.6926 12.0139   1 
   6  14  14 21.6045 15.9929   2 
   6  14  14 1.92725 12.9953   1 
   0  -2  15 5.21727 14.7053   2 
   0  -2  15 27.7253 12.8941   1 
   1  -2  15 7.59687 12.4414   1 
   1  -2  15 14.5024 14.3882   2 
  -3  -1  15 -21.596 14.4652   1 
  -2  -1  15 4.33925 9.20539   1 
  -2  -1  15 7.11952 14.3219   2 
  -1  -1  15 8.01537 13.2981   2 
  -1  -1  15 15.8831 9.73265   1 
   0  -1  15 7.02855 8.57053   1 
   0  -1  15 -0.5789 12.9181   2 
   1  -1  15 11.9666 14.7411   2 
   1  -1  15 65.1914 15.9985   1 
   2  -1  15 11.2812 13.9781   2 
   2  -1  15 0.70285 11.7247   1 
   3  -1  15 50.1776 15.1105   1 
   3  -1  15 6.50972 13.5800   2 
   4  -1  15 -6.9747 11.7917   1 
   4  -1  15 -4.9466 12.0168   2 
  -4   0  15 11.9479 15.5033   1 
  -4   0  15 -18.507 13.0977   2 
  -3   0  15 40.2873 17.0770   1 
  -3   0  15 12.0829 13.2779   2 
  -2   0  15 -3.7744 8.20985   1 
  -2   0  15 -2.0469 11.8965   2 
  -1   0  15 36.4872 9.59447   1 
  -1   0  15 11.2298 12.8146   2 
   0   0  15 24.8736 9.56321   1 
   0   0  15 30.5572 15.3043   2 
   1   0  15 -0.4731 13.8140   2 
   1   0  15 9.69923 8.38849   1 
   2   0  15 -7.8396 12.6120   2 
   2   0  15 17.5326 9.17168   1 
   3   0  15 -12.651 9.08891   2 
   3   0  15 13.0195 12.7519   1 
   4   0  15 34.6331 13.7572   1 
   4   0  15 11.5749 13.3126   2 
   5   0  15 -8.1223 8.32531   2 
   5   0  15 54.9848 15.8168   1 
  -4   1  15 9.89558 14.0358   1 
  -4   1  15 -2.8511 12.4395   2 
  -3   1  15 -4.2103 13.5089   1 
  -2   1  15 71.0400 10.6636   1 
  -2   1  15 25.7009 13.9315   2 
  -1   1  15 1.06660 8.30962   1 
  -1   1  15 -1.6875 12.9735   2 
   0   1  15 11.5447 8.33036   1 
   0   1  15 -4.1719 12.0087   2 
   1   1  15 -2.6839 8.32808   1 
   1   1  15 10.3026 13.0477   2 
   2   1  15 -3.0998 7.83330   1 
   2   1  15 4.33258 11.6369   2 
   3   1  15 0.61838 8.92951   2 
   3   1  15 -21.848 8.02265   1 
   4   1  15 22.0037 10.2453   2 
   4   1  15 32.3388 9.63158   1 
   5   1  15 -6.8859 9.94089   1 
   5   1  15 19.1827 9.12843   2 
   6   1  15 24.2079 13.8316   1 
   6   1  15 6.88917 9.20898   2 
  -5   2  15 2.28232 15.5619   1 
  -5   2  15 4.48314 12.1286   2 
  -4   2  15 8.90844 13.7337   1 
  -4   2  15 -19.636 10.2942   2 
  -3   2  15 12.6051 11.9114   2 
   2  12  15 80.3438 24.2814  -2 
  -3   2  15 80.3438 24.2814   1 
  -2   2  15 -12.770 10.8826   2 
  -2   2  15 -9.1225 11.6775   1 
  -1   2  15 -0.8755 11.0753   2 
  -1   2  15 -2.5689 8.31212   1 
   0   2  15 -0.2761 8.56435   1 
   0   2  15 9.28918 15.6421   2 
   1   2  15 -20.148 10.7383   2 
   1   2  15 2.87803 7.98267   1 
   2   2  15 25.0343 9.11538   1 
   2   2  15 26.0792 9.12275   2 
  -4  11  12 60.3541 14.0621  -2 
   3   2  15 60.3541 14.0621   1 
   3   2  15 2.45076 11.5837   2 
   4   2  15 34.7336 9.51101   2 
   4   2  15 42.0160 9.74495   1 
   5   2  15 24.2415 8.78087   1 
   5   2  15 29.7859 11.3105   2 
   6   2  15 -0.8668 8.16934   1 
   6   2  15 15.3651 14.2859   2 
   7   2  15 17.5143 9.23758   2 
   7   2  15 31.9621 14.6341   1 
  -5   3  15 13.5883 12.2703   2 
  -5   3  15 23.9467 16.2115   1 
  -4   3  15 3.20709 13.6313   1 
  -4   3  15 0.75110 12.2731   2 
  -3   3  15 -6.0662 12.4449   2 
  -3   3  15 -12.860 11.8697   1 
  -2   3  15 -6.4063 10.7276   2 
  -2   3  15 9.38661 13.4207   1 
  -1   3  15 -12.675 11.8970   1 
  -1   3  15 0.52775 11.6677   2 
   0   3  15 28.3718 8.52272   1 
   0   3  15 5.59658 12.0455   2 
   1   3  15 36.4080 9.54621   2 
   1   3  15 48.6694 9.40971   1 
   2   3  15 5.74119 7.85021   1 
   2   3  15 3.87480 8.24587   2 
   3   3  15 52.0244 9.48395   1 
   3   3  15 27.4559 9.18863   2 
   4   3  15 9.83012 8.40255   2 
   4   3  15 9.57704 8.50719   1 
   5   3  15 8.08842 8.37836   2 
   5   3  15 25.1686 9.44179   1 
   6   3  15 3.86246 8.04106   2 
   6   3  15 12.8651 9.42519   1 
   7   3  15 -6.7036 7.31600   2 
   7   3  15 -6.0947 9.20764   1 
   8   3  15 11.9350 13.8636   1 
  -5   4  15 -2.6037 10.7311   2 
  -5   4  15 2.97315 14.4241   1 
  -4   4  15 8.77038 11.3761   2 
  -4   4  15 13.1267 13.0538   1 
  -3   4  15 12.7611 11.8570   2 
  -3   4  15 59.0795 16.6121   1 
  -2   4  15 2.57630 11.6835   2 
  -2   4  15 -17.750 11.8220   1 
  -1   4  15 34.5150 13.5425   2 
  -1   4  15 102.959 18.2579   1 
   0   4  15 5.95479 7.69316   1 
   0   4  15 -15.331 10.1575   2 
   1   4  15 1.68706 7.68351   2 
   1   4  15 17.9432 8.12201   1 
   2   4  15 145.648 11.5542   1 
   2   4  15 56.5243 10.0602   2 
  -3  12  11 -35.046 20.4586  -2 
   3   4  15 -35.046 20.4586   1 
   3   4  15 7.54340 7.57487   2 
   3   4  15 4.16560 9.07192   1 
   4   4  15 14.4001 8.63849   1 
   4   4  15 8.33986 8.26089   2 
   5   4  15 11.1110 8.53212   1 
   5   4  15 -3.5980 7.76557   2 
   6   4  15 6.09966 8.86192   1 
   6   4  15 4.79281 7.58092   2 
   7   4  15 -9.6609 10.9571   1 
   7   4  15 -2.9758 7.96209   2 
  -7  11   9 5.87335 18.6832  -2 
   7   4  15 5.87335 18.6832   1 
   8   4  15 4.21229 8.68785   2 
   8   4  15 -5.9421 8.99186   1 
  -5   5  15 -0.6026 11.7177   2 
   5  14  14 5.06314 20.4412  -2 
  -5   5  15 5.06314 20.4412   1 
  -4   5  15 19.1057 12.0778   2 
  -4   5  15 40.6831 16.3700   1 
  -3   5  15 4.03352 13.2484   1 
  -3   5  15 -15.224 9.79654   2 
  -2   5  15 29.1307 12.9822   2 
  -2   5  15 65.0645 15.8291   1 
  -1   5  15 -1.5742 11.5037   2 
  -1   5  15 -17.642 11.7107   1 
   0   5  15 18.5512 8.34543   2 
   0   5  15 19.1063 12.9888   1 
   1   5  15 13.0464 7.93874   2 
   1   5  15 64.0949 9.52290   1 
   2   5  15 2.99023 7.81723   2 
   2   5  15 13.6581 7.61859   1 
   3   5  15 10.3052 8.69649   2 
   3   5  15 -3.3597 6.82619   1 
   4   5  15 8.37001 7.82238   1 
   4   5  15 -1.0007 9.40062   2 
   5   5  15 -6.1230 7.58341   2 
   5   5  15 2.47249 7.97336   1 
   6   5  15 73.2442 11.3487   1 
   6   5  15 35.1222 8.65801   2 
   7   5  15 6.01658 8.96341   1 
   7   5  15 4.57034 7.97860   2 
   8   5  15 50.6022 11.1414   1 
   8   5  15 16.5318 8.49651   2 
  -5   6  15 0.10138 11.6186   2 
  -5   6  15 17.8039 14.7627   1 
  -4   6  15 21.2871 12.4722   2 
  -4   6  15 33.0090 15.6129   1 
  -3   6  15 11.2707 11.2517   2 
  -3   6  15 3.32949 12.3637   1 
  -2   6  15 -17.953 9.62324   2 
  -2   6  15 13.6548 12.8659   1 
  -1   6  15 -0.4280 11.0933   2 
  -1   6  15 50.0064 15.5417   1 
   0   6  15 -1.1137 7.64743   2 
   0   6  15 -1.9595 11.9592   1 
   1   6  15 1.68739 7.90165   2 
   1   6  15 4.41400 12.4078   1 
   2   6  15 14.7362 7.60510   1 
   2   6  15 6.85458 7.96949   2 
   3   6  15 12.5891 7.60948   1 
   3   6  15 3.03077 7.31327   2 
   4   6  15 67.4074 9.86826   1 
   4   6  15 20.9589 8.23243   2 
   5   6  15 4.74262 7.89189   2 
   5   6  15 17.7383 8.31095   1 
   6   6  15 -4.0344 7.53323   2 
   6   6  15 -1.9425 8.29080   1 
   7   6  15 74.5547 11.5546   1 
   7   6  15 22.4011 8.66524   2 
   8   6  15 -2.0691 8.65075   1 
   8   6  15 14.9374 14.1560   2 
  -5   7  15 -16.950 11.7631   2 
  -5   7  15 38.8809 16.0591   1 
  -4   7  15 -9.5871 9.87074   2 
  -4   7  15 -11.118 11.5618   1 
  -3   7  15 9.42574 10.6329   2 
  -3   7  15 4.77709 13.1894   1 
  -2   7  15 11.5082 12.9206   1 
  -2   7  15 5.01125 9.94080   2 
  -1   7  15 -8.2558 6.57517   2 
  -1   7  15 -3.8902 13.0734   1 
   0   7  15 -10.847 9.38779   1 
   0   7  15 4.99885 7.51387   2 
   1   7  15 57.9896 15.3472   1 
   1   7  15 33.0105 8.97273   2 
   2   7  15 -1.1280 7.61183   2 
   2   7  15 11.9869 12.9657   1 
   3   7  15 92.9466 10.3784   1 
   3   7  15 49.9655 9.34719   2 
   4   7  15 6.62573 7.58413   1 
   4   7  15 0.95286 7.72360   2 
   5   7  15 23.4032 8.06058   2 
  -4  13   8 73.3401 11.9300  -2 
   5   7  15 73.3401 11.9300   1 
   6   7  15 43.2288 9.45342   1 
   6   7  15 12.5690 8.11088   2 
   7   7  15 -4.1064 7.94439   1 
   7   7  15 -8.5964 12.6138   2 
   8   7  15 -19.144 12.2603   2 
   8   7  15 17.2443 9.82049   1 
  -5   8  15 -2.1408 12.3994   1 
  -4   8  15 4.73518 10.8344   2 
  -4   8  15 -0.1118 12.5505   1 
  -3   8  15 53.0477 15.2138   1 
  -3   8  15 18.3773 11.7173   2 
  -2   8  15 -10.164 10.5938   1 
  -2   8  15 -14.616 9.69149   2 
  -1   8  15 9.40870 12.4009   1 
  -1   8  15 17.2061 8.20292   2 
   0   8  15 6.95714 12.4677   1 
   0   8  15 7.39508 7.93795   2 
   1   8  15 23.5032 13.1396   1 
   1   8  15 14.1267 8.18891   2 
   2   8  15 23.8711 8.57327   2 
   2   8  15 47.2487 14.6379   1 
   3   8  15 -11.565 6.97671   2 
   3   8  15 6.93181 12.8013   1 
   4   8  15 27.4873 8.37261   2 
   4   8  15 33.1353 8.68255   1 
   5   8  15 6.37833 7.42996   2 
   5   8  15 24.7398 8.35423   1 
   6   8  15 15.2030 8.35700   1 
   6   8  15 20.5079 14.1658   2 
   7   8  15 1.71389 8.22630   1 
   7   8  15 10.5876 14.6099   2 
   8   8  15 13.3522 14.2435   1 
   8   8  15 -6.0834 13.5628   2 
  -4   9  15 26.1149 11.8812   2 
  -4   9  15 4.61648 13.7719   1 
  -3   9  15 -4.1090 9.52537   2 
  -3   9  15 -7.6799 11.0506   1 
  -2   9  15 82.3125 17.7949   1 
  -2   9  15 40.9228 9.39472   2 
  -1   9  15 4.02360 7.37240   2 
  -1   9  15 11.6731 12.8536   1 
   0   9  15 51.6661 9.58347   2 
   0   9  15 106.777 18.4633   1 
   1   9  15 -10.348 7.26064   2 
   1   9  15 11.1241 12.7630   1 
   2   9  15 12.9050 8.35816   2 
   2   9  15 9.27437 11.7881   1 
   3   9  15 16.3878 8.09656   2 
   3   9  15 25.4208 14.3944   1 
   4   9  15 19.3363 7.72004   2 
   4   9  15 12.9278 7.19734   1 
   5   9  15 -7.7227 12.6274   2 
  -3  14   7 -2.6905 21.6934  -2 
   5   9  15 -2.6905 21.6934   1 
   5   9  15 -7.7529 9.03094   1 
   6   9  15 23.5249 15.5344   2 
   6   9  15 28.8018 9.16918   1 
   7   9  15 -3.5084 13.0509   2 
   7   9  15 -10.394 8.10133   1 
   8   9  15 20.5432 10.2532   1 
   8   9  15 14.8488 16.0208   2 
  -4  10  15 18.3761 13.6448   1 
  -3  10  15 21.2478 14.6423   1 
  -3  10  15 17.0321 10.6706   2 
  -2  10  15 4.93190 12.5814   1 
  -2  10  15 3.43205 8.37507   2 
  -1  10  15 7.01525 8.04690   2 
  -1  10  15 8.70242 13.3142   1 
   0  10  15 0.07161 7.65160   2 
   0  10  15 -0.0374 11.2157   1 
   1  10  15 10.3755 8.23319   2 
   1  10  15 36.2109 16.1483   1 
   2  10  15 4.51196 7.87515   2 
   2  10  15 16.2368 12.5154   1 
   3  10  15 21.0525 13.7783   1 
   3  10  15 11.4664 12.6723   2 
   4  10  15 3.60351 11.7167   1 
   4  10  15 -2.5763 12.3651   2 
   5  10  15 26.6034 8.52488   1 
   5  10  15 5.77683 13.6061   2 
   6  10  15 1.99600 13.3275   2 
   6  10  15 0.74845 7.76093   1 
   7  10  15 43.3996 8.31890   1 
   7  10  15 50.6291 17.4960   2 
   8  10  15 11.1687 7.80606   1 
   8  10  15 2.56917 15.1680   2 
  -3  11  15 -0.8415 8.25672   2 
  -3  11  15 0.30585 12.4854   1 
  -2  11  15 -2.9457 8.33334   2 
  -2  11  15 0.22109 13.2537   1 
  -1  11  15 -18.764 10.5856   1 
  -1  11  15 1.71772 7.83210   2 
   0  11  15 -0.9813 7.76736   2 
   0  11  15 10.2005 12.6469   1 
   1  11  15 12.4579 8.19141   2 
   1  11  15 38.6581 14.7975   1 
   2  11  15 -8.2618 11.9925   2 
   2  11  15 16.3565 12.4622   1 
   3  11  15 19.8707 14.8290   2 
   3  11  15 41.6194 14.1262   1 
   4  11  15 32.2666 14.8243   1 
   4  11  15 14.0789 13.8679   2 
   5  11  15 11.2241 12.5328   1 
   5  11  15 6.43175 13.9005   2 
   6  11  15 15.9049 7.14227   1 
   6  11  15 3.53064 13.2841   2 
   7  11  15 -8.9655 6.88319   1 
   7  11  15 3.49125 14.0601   2 
  -2  12  15 -0.1849 8.55347   2 
  -2  12  15 17.0805 12.6972   1 
  -1  12  15 -2.6633 11.2570   1 
  -1  12  15 19.3624 8.47107   2 
   0  12  15 20.0606 13.0138   1 
   0  12  15 8.01034 12.4580   2 
   1  12  15 3.21989 13.5195   2 
   1  12  15 10.9770 12.9911   1 
   2  12  15 37.2123 14.9366   1 
   3  12  15 -0.4686 12.4389   2 
   3  12  15 7.99441 12.2590   1 
   4  12  15 34.4995 15.4559   2 
   4  12  15 54.4454 15.7304   1 
   5  12  15 8.06202 13.7400   1 
   5  12  15 -3.9318 13.1256   2 
   6  12  15 8.41780 13.3259   1 
   6  12  15 8.29990 14.8758   2 
   7  12  15 21.7876 9.29000   1 
   7  12  15 -8.9223 13.4104   2 
  -4  15   4 32.9793 21.6284  -2 
   7  12  15 32.9793 21.6284   1 
   0  13  15 -3.6952 13.6216   2 
   0  13  15 25.3522 13.2848   1 
   1  13  15 4.38192 12.7081   2 
   1  13  15 -2.7899 10.9721   1 
   2  13  15 18.5243 13.4956   1 
   2  13  15 14.7598 14.0723   2 
   3  13  15 2.19090 13.2226   1 
   3  13  15 6.50450 13.2789   2 
   4  13  15 14.5004 14.9954   2 
   4  13  15 3.30184 14.0693   1 
   5  13  15 -1.2447 14.5354   2 
   5  13  15 -11.598 12.5198   1 
   6  13  15 19.4425 14.3089   1 
   6  13  15 9.84007 15.5724   2 
   1   0  16 2.16841 13.2556   1 
  -2   1  16 13.5890 15.6917   1 
  -1   1  16 9.34640 15.2098   2 
  -1   1  16 13.0107 8.92366   1 
   0   1  16 16.2270 9.04097   1 
   0   1  16 -14.984 13.0988   2 
   1   1  16 9.65551 13.4459   2 
   1   1  16 12.3004 9.41142   1 
   2   1  16 12.0319 9.41158   1 
   2   1  16 2.05025 13.0028   2 
   3   1  16 42.1752 11.0384   1 
   3   1  16 13.3699 13.8938   2 
   4   1  16 4.27646 13.8406   2 
   4   1  16 -11.628 10.9265   1 
  -3   2  16 -0.4678 15.4206   1 
  -2   2  16 -0.8841 13.9553   1 
  -2   2  16 3.42031 13.8659   2 
  -1   2  16 38.8537 16.7591   1 
  -1   2  16 9.12134 13.7057   2 
   0   2  16 4.06697 8.70861   1 
   0   2  16 1.30060 13.0819   2 
  -2  12  14 35.2717 11.3898  -2 
   1   2  16 35.2717 11.3898   1 
   1   2  16 21.8222 14.2165   2 
   2   2  16 52.3633 11.0571   1 
   2   2  16 1.43561 12.6819   2 
   3   2  16 13.8142 8.82441   1 
   3   2  16 -1.9018 9.28072   2 
   4   2  16 14.5847 9.29443   2 
   4   2  16 3.03200 14.7836   1 
   5   2  16 -0.5757 7.83519   1 
   5   2  16 2.45299 9.16355   2 
  -3   3  16 -0.7082 11.6083   2 
  -3   3  16 5.40166 14.3797   1 
  -2   3  16 0.53503 12.4057   2 
  -2   3  16 37.8395 15.7286   1 
  -1   3  16 -4.3768 13.2325   2 
  -1   3  16 9.05321 14.1506   1 
   0   3  16 119.970 19.8606   1 
   0   3  16 30.8846 13.9125   2 
   1   3  16 0.18089 7.80230   1 
   1   3  16 -7.2089 12.8613   2 
   2   3  16 22.1689 14.1520   2 
   2   3  16 46.8569 10.5640   1 
   3   3  16 -1.2015 8.52878   1 
   3   3  16 2.84158 13.4471   2 
   4   3  16 3.06611 8.72924   2 
   4   3  16 1.46306 7.92260   1 
   5   3  16 7.92434 8.51744   2 
   5   3  16 3.82148 14.7325   1 
   6   3  16 13.1056 9.82824   2 
   6   3  16 46.2604 10.8267   1 
  -3   4  16 5.65790 11.9959   2 
  -3   4  16 24.3259 16.3339   1 
  -2   4  16 7.68498 13.0081   2 
  -2   4  16 10.9707 14.5354   1 
  -1   4  16 24.5624 14.5520   1 
  -1   4  16 -6.6085 10.7512   2 
   0   4  16 -15.710 11.1879   2 
   0   4  16 4.89636 13.8855   1 
   1   4  16 5.86828 8.19253   1 
   1   4  16 7.41594 12.8077   2 
   2   4  16 17.1369 8.34171   1 
   3   4  16 3.81900 8.18824   2 
   3   4  16 4.66875 8.53416   1 
   4   4  16 4.38798 8.95350   2 
   4   4  16 12.3386 8.89344   1 
   5   4  16 8.49208 8.61219   2 
   5   4  16 40.0126 9.78524   1 
   6   4  16 1.34758 8.82452   2 
   6   4  16 0.86243 9.02537   1 
  -3   5  16 25.6668 15.4293   1 
  -3   5  16 -0.5728 12.1387   2 
  -2   5  16 23.1612 14.4389   1 
  -2   5  16 5.20694 12.6842   2 
  -1   5  16 17.4903 13.1693   2 
  -1   5  16 19.8668 14.6624   1 
   0   5  16 16.4701 14.1327   1 
   0   5  16 12.4258 12.1416   2 
   1   5  16 14.4457 8.71751   2 
   1   5  16 -5.4172 12.5587   1 
   2   5  16 1.63500 8.21067   2 
   2   5  16 -2.8060 7.49668   1 
   3   5  16 50.1477 10.1718   2 
  -3  13  11 149.678 23.8625  -2 
   3   5  16 149.678 23.8625   1 
   3   5  16 136.542 15.4207   1 
   4   5  16 25.3742 9.03395   1 
   4   5  16 12.3853 8.86231   2 
   5   5  16 8.76445 8.70545   2 
   5   5  16 57.6497 10.9670   1 
   6   5  16 10.2440 8.48481   2 
   6   5  16 6.23775 9.60702   1 
   7   5  16 -1.3351 8.47726   2 
   7   5  16 0.01628 9.35320   1 
  -3   6  16 -15.369 12.8829   1 
  -3   6  16 -3.9942 12.1354   2 
  -2   6  16 2.37434 11.3558   2 
  -2   6  16 -6.0281 12.2352   1 
  -1   6  16 47.8216 16.5612   1 
  -1   6  16 14.4785 11.8984   2 
   0   6  16 35.8172 15.1089   1 
   0   6  16 5.32706 11.9550   2 
   1   6  16 3.09903 8.26282   2 
   1   6  16 20.0057 13.5371   1 
   2   6  16 45.2496 10.1732   2 
   2   6  16 62.1992 16.7392   1 
   3   6  16 -2.4896 7.60920   1 
   3   6  16 -14.903 7.40109   2 
   4   6  16 31.8318 8.94516   1 
   4   6  16 10.6307 8.50478   2 
   5   6  16 1.58811 8.29730   1 
   5   6  16 5.53874 8.37369   2 
   6   6  16 21.9071 9.08686   1 
   6   6  16 2.08023 8.15702   2 
   7   6  16 -9.0992 7.50510   2 
   7   6  16 -4.8104 8.27893   1 
  -3   7  16 -2.0184 13.4512   1 
  -3   7  16 3.08146 11.6024   2 
  -2   7  16 17.3402 12.4334   2 
  -2   7  16 42.0140 15.4030   1 
  -1   7  16 -4.2853 12.8051   1 
  -1   7  16 -5.3553 10.6144   2 
   0   7  16 79.1792 17.9893   1 
   0   7  16 37.3369 9.63991   2 
   1   7  16 -1.3104 7.85522   2 
   1   7  16 5.45643 12.5791   1 
   2   7  16 40.8831 14.8649   1 
   2   7  16 10.1195 8.45115   2 
  -2  14  10 32.6859 20.4084  -2 
   3   7  16 32.6859 20.4084   1 
   4   7  16 5.69538 8.59148   2 
   4   7  16 3.86177 8.43451   1 
   5   7  16 9.33692 8.26274   2 
   5   7  16 -5.0166 7.85479   1 
   6   7  16 9.27637 8.35602   2 
   6   7  16 15.2874 8.81355   1 
   7   7  16 -4.7770 13.0317   2 
   7   7  16 -5.7261 8.34702   1 
  -3   8  16 18.2006 14.5805   1 
  -3   8  16 -6.9213 10.2703   2 
  -2   8  16 17.9540 14.5044   1 
  -2   8  16 2.65760 10.7238   2 
  -1   8  16 30.5583 15.8755   1 
  -1   8  16 17.1533 12.3509   2 
   0   8  16 2.93599 7.92371   2 
   0   8  16 -1.5140 11.2280   1 
   1   8  16 3.68975 8.13133   2 
   0  15  10 53.2943 23.9267  -2 
   1   8  16 53.2943 23.9267   1 
   2   8  16 7.26994 8.10995   2 
   2   8  16 -7.3205 12.7304   1 
   3   8  16 -2.0713 12.3410   1 
   3   8  16 -1.9155 7.99095   2 
   4   8  16 -18.032 7.75698   2 
   4   8  16 -8.0292 6.97840   1 
   5   8  16 0.34591 8.08356   1 
   5   8  16 -6.4674 7.64368   2 
   6   8  16 -4.3683 13.7409   2 
   6   8  16 10.3037 8.68969   1 
   7   8  16 31.9389 10.0071   1 
   7   8  16 2.21386 14.3249   2 
  -2   9  16 3.56062 12.9248   1 
  -2   9  16 10.3397 11.5583   2 
  -1   9  16 17.3340 9.12364   2 
  -1   9  16 10.0725 12.7499   1 
   0   9  16 8.15805 13.1364   1 
   0   9  16 3.86118 10.8193   2 
   1   9  16 -7.3149 7.92315   2 
   1   9  16 2.25633 12.4915   1 
   2   9  16 -11.301 7.44831   2 
   2   9  16 -4.9382 11.4174   1 
   3   9  16 37.0533 15.2786   1 
   3   9  16 3.12787 8.51828   2 
   4   9  16 12.0043 13.4723   1 
   4   9  16 11.9945 13.7640   2 
   5   9  16 38.4333 8.90138   1 
   5   9  16 27.9189 15.2551   2 
   6   9  16 5.08992 14.3682   2 
   6   9  16 0.00940 8.02544   1 
   7   9  16 9.20012 9.33127   1 
   7   9  16 14.4991 16.4579   2 
  -2  10  16 9.43003 14.2145   1 
  -2  10  16 -8.6536 10.3912   2 
  -1  10  16 55.1509 16.5328   1 
  -1  10  16 21.3316 9.76972   2 
   0  10  16 -4.6478 13.4439   1 
   0  10  16 -23.490 7.23231   2 
   1  16   9 13.5047 18.7041  -2 
   1  10  16 13.5047 18.7041   1 
   1  10  16 3.69024 8.50045   2 
   2  10  16 4.14989 8.16374   2 
   2  10  16 23.5375 13.9408   1 
   3  10  16 8.04002 14.2530   1 
   3  10  16 -3.8912 12.1651   2 
   4  10  16 48.8574 15.5387   1 
   4  10  16 32.5053 14.9799   2 
   5  10  16 1.31609 13.1433   2 
   5  10  16 34.5951 14.8844   1 
   6  10  16 -12.545 13.9521   2 
   6  10  16 -2.7137 8.04663   1 
  -1  11  16 6.43707 9.31606   2 
  -1  11  16 -4.8434 13.6134   1 
   0  11  16 40.6076 15.7494   1 
   0  11  16 16.3953 8.85590   2 
   1  11  16 13.8411 8.53756   2 
   1  11  16 1.69514 12.2285   1 
   2  11  16 49.4300 15.2943   1 
   2  11  16 10.7129 14.8690   2 
   3  11  16 11.2909 13.4869   1 
   3  11  16 20.2147 15.3816   2 
   4  11  16 5.65192 14.1689   2 
   4  11  16 3.02966 13.6631   1 
   5  11  16 23.3045 14.7790   1 
   5  11  16 6.04759 14.6786   2 
   6  11  16 2.43397 13.8832   1 
   6  11  16 -7.8015 14.3034   2 
   1  12  16 8.62783 14.4486   1 
   1  12  16 1.04897 12.9440   2 
   2  12  16 -6.8415 14.0793   2 
   2  12  16 29.4856 15.0167   1 
   3  12  16 23.7066 15.2778   1 
   3  12  16 0.98547 14.6693   2 
   4  12  16 -3.9132 13.5005   1 
   4  12  16 -7.7417 14.2842   2 
   0   4  17 16.3854 14.4862   2 
   0   4  17 -13.240 13.5239   1 
   1   4  17 35.9270 16.0699   2 
   1   4  17 69.2193 18.8553   1 
   2   4  17 -17.665 7.51793   1 
   2   4  17 5.53862 14.6005   2 
   3   4  17 6.18331 9.36467   2 
   3   4  17 53.9995 10.4359   1 
  -1   5  17 -16.409 10.7230   2 
  -1   5  17 -10.209 12.8558   1 
   0   5  17 41.6824 16.6656   1 
   1   5  17 10.5573 12.2559   2 
   1   5  17 0.68740 13.9670   1 
   2   5  17 70.4630 17.7128   1 
   2   5  17 15.1472 9.29702   2 
   3   5  17 6.29714 9.21156   2 
   3   5  17 25.1013 9.24814   1 
   4   5  17 7.82943 8.80703   2 
   4   5  17 3.86685 8.83155   1 
  -1   6  17 5.01111 13.4036   2 
  -1   6  17 24.6736 15.4266   1 
   0   6  17 3.11912 12.0473   2 
   0   6  17 8.57830 15.6236   1 
   1   6  17 14.7081 13.9077   1 
   1   6  17 -1.0445 11.0170   2 
   2   6  17 -3.4116 8.76717   2 
   2   6  17 -11.339 12.7465   1 
   3   6  17 7.98539 14.3693   1 
   3   6  17 -7.6986 8.53952   2 
   4   6  17 -4.9724 8.77246   2 
   4   6  17 7.75253 8.60223   1 
  -1   7  17 20.0457 12.5129   2 
  -1   7  17 -8.6733 13.9696   1 
   0   7  17 -13.861 10.7362   2 
   0   7  17 3.96543 14.2554   1 
   1   7  17 -1.4509 8.18552   2 
   1   7  17 0.29347 13.2164   1 
   2   7  17 0.08133 13.3939   1 
   2   7  17 -3.4312 8.71187   2 
   3   7  17 9.19101 14.3280   1 
   3   7  17 4.36235 9.34428   2 
   4   7  17 -2.5436 8.06048   1 
   4   7  17 -9.6925 8.48280   2 
   5   7  17 -8.5176 13.3701   2 
   5   7  17 52.8294 17.5562   1 
   0   8  17 -24.451 10.6245   2 
   0   8  17 -6.6976 13.6386   1 
   1   8  17 5.58830 9.19608   2 
   1   8  17 18.4658 15.4227   1 
   2   8  17 -4.1457 8.46213   2 
   2   8  17 -4.7180 13.1672   1 
   3   8  17 -5.8387 8.47754   2 
   3   8  17 52.0573 17.2414   1 
   4   8  17 2.75375 8.75628   2 
   4   8  17 48.5388 17.0516   1 
   5   8  17 10.8211 14.4877   2 
   5   8  17 -7.5585 13.4693   1 
   0   9  17 46.9089 16.8327   1 
   0   9  17 29.8507 13.1594   2 
   1   9  17 -21.822 11.1643   1 
   1   9  17 10.7877 8.31038   2 
   2   9  17 58.3946 17.2119   1 
   2   9  17 33.5323 9.60514   2 
   3   9  17 -6.7201 13.3048   1 
   3   9  17 -29.372 7.24917   2 
   4   9  17 26.9300 15.6399   2 
   4   9  17 37.2782 15.6511   1 
   2  10  17 -0.0606 13.2133   1 
   2  10  17 0.81894 8.57658   2 
   3  10  17 12.3393 14.5359   2 
   3  10  17 37.3244 16.2259   1 
   0   0   0    0.00    0.00   0 
;
_shelx_hkl_checksum              59066
loop_
_space_group_symop_operation_xyz
'x, y, z'
'-x, -y, -z'
loop_
_atom_site_label
_atom_site_type_symbol
_atom_site_fract_x
_atom_site_fract_y
_atom_site_fract_z
_atom_site_U_iso_or_equiv
_atom_site_adp_type
_atom_site_occupancy
_atom_site_site_symmetry_order
_atom_site_calc_flag
_atom_site_refinement_flags_posn
_atom_site_refinement_flags_adp
_atom_site_refinement_flags_occupancy
_atom_site_disorder_assembly
_atom_site_disorder_group
Fe1 Fe 0.57256(15) 0.37383(14) 0.68171(13) 0.0300(5) Uani 1 1 d . . . . .
N1 N 0.4544(8) 0.4331(8) 0.7718(7) 0.026(2) Uani 1 1 d . . . . .
N2 N 0.5958(8) 0.5239(7) 0.5889(7) 0.029(2) Uani 1 1 d . . . . .
N3 N 0.6517(8) 0.3240(8) 0.5681(7) 0.033(3) Uani 1 1 d . . . . .
N4 N 0.5127(9) 0.2332(8) 0.7533(7) 0.033(3) Uani 1 1 d . . . . .
N5 N 0.7193(8) 0.3348(9) 0.7667(7) 0.035(3) Uani 1 1 d . . . . .
N6 N 0.8656(10) 0.2419(12) 0.8688(9) 0.076(4) Uani 1 1 d D . . . .
H6 H 0.906(2) 0.190(3) 0.907(2) 0.091 Uiso 1 1 d D U . . .
C1 C 0.3791(10) 0.3781(10) 0.8551(9) 0.027(3) Uani 1 1 d . . . . .
C2 C 0.3158(10) 0.4472(10) 0.9061(8) 0.028(3) Uani 1 1 d . . . . .
C3 C 0.3535(10) 0.5447(9) 0.8567(8) 0.024(3) Uani 1 1 d . . . . .
C4 C 0.4386(10) 0.5344(10) 0.7731(9) 0.025(3) Uani 1 1 d . . . . .
C5 C 0.4921(10) 0.6182(9) 0.6990(9) 0.028(3) Uani 1 1 d . . . . .
H5 H 0.477570 0.684528 0.708385 0.033 Uiso 1 1 calc R U . . .
C6 C 0.5646(10) 0.6145(10) 0.6129(9) 0.029(3) Uani 1 1 d . . . . .
C7 C 0.6135(10) 0.7036(10) 0.5346(9) 0.030(3) Uani 1 1 d . . . . .
C8 C 0.6746(10) 0.6678(11) 0.4620(9) 0.032(3) Uani 1 1 d . . . . .
C9 C 0.6635(11) 0.5579(11) 0.4950(9) 0.037(3) Uani 1 1 d . . . . .
C10 C 0.7165(10) 0.4892(11) 0.4441(9) 0.034(3) Uani 1 1 d . . . . .
H10 H 0.759516 0.520390 0.379210 0.041 Uiso 1 1 calc R U . . .
C11 C 0.7119(10) 0.3813(11) 0.4790(9) 0.033(3) Uani 1 1 d . . . . .
C12 C 0.7769(11) 0.3139(11) 0.4272(9) 0.037(3) Uani 1 1 d . . . . .
C13 C 0.7573(13) 0.2137(13) 0.4877(11) 0.054(4) Uani 1 1 d . . . . .
C14 C 0.6798(11) 0.2184(11) 0.5749(10) 0.036(3) Uani 1 1 d . . . . .
C15 C 0.6349(12) 0.1349(11) 0.6543(10) 0.045(4) Uani 1 1 d . . . . .
H15 H 0.661928 0.065645 0.652537 0.054 Uiso 1 1 calc R U . . .
C16 C 0.5556(11) 0.1381(10) 0.7363(10) 0.037(3) Uani 1 1 d . . . . .
C17 C 0.5009(12) 0.0517(10) 0.8106(9) 0.039(3) Uani 1 1 d . . . . .
C18 C 0.4229(11) 0.0916(10) 0.8727(9) 0.035(3) Uani 1 1 d . . . . .
C19 C 0.4326(11) 0.2031(10) 0.8374(9) 0.032(3) Uani 1 1 d . . . . .
C20 C 0.3687(10) 0.2716(9) 0.8837(8) 0.026(3) Uani 1 1 d . . . . .
H20 H 0.313027 0.242402 0.939884 0.031 Uiso 1 1 calc R U . . .
C21 C 0.2227(10) 0.4181(10) 0.9928(9) 0.036(3) Uani 1 1 d . . . . .
H21A H 0.166541 0.484151 0.988448 0.043 Uiso 1 1 calc R U . . .
H21B H 0.177631 0.368439 0.983055 0.043 Uiso 1 1 calc R U . . .
C22 C 0.2695(14) 0.3666(15) 1.0988(12) 0.086(6) Uani 1 1 d . . . . .
H22A H 0.321664 0.299033 1.105119 0.129 Uiso 1 1 d R U . . .
H22B H 0.203505 0.351654 1.151969 0.129 Uiso 1 1 d R U . . .
H22C H 0.314588 0.415064 1.109113 0.129 Uiso 1 1 d R U . . .
C23 C 0.3166(10) 0.6419(9) 0.8811(9) 0.034(3) Uani 1 1 d . . . . .
H23A H 0.232910 0.643272 0.909220 0.041 Uiso 1 1 calc R U . . .
H23B H 0.319769 0.706143 0.815187 0.041 Uiso 1 1 calc R U . . .
C24 C 0.3901(12) 0.6503(10) 0.9584(10) 0.047(4) Uani 1 1 d . . . . .
H24A H 0.390002 0.585912 1.023170 0.071 Uiso 1 1 d R U . . .
H24B H 0.356582 0.714293 0.973627 0.071 Uiso 1 1 d R U . . .
H24C H 0.471691 0.656028 0.928603 0.071 Uiso 1 1 d R U . . .
C25 C 0.6047(11) 0.8114(10) 0.5399(9) 0.040(3) Uani 1 1 d . . . . .
H25A H 0.522989 0.832570 0.565068 0.048 Uiso 1 1 calc R U . . .
H25B H 0.619048 0.865037 0.468518 0.048 Uiso 1 1 calc R U . . .
C26 C 0.6913(12) 0.8143(11) 0.6110(11) 0.050(4) Uani 1 1 d . . . . .
H26A H 0.679906 0.758877 0.680936 0.075 Uiso 1 1 d R U . . .
H26B H 0.676515 0.885297 0.615302 0.075 Uiso 1 1 d R U . . .
H26C H 0.772920 0.800701 0.583351 0.075 Uiso 1 1 d R U . . .
C27 C 0.7457(10) 0.7298(10) 0.3657(9) 0.039(3) Uani 1 1 d . . . . .
H27A H 0.712103 0.807175 0.342389 0.047 Uiso 1 1 calc R U . . .
H27B H 0.737526 0.705948 0.308926 0.047 Uiso 1 1 calc R U . . .
C28 C 0.8765(12) 0.7163(12) 0.3821(10) 0.062(4) Uani 1 1 d . . . . .
H28A H 0.885963 0.752216 0.428222 0.093 Uiso 1 1 d R U . . .
H28B H 0.919486 0.748742 0.314525 0.093 Uiso 1 1 d R U . . .
H28C H 0.908418 0.639565 0.414399 0.093 Uiso 1 1 d R U . . .
C29 C 0.8571(11) 0.3475(11) 0.3299(9) 0.044(4) Uani 1 1 d . . . . .
H29A H 0.826606 0.422085 0.283360 0.052 Uiso 1 1 calc R U . . .
H29B H 0.856919 0.299941 0.292035 0.052 Uiso 1 1 calc R U . . .
C30 C 0.9836(11) 0.3420(12) 0.3552(10) 0.058(4) Uani 1 1 d . . . . .
H30A H 0.985657 0.397120 0.382702 0.087 Uiso 1 1 d R U . . .
H30B H 1.035913 0.354780 0.291443 0.087 Uiso 1 1 d R U . . .
H30C H 1.010490 0.270676 0.407747 0.087 Uiso 1 1 d R U . . .
C31 C 0.8218(15) 0.1037(13) 0.4779(13) 0.077(5) Uani 1 1 d . U . . .
H31A H 0.898152 0.113234 0.435883 0.093 Uiso 1 1 calc R U . . .
H31B H 0.836619 0.045968 0.547721 0.093 Uiso 1 1 calc R U . . .
C32 C 0.7408(15) 0.0805(14) 0.4274(13) 0.086(5) Uani 1 1 d . U . . .
H32A H 0.666951 0.069696 0.471370 0.129 Uiso 1 1 d R U . . .
H32B H 0.773372 0.015143 0.414244 0.129 Uiso 1 1 d R U . . .
H32C H 0.724600 0.141104 0.360643 0.129 Uiso 1 1 d R U . . .
C33 C 0.5285(13) -0.0631(10) 0.8159(10) 0.046(4) Uani 1 1 d . . . . .
H33A H 0.612427 -0.077933 0.791780 0.056 Uiso 1 1 calc R U . . .
H33B H 0.517977 -0.113561 0.889484 0.056 Uiso 1 1 calc R U . . .
C34 C 0.4495(13) -0.0822(11) 0.7495(10) 0.056(4) Uani 1 1 d . . . . .
H34A H 0.366439 -0.066638 0.772774 0.084 Uiso 1 1 d R U . . .
H34B H 0.467937 -0.157403 0.756352 0.084 Uiso 1 1 d R U . . .
H34C H 0.462534 -0.034758 0.676036 0.084 Uiso 1 1 d R U . . .
C35 C 0.3352(12) 0.0346(10) 0.9531(9) 0.044(4) Uani 1 1 d . . . . .
H35A H 0.326512 0.059226 1.011803 0.053 Uiso 1 1 calc R U . . .
H35B H 0.365401 -0.043560 0.981063 0.053 Uiso 1 1 calc R U . . .
C36 C 0.2137(13) 0.0537(12) 0.9104(11) 0.064(5) Uani 1 1 d . . . . .
H36A H 0.188551 0.131162 0.873780 0.095 Uiso 1 1 d R U . . .
H36B H 0.155753 0.024624 0.968318 0.095 Uiso 1 1 d R U . . .
H36C H 0.218733 0.017671 0.861476 0.095 Uiso 1 1 d R U . . .
C37 C 0.7652(11) 0.2397(14) 0.8243(10) 0.059(4) Uani 1 1 d D . . . .
H37 H 0.734797 0.176181 0.835324 0.071 Uiso 1 1 calc R U . . .
C38 C 0.7903(12) 0.4055(13) 0.7713(10) 0.057(4) Uani 1 1 d . . . . .
H38 H 0.777798 0.481614 0.736214 0.069 Uiso 1 1 calc R U . . .
C39 C 0.8779(14) 0.3473(16) 0.8333(12) 0.069(5) Uani 1 1 d D U . . .
C40 C 0.9783(15) 0.3810(15) 0.8647(14) 0.099(6) Uani 1 1 d . . . . .
H40A H 0.971456 0.360984 0.940719 0.149 Uiso 1 1 d R U . . .
H40B H 0.974554 0.459225 0.829426 0.149 Uiso 1 1 d R U . . .
H40C H 1.054199 0.345154 0.844877 0.149 Uiso 1 1 d R U . . .
Sb1 Sb 1.0441(3) 0.1161(3) 1.1706(3) 0.0436(7) Uani 0.750(6) 1 d D U P A 1
F1 F 0.9778(7) 0.1261(7) 1.0519(5) 0.068(3) Uani 0.750(6) 1 d D U P A 1
F2 F 0.9804(7) 0.2583(5) 1.1451(7) 0.084(3) Uani 0.750(6) 1 d D U P A 1
F3 F 1.1793(6) 0.1606(6) 1.0899(6) 0.068(3) Uani 0.750(6) 1 d D U P A 1
F4 F 1.1113(8) 0.1054(7) 1.2885(6) 0.089(4) Uani 0.750(6) 1 d D U P A 1
F5 F 1.1075(8) -0.0262(5) 1.1945(7) 0.086(3) Uani 0.750(6) 1 d D U P A 1
F6 F 0.9076(7) 0.0730(8) 1.2499(7) 0.108(4) Uani 0.750(6) 1 d D U P A 1
Sb1' Sb 1.0383(9) 0.0906(8) 1.1736(9) 0.0436(7) Uani 0.250(6) 1 d D . P A 2
F1' F 1.017(2) 0.0160(17) 1.0935(16) 0.086(7) Uani 0.250(6) 1 d D U P A 2
F2' F 0.8872(12) 0.1678(17) 1.1463(17) 0.088(6) Uani 0.250(6) 1 d D U P A 2
F3' F 1.1003(19) 0.1934(14) 1.0558(13) 0.070(7) Uani 0.250(6) 1 d D U P A 2
F4' F 1.059(2) 0.1648(16) 1.2539(16) 0.081(6) Uani 0.250(6) 1 d D U P A 2
F5' F 1.1892(12) 0.0126(16) 1.2008(17) 0.079(7) Uani 0.250(6) 1 d D U P A 2
F6' F 0.9765(19) -0.0128(14) 1.2912(13) 0.080(7) Uani 0.250(6) 1 d D U P A 2
loop_
_atom_site_aniso_label
_atom_site_aniso_U_11
_atom_site_aniso_U_22
_atom_site_aniso_U_33
_atom_site_aniso_U_23
_atom_site_aniso_U_13
_atom_site_aniso_U_12
Fe1 0.0347(11) 0.0313(12) 0.0279(10) -0.0167(9) -0.0016(8) -0.0022(9)
N1 0.032(6) 0.024(6) 0.026(6) -0.013(5) -0.006(5) -0.001(5)
N2 0.038(6) 0.027(7) 0.021(6) -0.012(5) 0.000(5) 0.000(5)
N3 0.029(6) 0.045(8) 0.025(6) -0.017(6) 0.001(5) -0.002(6)
N4 0.044(7) 0.028(7) 0.032(6) -0.018(5) 0.000(5) -0.008(5)
N5 0.028(6) 0.045(8) 0.035(7) -0.023(6) -0.001(5) 0.000(6)
N6 0.053(9) 0.094(12) 0.059(9) -0.010(8) -0.017(7) 0.003(8)
C1 0.021(7) 0.033(9) 0.030(7) -0.015(7) -0.005(6) -0.001(6)
C2 0.030(7) 0.034(9) 0.017(7) -0.012(6) -0.003(6) 0.006(6)
C3 0.025(7) 0.024(8) 0.022(7) -0.011(6) -0.008(6) 0.003(6)
C4 0.030(7) 0.023(8) 0.025(7) -0.014(6) -0.016(6) 0.007(6)
C5 0.035(7) 0.014(7) 0.040(8) -0.015(6) -0.012(6) 0.002(6)
C6 0.028(7) 0.029(9) 0.025(7) -0.005(7) -0.006(6) -0.001(6)
C7 0.034(7) 0.023(8) 0.028(7) -0.005(7) -0.015(6) 0.009(6)
C8 0.026(7) 0.041(9) 0.024(7) -0.006(7) -0.001(6) -0.007(7)
C9 0.038(8) 0.054(10) 0.021(7) -0.010(7) -0.009(6) -0.015(7)
C10 0.038(8) 0.049(10) 0.021(7) -0.017(7) -0.004(6) -0.008(7)
C11 0.032(7) 0.040(9) 0.026(8) -0.016(7) -0.007(6) 0.003(7)
C12 0.045(9) 0.043(10) 0.024(7) -0.016(7) -0.005(6) -0.001(7)
C13 0.058(10) 0.060(11) 0.041(9) -0.027(9) 0.004(8) 0.006(8)
C14 0.045(9) 0.025(9) 0.034(8) -0.014(7) -0.007(7) 0.011(7)
C15 0.066(10) 0.033(9) 0.042(9) -0.022(8) 0.000(8) -0.004(8)
C16 0.048(9) 0.032(9) 0.034(8) -0.016(7) -0.006(7) -0.005(7)
C17 0.053(9) 0.033(9) 0.031(8) -0.012(7) -0.006(7) -0.005(7)
C18 0.044(8) 0.037(9) 0.032(8) -0.023(7) -0.003(7) -0.001(7)
C19 0.039(8) 0.038(9) 0.026(7) -0.016(7) -0.007(6) -0.007(7)
C20 0.034(7) 0.022(8) 0.021(7) -0.006(6) -0.002(6) -0.004(6)
C21 0.036(8) 0.035(8) 0.036(8) -0.018(7) -0.009(6) 0.009(6)
C22 0.068(12) 0.128(16) 0.077(13) -0.048(12) 0.007(10) -0.036(11)
C23 0.037(8) 0.030(8) 0.039(8) -0.021(7) -0.002(6) 0.004(6)
C24 0.067(10) 0.030(9) 0.047(9) -0.021(7) -0.003(8) -0.001(7)
C25 0.043(8) 0.035(9) 0.031(8) 0.000(7) -0.006(6) -0.005(7)
C26 0.054(9) 0.043(9) 0.067(10) -0.033(8) -0.010(8) -0.008(7)
C27 0.045(8) 0.036(9) 0.037(8) -0.011(7) -0.015(7) -0.006(7)
C28 0.073(11) 0.083(12) 0.034(8) -0.016(8) -0.004(8) -0.038(9)
C29 0.045(9) 0.057(10) 0.030(8) -0.025(7) 0.008(6) 0.002(7)
C30 0.045(9) 0.086(12) 0.045(9) -0.032(9) 0.001(7) -0.004(8)
C31 0.089(7) 0.080(7) 0.073(7) -0.040(5) 0.007(5) -0.019(5)
C32 0.079(9) 0.084(9) 0.086(9) -0.027(8) -0.009(7) -0.003(7)
C33 0.073(10) 0.029(9) 0.037(8) -0.013(7) -0.001(7) -0.007(7)
C34 0.077(11) 0.044(10) 0.045(9) -0.017(8) -0.005(8) -0.002(8)
C35 0.065(10) 0.031(9) 0.033(8) -0.013(7) 0.010(7) -0.009(7)
C36 0.078(12) 0.078(12) 0.049(9) -0.033(9) 0.016(9) -0.039(10)
C37 0.041(9) 0.065(12) 0.069(11) -0.019(10) -0.017(8) -0.009(9)
C38 0.047(9) 0.075(12) 0.047(9) -0.022(9) -0.013(8) 0.000(9)
C39 0.066(7) 0.075(7) 0.066(7) -0.027(5) 0.001(5) -0.012(5)
C40 0.093(14) 0.114(17) 0.108(16) -0.048(13) -0.029(12) -0.027(12)
Sb1 0.0403(7) 0.0581(17) 0.0347(6) -0.0226(11) -0.0033(5) -0.0019(10)
F1 0.080(7) 0.077(7) 0.055(6) -0.033(5) -0.027(5) 0.000(6)
F2 0.081(7) 0.079(7) 0.101(8) -0.059(6) -0.027(6) 0.034(6)
F3 0.059(6) 0.067(7) 0.092(7) -0.049(6) 0.022(6) -0.015(6)
F4 0.114(9) 0.097(9) 0.054(7) -0.024(6) -0.045(6) -0.001(7)
F5 0.109(8) 0.045(6) 0.103(8) -0.029(6) -0.040(7) 0.014(6)
F6 0.100(7) 0.136(8) 0.096(7) -0.055(6) 0.029(6) -0.039(6)
Sb1' 0.0403(7) 0.0581(17) 0.0347(6) -0.0226(11) -0.0033(5) -0.0019(10)
F1' 0.100(15) 0.084(13) 0.090(13) -0.046(12) -0.014(12) -0.014(12)
F2' 0.067(10) 0.093(11) 0.092(11) -0.036(10) -0.009(9) 0.013(10)
F3' 0.074(12) 0.060(11) 0.068(11) -0.023(10) 0.011(11) -0.004(11)
F4' 0.102(13) 0.077(12) 0.078(11) -0.047(10) -0.019(11) 0.003(11)
F5' 0.053(11) 0.073(12) 0.094(12) -0.019(10) -0.010(10) 0.002(10)
F6' 0.086(14) 0.075(13) 0.079(12) -0.032(11) 0.005(12) -0.014(12)
loop_
_atom_type_symbol
_atom_type_description
_atom_type_scat_dispersion_real
_atom_type_scat_dispersion_imag
_atom_type_scat_source
C C 0.0033 0.0016 'International Tables Vol C Tables 4.2.6.8 and 6.1.1.4'
H H 0.0000 0.0000 'International Tables Vol C Tables 4.2.6.8 and 6.1.1.4'
N N 0.0061 0.0033 'International Tables Vol C Tables 4.2.6.8 and 6.1.1.4'
F F 0.0171 0.0103 'International Tables Vol C Tables 4.2.6.8 and 6.1.1.4'
Fe Fe 0.3463 0.8444 'International Tables Vol C Tables 4.2.6.8 and 6.1.1.4'
Sb Sb -0.5866 1.5461 'International Tables Vol C Tables 4.2.6.8 and 6.1.1.4'
loop_
_geom_angle_atom_site_label_1
_geom_angle_atom_site_label_2
_geom_angle_atom_site_label_3
_geom_angle
_geom_angle_site_symmetry_1
_geom_angle_site_symmetry_3
_geom_angle_publ_flag
N2 Fe1 N4 165.3(4) . . ?
N2 Fe1 N1 89.0(4) . . ?
N4 Fe1 N1 88.7(4) . . ?
N2 Fe1 N3 89.2(4) . . ?
N4 Fe1 N3 89.0(4) . . ?
N1 Fe1 N3 164.1(4) . . ?
N2 Fe1 N5 97.5(4) . . ?
N4 Fe1 N5 97.2(4) . . ?
N1 Fe1 N5 99.1(3) . . ?
N3 Fe1 N5 96.8(4) . . ?
C4 N1 C1 104.0(9) . . ?
C4 N1 Fe1 127.5(8) . . ?
C1 N1 Fe1 128.2(8) . . ?
C6 N2 C9 104.4(10) . . ?
C6 N2 Fe1 126.9(7) . . ?
C9 N2 Fe1 128.0(8) . . ?
C11 N3 C14 104.5(10) . . ?
C11 N3 Fe1 127.3(9) . . ?
C14 N3 Fe1 126.7(8) . . ?
C19 N4 C16 104.2(10) . . ?
C19 N4 Fe1 128.7(8) . . ?
C16 N4 Fe1 126.7(8) . . ?
C37 N5 C38 106.8(11) . . ?
C37 N5 Fe1 125.8(10) . . ?
C38 N5 Fe1 127.4(9) . . ?
C39 N6 C37 105.7(13) . . ?
C39 N6 H6 129(2) . . ?
C37 N6 H6 125(2) . . ?
C20 C1 N1 123.7(10) . . ?
C20 C1 C2 125.2(11) . . ?
N1 C1 C2 111.1(10) . . ?
C3 C2 C1 107.1(10) . . ?
C3 C2 C21 127.1(11) . . ?
C1 C2 C21 125.8(11) . . ?
C2 C3 C4 105.9(10) . . ?
C2 C3 C23 127.9(11) . . ?
C4 C3 C23 126.2(11) . . ?
N1 C4 C5 123.5(11) . . ?
N1 C4 C3 111.9(10) . . ?
C5 C4 C3 124.5(11) . . ?
C6 C5 C4 126.3(11) . . ?
C6 C5 H5 116.9 . . ?
C4 C5 H5 116.9 . . ?
C5 C6 N2 124.1(11) . . ?
C5 C6 C7 125.2(11) . . ?
N2 C6 C7 110.7(10) . . ?
C8 C7 C6 106.8(11) . . ?
C8 C7 C25 128.3(12) . . ?
C6 C7 C25 124.8(11) . . ?
C7 C8 C9 107.3(11) . . ?
C7 C8 C27 127.5(12) . . ?
C9 C8 C27 125.2(11) . . ?
N2 C9 C10 123.2(12) . . ?
N2 C9 C8 110.9(11) . . ?
C10 C9 C8 125.9(12) . . ?
C11 C10 C9 126.1(12) . . ?
C11 C10 H10 117.0 . . ?
C9 C10 H10 117.0 . . ?
N3 C11 C10 125.1(11) . . ?
N3 C11 C12 111.8(12) . . ?
C10 C11 C12 123.0(12) . . ?
C13 C12 C11 105.8(12) . . ?
C13 C12 C29 127.1(12) . . ?
C11 C12 C29 127.0(13) . . ?
C12 C13 C14 108.1(12) . . ?
C12 C13 C31 127.8(13) . . ?
C14 C13 C31 123.6(14) . . ?
C15 C14 N3 122.7(11) . . ?
C15 C14 C13 127.4(13) . . ?
N3 C14 C13 109.9(12) . . ?
C14 C15 C16 128.6(12) . . ?
C14 C15 H15 115.7 . . ?
C16 C15 H15 115.7 . . ?
C15 C16 N4 122.7(12) . . ?
C15 C16 C17 126.9(12) . . ?
N4 C16 C17 110.3(11) . . ?
C18 C17 C16 107.5(11) . . ?
C18 C17 C33 128.3(12) . . ?
C16 C17 C33 124.2(12) . . ?
C17 C18 C19 106.4(11) . . ?
C17 C18 C35 126.9(12) . . ?
C19 C18 C35 126.3(11) . . ?
N4 C19 C20 124.6(12) . . ?
N4 C19 C18 111.5(11) . . ?
C20 C19 C18 123.8(11) . . ?
C1 C20 C19 125.7(11) . . ?
C1 C20 H20 117.2 . . ?
C19 C20 H20 117.2 . . ?
C22 C21 C2 114.0(11) . . ?
C22 C21 H21A 108.7 . . ?
C2 C21 H21A 108.7 . . ?
C22 C21 H21B 108.7 . . ?
C2 C21 H21B 108.7 . . ?
H21A C21 H21B 107.6 . . ?
C21 C22 H22A 109.3 . . ?
C21 C22 H22B 109.7 . . ?
H22A C22 H22B 109.5 . . ?
C21 C22 H22C 109.4 . . ?
H22A C22 H22C 109.5 . . ?
H22B C22 H22C 109.5 . . ?
C3 C23 C24 114.9(10) . . ?
C3 C23 H23A 108.5 . . ?
C24 C23 H23A 108.5 . . ?
C3 C23 H23B 108.5 . . ?
C24 C23 H23B 108.5 . . ?
H23A C23 H23B 107.5 . . ?
C23 C24 H24A 109.4 . . ?
C23 C24 H24B 109.7 . . ?
H24A C24 H24B 109.5 . . ?
C23 C24 H24C 109.4 . . ?
H24A C24 H24C 109.5 . . ?
H24B C24 H24C 109.5 . . ?
C7 C25 C26 113.5(10) . . ?
C7 C25 H25A 108.9 . . ?
C26 C25 H25A 108.9 . . ?
C7 C25 H25B 108.9 . . ?
C26 C25 H25B 108.9 . . ?
H25A C25 H25B 107.7 . . ?
C25 C26 H26A 109.1 . . ?
C25 C26 H26B 109.2 . . ?
H26A C26 H26B 109.5 . . ?
C25 C26 H26C 110.1 . . ?
H26A C26 H26C 109.5 . . ?
H26B C26 H26C 109.5 . . ?
C8 C27 C28 113.8(10) . . ?
C8 C27 H27A 108.8 . . ?
C28 C27 H27A 108.8 . . ?
C8 C27 H27B 108.8 . . ?
C28 C27 H27B 108.8 . . ?
H27A C27 H27B 107.7 . . ?
C27 C28 H28A 109.1 . . ?
C27 C28 H28B 109.6 . . ?
H28A C28 H28B 109.5 . . ?
C27 C28 H28C 109.7 . . ?
H28A C28 H28C 109.5 . . ?
H28B C28 H28C 109.5 . . ?
C12 C29 C30 111.5(10) . . ?
C12 C29 H29A 109.3 . . ?
C30 C29 H29A 109.3 . . ?
C12 C29 H29B 109.3 . . ?
C30 C29 H29B 109.3 . . ?
H29A C29 H29B 108.0 . . ?
C29 C30 H30A 109.4 . . ?
C29 C30 H30B 109.6 . . ?
H30A C30 H30B 109.5 . . ?
C29 C30 H30C 109.5 . . ?
H30A C30 H30C 109.5 . . ?
H30B C30 H30C 109.5 . . ?
C32 C31 C13 103.0(14) . . ?
C32 C31 H31A 111.2 . . ?
C13 C31 H31A 111.2 . . ?
C32 C31 H31B 111.2 . . ?
C13 C31 H31B 111.2 . . ?
H31A C31 H31B 109.1 . . ?
C31 C32 H32A 109.4 . . ?
C31 C32 H32B 110.0 . . ?
H32A C32 H32B 109.5 . . ?
C31 C32 H32C 108.9 . . ?
H32A C32 H32C 109.5 . . ?
H32B C32 H32C 109.5 . . ?
C34 C33 C17 111.7(11) . . ?
C34 C33 H33A 109.3 . . ?
C17 C33 H33A 109.3 . . ?
C34 C33 H33B 109.3 . . ?
C17 C33 H33B 109.3 . . ?
H33A C33 H33B 108.0 . . ?
C33 C34 H34A 109.3 . . ?
C33 C34 H34B 109.6 . . ?
H34A C34 H34B 109.5 . . ?
C33 C34 H34C 109.5 . . ?
H34A C34 H34C 109.5 . . ?
H34B C34 H34C 109.5 . . ?
C18 C35 C36 112.7(11) . . ?
C18 C35 H35A 109.0 . . ?
C36 C35 H35A 109.0 . . ?
C18 C35 H35B 109.0 . . ?
C36 C35 H35B 109.0 . . ?
H35A C35 H35B 107.8 . . ?
C35 C36 H36A 109.3 . . ?
C35 C36 H36B 109.7 . . ?
H36A C36 H36B 109.5 . . ?
C35 C36 H36C 109.5 . . ?
H36A C36 H36C 109.5 . . ?
H36B C36 H36C 109.5 . . ?
N5 C37 N6 110.9(14) . . ?
N5 C37 H37 124.6 . . ?
N6 C37 H37 124.6 . . ?
C39 C38 N5 108.2(15) . . ?
C39 C38 H38 125.9 . . ?
N5 C38 H38 125.9 . . ?
C38 C39 N6 108.4(16) . . ?
C38 C39 C40 130.6(18) . . ?
N6 C39 C40 121.0(16) . . ?
C39 C40 H40A 109.2 . . ?
C39 C40 H40B 109.4 . . ?
H40A C40 H40B 109.5 . . ?
C39 C40 H40C 109.9 . . ?
H40A C40 H40C 109.5 . . ?
H40B C40 H40C 109.5 . . ?
F4 Sb1 F3 90.1(3) . . ?
F4 Sb1 F6 90.5(3) . . ?
F3 Sb1 F6 179.2(4) . . ?
F4 Sb1 F2 90.3(3) . . ?
F3 Sb1 F2 89.6(3) . . ?
F6 Sb1 F2 89.9(3) . . ?
F4 Sb1 F5 90.4(3) . . ?
F3 Sb1 F5 90.2(3) . . ?
F6 Sb1 F5 90.3(3) . . ?
F2 Sb1 F5 179.3(3) . . ?
F4 Sb1 F1 179.5(4) . . ?
F3 Sb1 F1 89.6(3) . . ?
F6 Sb1 F1 89.8(3) . . ?
F2 Sb1 F1 90.1(3) . . ?
F5 Sb1 F1 89.2(3) . . ?
F2' Sb1' F4' 90.2(3) . . ?
F2' Sb1' F3' 90.3(3) . . ?
F4' Sb1' F3' 90.2(3) . . ?
F2' Sb1' F5' 179.6(4) . . ?
F4' Sb1' F5' 90.1(3) . . ?
F3' Sb1' F5' 89.9(3) . . ?
F2' Sb1' F1' 89.8(3) . . ?
F4' Sb1' F1' 179.9(4) . . ?
F3' Sb1' F1' 89.9(3) . . ?
F5' Sb1' F1' 89.8(3) . . ?
F2' Sb1' F6' 89.8(3) . . ?
F4' Sb1' F6' 90.1(3) . . ?
F3' Sb1' F6' 179.7(4) . . ?
F5' Sb1' F6' 90.0(3) . . ?
F1' Sb1' F6' 89.8(3) . . ?
loop_
_geom_bond_atom_site_label_1
_geom_bond_atom_site_label_2
_geom_bond_distance
_geom_bond_site_symmetry_2
_geom_bond_publ_flag
Fe1 N2 1.995(9) . ?
Fe1 N4 1.996(10) . ?
Fe1 N1 2.008(9) . ?
Fe1 N3 2.014(9) . ?
Fe1 N5 2.051(10) . ?
N1 C4 1.372(13) . ?
N1 C1 1.401(14) . ?
N2 C6 1.383(14) . ?
N2 C9 1.388(14) . ?
N3 C11 1.360(15) . ?
N3 C14 1.389(15) . ?
N4 C19 1.370(14) . ?
N4 C16 1.404(14) . ?
N5 C37 1.278(16) . ?
N5 C38 1.407(17) . ?
N6 C39 1.36(2) . ?
N6 C37 1.390(17) . ?
N6 H6 0.79(3) . ?
C1 C20 1.377(15) . ?
C1 C2 1.439(15) . ?
C2 C3 1.364(15) . ?
C2 C21 1.487(16) . ?
C3 C4 1.456(15) . ?
C3 C23 1.477(15) . ?
C4 C5 1.388(15) . ?
C5 C6 1.383(15) . ?
C5 H5 0.9500 . ?
C6 C7 1.429(16) . ?
C7 C8 1.357(15) . ?
C7 C25 1.493(16) . ?
C8 C9 1.415(17) . ?
C8 C27 1.506(16) . ?
C9 C10 1.402(16) . ?
C10 C11 1.370(16) . ?
C10 H10 0.9500 . ?
C11 C12 1.436(16) . ?
C12 C13 1.340(18) . ?
C12 C29 1.499(16) . ?
C13 C14 1.427(17) . ?
C13 C31 1.60(2) . ?
C14 C15 1.367(17) . ?
C15 C16 1.376(17) . ?
C15 H15 0.9500 . ?
C16 C17 1.419(17) . ?
C17 C18 1.357(16) . ?
C17 C33 1.518(16) . ?
C18 C19 1.430(16) . ?
C18 C35 1.482(16) . ?
C19 C20 1.390(15) . ?
C20 H20 0.9500 . ?
C21 C22 1.484(18) . ?
C21 H21A 0.9900 . ?
C21 H21B 0.9900 . ?
C22 H22A 0.9800 . ?
C22 H22B 0.9800 . ?
C22 H22C 0.9800 . ?
C23 C24 1.505(16) . ?
C23 H23A 0.9900 . ?
C23 H23B 0.9900 . ?
C24 H24A 0.9800 . ?
C24 H24B 0.9800 . ?
C24 H24C 0.9800 . ?
C25 C26 1.510(16) . ?
C25 H25A 0.9900 . ?
C25 H25B 0.9900 . ?
C26 H26A 0.9800 . ?
C26 H26B 0.9800 . ?
C26 H26C 0.9800 . ?
C27 C28 1.516(17) . ?
C27 H27A 0.9900 . ?
C27 H27B 0.9900 . ?
C28 H28A 0.9800 . ?
C28 H28B 0.9800 . ?
C28 H28C 0.9800 . ?
C29 C30 1.522(16) . ?
C29 H29A 0.9900 . ?
C29 H29B 0.9900 . ?
C30 H30A 0.9800 . ?
C30 H30B 0.9800 . ?
C30 H30C 0.9800 . ?
C31 C32 1.39(2) . ?
C31 H31A 0.9900 . ?
C31 H31B 0.9900 . ?
C32 H32A 0.9800 . ?
C32 H32B 0.9800 . ?
C32 H32C 0.9800 . ?
C33 C34 1.502(17) . ?
C33 H33A 0.9900 . ?
C33 H33B 0.9900 . ?
C34 H34A 0.9800 . ?
C34 H34B 0.9800 . ?
C34 H34C 0.9800 . ?
C35 C36 1.526(17) . ?
C35 H35A 0.9900 . ?
C35 H35B 0.9900 . ?
C36 H36A 0.9800 . ?
C36 H36B 0.9800 . ?
C36 H36C 0.9800 . ?
C37 H37 0.9500 . ?
C38 C39 1.33(2) . ?
C38 H38 0.9500 . ?
C39 C40 1.50(2) . ?
C40 H40A 0.9800 . ?
C40 H40B 0.9800 . ?
C40 H40C 0.9800 . ?
Sb1 F4 1.850(5) . ?
Sb1 F3 1.850(5) . ?
Sb1 F6 1.850(5) . ?
Sb1 F2 1.852(5) . ?
Sb1 F5 1.855(5) . ?
Sb1 F1 1.857(5) . ?
Sb1' F2' 1.851(6) . ?
Sb1' F4' 1.851(6) . ?
Sb1' F3' 1.852(6) . ?
Sb1' F5' 1.853(6) . ?
Sb1' F1' 1.854(6) . ?
Sb1' F6' 1.854(6) . ?
loop_
_geom_hbond_atom_site_label_D
_geom_hbond_atom_site_label_H
_geom_hbond_atom_site_label_A
_geom_hbond_distance_DH
_geom_hbond_distance_HA
_geom_hbond_distance_DA
_geom_hbond_angle_DHA
_geom_hbond_site_symmetry_A
_geom_hbond_publ_flag
N6 H6 F1 0.79(3) 2.07(3) 2.746(13) 143(2) . yes
C20 H20 F3 0.95 2.44 3.389(13) 176.8 1_455 yes
C37 H37 F5 0.95 2.60 3.106(16) 114.0 2_757 yes
C40 H40A F2 0.98 2.63 3.59(2) 165.1 . yes
C40 H40A F3' 0.98 2.53 3.13(3) 119.3 . yes
loop_
_geom_torsion_atom_site_label_1
_geom_torsion_atom_site_label_2
_geom_torsion_atom_site_label_3
_geom_torsion_atom_site_label_4
_geom_torsion
_geom_torsion_site_symmetry_1
_geom_torsion_site_symmetry_2
_geom_torsion_site_symmetry_3
_geom_torsion_site_symmetry_4
_geom_torsion_publ_flag
C4 N1 C1 C20 -178.7(10) . . . . ?
Fe1 N1 C1 C20 -5.2(15) . . . . ?
C4 N1 C1 C2 0.9(11) . . . . ?
Fe1 N1 C1 C2 174.5(7) . . . . ?
C20 C1 C2 C3 178.2(10) . . . . ?
N1 C1 C2 C3 -1.5(12) . . . . ?
C20 C1 C2 C21 -4.7(18) . . . . ?
N1 C1 C2 C21 175.6(10) . . . . ?
C1 C2 C3 C4 1.4(12) . . . . ?
C21 C2 C3 C4 -175.7(10) . . . . ?
C1 C2 C3 C23 -178.9(10) . . . . ?
C21 C2 C3 C23 4.0(19) . . . . ?
C1 N1 C4 C5 -176.2(10) . . . . ?
Fe1 N1 C4 C5 10.1(15) . . . . ?
C1 N1 C4 C3 -0.1(11) . . . . ?
Fe1 N1 C4 C3 -173.7(7) . . . . ?
C2 C3 C4 N1 -0.9(12) . . . . ?
C23 C3 C4 N1 179.4(10) . . . . ?
C2 C3 C4 C5 175.3(10) . . . . ?
C23 C3 C4 C5 -4.5(17) . . . . ?
N1 C4 C5 C6 2.2(18) . . . . ?
C3 C4 C5 C6 -173.6(10) . . . . ?
C4 C5 C6 N2 -1.0(18) . . . . ?
C4 C5 C6 C7 176.4(10) . . . . ?
C9 N2 C6 C5 177.3(10) . . . . ?
Fe1 N2 C6 C5 -12.5(16) . . . . ?
C9 N2 C6 C7 -0.4(12) . . . . ?
Fe1 N2 C6 C7 169.8(7) . . . . ?
C5 C6 C7 C8 -177.4(11) . . . . ?
N2 C6 C7 C8 0.3(13) . . . . ?
C5 C6 C7 C25 7.0(18) . . . . ?
N2 C6 C7 C25 -175.3(10) . . . . ?
C6 C7 C8 C9 0.0(13) . . . . ?
C25 C7 C8 C9 175.4(11) . . . . ?
C6 C7 C8 C27 -177.8(11) . . . . ?
C25 C7 C8 C27 -2.5(19) . . . . ?
C6 N2 C9 C10 178.1(10) . . . . ?
Fe1 N2 C9 C10 7.9(16) . . . . ?
C6 N2 C9 C8 0.5(12) . . . . ?
Fe1 N2 C9 C8 -169.7(8) . . . . ?
C7 C8 C9 N2 -0.3(13) . . . . ?
C27 C8 C9 N2 177.6(10) . . . . ?
C7 C8 C9 C10 -177.8(11) . . . . ?
C27 C8 C9 C10 0.1(19) . . . . ?
N2 C9 C10 C11 -1.5(18) . . . . ?
C8 C9 C10 C11 175.7(11) . . . . ?
C14 N3 C11 C10 -175.8(11) . . . . ?
Fe1 N3 C11 C10 -9.0(16) . . . . ?
C14 N3 C11 C12 1.1(13) . . . . ?
Fe1 N3 C11 C12 167.9(8) . . . . ?
C9 C10 C11 N3 2.1(19) . . . . ?
C9 C10 C11 C12 -174.5(11) . . . . ?
N3 C11 C12 C13 -1.4(14) . . . . ?
C10 C11 C12 C13 175.6(11) . . . . ?
N3 C11 C12 C29 -177.3(11) . . . . ?
C10 C11 C12 C29 -0.3(19) . . . . ?
C11 C12 C13 C14 1.0(15) . . . . ?
C29 C12 C13 C14 176.9(11) . . . . ?
C11 C12 C13 C31 -170.2(13) . . . . ?
C29 C12 C13 C31 6(2) . . . . ?
C11 N3 C14 C15 -179.2(12) . . . . ?
Fe1 N3 C14 C15 13.9(17) . . . . ?
C11 N3 C14 C13 -0.5(13) . . . . ?
Fe1 N3 C14 C13 -167.4(8) . . . . ?
C12 C13 C14 C15 178.3(13) . . . . ?
C31 C13 C14 C15 -10(2) . . . . ?
C12 C13 C14 N3 -0.3(15) . . . . ?
C31 C13 C14 N3 171.3(12) . . . . ?
N3 C14 C15 C16 2(2) . . . . ?
C13 C14 C15 C16 -176.5(13) . . . . ?
C14 C15 C16 N4 -4(2) . . . . ?
C14 C15 C16 C17 172.4(13) . . . . ?
C19 N4 C16 C15 176.6(11) . . . . ?
Fe1 N4 C16 C15 -10.4(16) . . . . ?
C19 N4 C16 C17 -0.1(13) . . . . ?
Fe1 N4 C16 C17 172.8(8) . . . . ?
C15 C16 C17 C18 -175.6(12) . . . . ?
N4 C16 C17 C18 1.0(14) . . . . ?
C15 C16 C17 C33 5(2) . . . . ?
N4 C16 C17 C33 -178.8(10) . . . . ?
C16 C17 C18 C19 -1.5(14) . . . . ?
C33 C17 C18 C19 178.4(11) . . . . ?
C16 C17 C18 C35 172.2(12) . . . . ?
C33 C17 C18 C35 -8(2) . . . . ?
C16 N4 C19 C20 178.8(11) . . . . ?
Fe1 N4 C19 C20 6.1(16) . . . . ?
C16 N4 C19 C18 -0.8(12) . . . . ?
Fe1 N4 C19 C18 -173.6(8) . . . . ?
C17 C18 C19 N4 1.5(14) . . . . ?
C35 C18 C19 N4 -172.2(11) . . . . ?
C17 C18 C19 C20 -178.2(11) . . . . ?
C35 C18 C19 C20 8.1(19) . . . . ?
N1 C1 C20 C19 2.1(18) . . . . ?
C2 C1 C20 C19 -177.5(11) . . . . ?
N4 C19 C20 C1 -2.6(18) . . . . ?
C18 C19 C20 C1 177.0(11) . . . . ?
C3 C2 C21 C22 -95.3(15) . . . . ?
C1 C2 C21 C22 88.1(15) . . . . ?
C2 C3 C23 C24 90.1(15) . . . . ?
C4 C3 C23 C24 -90.2(14) . . . . ?
C8 C7 C25 C26 -96.2(14) . . . . ?
C6 C7 C25 C26 78.4(15) . . . . ?
C7 C8 C27 C28 93.6(15) . . . . ?
C9 C8 C27 C28 -83.9(15) . . . . ?
C13 C12 C29 C30 -87.3(17) . . . . ?
C11 C12 C29 C30 87.8(15) . . . . ?
C12 C13 C31 C32 -100.2(18) . . . . ?
C14 C13 C31 C32 89.8(17) . . . . ?
C18 C17 C33 C34 90.1(16) . . . . ?
C16 C17 C33 C34 -90.1(15) . . . . ?
C17 C18 C35 C36 -92.9(16) . . . . ?
C19 C18 C35 C36 79.5(16) . . . . ?
C38 N5 C37 N6 0.0(6) . . . . ?
Fe1 N5 C37 N6 178.6(7) . . . . ?
C39 N6 C37 N5 -0.1(7) . . . . ?
C37 N5 C38 C39 0.1(10) . . . . ?
Fe1 N5 C38 C39 -178.5(8) . . . . ?
N5 C38 C39 N6 -0.1(13) . . . . ?
N5 C38 C39 C40 179.6(15) . . . . ?
C37 N6 C39 C38 0.1(11) . . . . ?
C37 N6 C39 C40 -179.6(13) . . . . ?
