#------------------------------------------------------------------------------
#$Date: 2015-06-07 03:07:39 +0300 (Sun, 07 Jun 2015) $
#$Revision: 138713 $
#$URL: svn://www.crystallography.net/cod/cif/7/03/48/7034889.cif $
#------------------------------------------------------------------------------
#
# This file is available in the Crystallography Open Database (COD),
# http://www.crystallography.net/
#
# All data on this site have been placed in the public domain by the
# contributors.
#
data_7034889
loop_
_publ_author_name
'Kumar, Ravi'
'Chaudhri, Nivedita'
'Sankar, Muniappan'
_publ_section_title
;
 Ratiometric and colorimetric &quot;naked eye&quot; selective detection of
 CN(-) ions by electron deficient Ni(ii) porphyrins and their
 reversibility studies.
;
_journal_issue                   19
_journal_name_full
'Dalton transactions (Cambridge, England : 2003)'
_journal_page_first              9149
_journal_page_last               9157
_journal_paper_doi               10.1039/c5dt00937e
_journal_volume                  44
_journal_year                    2015
_chemical_formula_moiety         'C52 H32 N8 Ni O4'
_chemical_formula_sum            'C52 H32 N8 Ni O4'
_chemical_formula_weight         891.56
_chemical_name_common            tetracyano-meso-tetramethoxyphenylporphyrin
_chemical_name_systematic
;
 2,3,12,13-Tetracyano-meso-tetrakis(4'-methoxyphenyl)porphyrinato Ni(II)
;
_space_group_crystal_system      monoclinic
_space_group_IT_number           15
_space_group_name_Hall           '-C 2yc'
_space_group_name_H-M_alt        'C 1 2/c 1'
_symmetry_space_group_name_Hall  '-C 2yc'
_symmetry_space_group_name_H-M   'C 1 2/c 1'
_atom_sites_solution_hydrogens   difmap
_audit_creation_date             2015-03-27
_audit_creation_method
;
Olex2 1.2-beta
(compiled 2015.01.26 svn.r3150 for OlexSys, GUI svn.r4998)
;
_audit_update_record
;
2015-04-03 deposited with the CCDC.
2015-04-09 downloaded from the CCDC.
;
_cell_angle_alpha                90
_cell_angle_beta                 114.682(5)
_cell_angle_gamma                90
_cell_formula_units_Z            4
_cell_length_a                   20.844(5)
_cell_length_b                   10.732(5)
_cell_length_c                   23.220(5)
_cell_measurement_reflns_used    30455
_cell_measurement_temperature    293(2)
_cell_measurement_theta_max      24.11
_cell_measurement_theta_min      2.15
_cell_volume                     4720(3)
_computing_cell_refinement       'APEX II SYSTEM SOFTWARE PROGRAMS'
_computing_data_collection       'APEX II SYSTEM SOFTWARE PROGRAMS'
_computing_data_reduction        'APEXII (WINGX) '
_computing_molecular_graphics    'ORTEP3 (WINGX) '
_computing_publication_material  'ShelXL (Sheldrick, 2008)'
_computing_structure_refinement  'ShelXL (Sheldrick, 2008)'
_computing_structure_solution    'ShelXS (Sheldrick, 1997)'
_diffrn_ambient_temperature      293(2)
_diffrn_measured_fraction_theta_full 0.984
_diffrn_measured_fraction_theta_max 0.984
_diffrn_measurement_device_type  'APEX II DIFFRACTOMETER'
_diffrn_measurement_method       \w
_diffrn_radiation_type           MoK\a
_diffrn_radiation_wavelength     0.71073
_diffrn_reflns_av_R_equivalents  0.0515
_diffrn_reflns_av_unetI/netI     0.0352
_diffrn_reflns_laue_measured_fraction_full 0.984
_diffrn_reflns_laue_measured_fraction_max 0.984
_diffrn_reflns_limit_h_max       23
_diffrn_reflns_limit_h_min       -23
_diffrn_reflns_limit_k_max       12
_diffrn_reflns_limit_k_min       -12
_diffrn_reflns_limit_l_max       26
_diffrn_reflns_limit_l_min       -26
_diffrn_reflns_number            3699
_diffrn_reflns_point_group_measured_fraction_full 0.984
_diffrn_reflns_point_group_measured_fraction_max 0.984
_diffrn_reflns_theta_full        24.110
_diffrn_reflns_theta_max         24.110
_diffrn_reflns_theta_min         2.196
_diffrn_source                   'fine-focus sealed tube'
_diffrn_standards_decay_%        0
_diffrn_standards_interval_count 100
_diffrn_standards_interval_time  1
_diffrn_standards_number         2
_exptl_absorpt_coefficient_mu    0.464
_exptl_absorpt_correction_T_max  0.9111
_exptl_absorpt_correction_T_min  0.8708
_exptl_absorpt_correction_type   psi-scan
_exptl_absorpt_process_details
;
North A.C.T., Phillips D.C. & Mathews F.S. (1968) Acta. Cryst. A24, 351
;
_exptl_crystal_colour            green
_exptl_crystal_density_diffrn    1.255
_exptl_crystal_description       square
_exptl_crystal_F_000             1840
_exptl_crystal_recrystallization_method
'Re-crystallisation from solvent: Chloroform/hexane'
_exptl_crystal_size_max          0.3
_exptl_crystal_size_mid          0.2
_exptl_crystal_size_min          0.2
_refine_diff_density_max         0.580
_refine_diff_density_min         -1.016
_refine_diff_density_rms         0.083
_refine_ls_extinction_method     none
_refine_ls_goodness_of_fit_ref   1.074
_refine_ls_hydrogen_treatment    noref
_refine_ls_matrix_type           full
_refine_ls_number_parameters     295
_refine_ls_number_reflns         3699
_refine_ls_number_restraints     0
_refine_ls_restrained_S_all      1.074
_refine_ls_R_factor_all          0.0805
_refine_ls_R_factor_gt           0.0642
_refine_ls_shift/su_max          0.000
_refine_ls_shift/su_mean         0.000
_refine_ls_structure_factor_coef Fsqd
_refine_ls_weighting_details
'w=1/[\s^2^(Fo^2^)+(0.1510P)^2^+0.2415P] where P=(Fo^2^+2Fc^2^)/3'
_refine_ls_weighting_scheme      calc
_refine_ls_wR_factor_gt          0.1952
_refine_ls_wR_factor_ref         0.2096
_reflns_Friedel_coverage         0.000
_reflns_number_gt                2799
_reflns_number_total             3699
_reflns_threshold_expression     'I > 2\s(I)'
_iucr_refine_instructions_details
;

    ups2160mscn4och3_0m_sq.res created by SHELXL-2014/7

TITL UPS2160MSCN4OCH3_0M OLEX2: imported from CIF
CELL 0.71073 20.844 10.732 23.22 90 114.682 90
ZERR 4 0.005 0.005 0.005 0 0.005 0
LATT 7
SYMM -X,+Y,0.5-Z
SFAC C H N Ni O
DISP C 0.003 0.002
DISP H 0 0
DISP N 0.006 0.003
DISP Ni 0.339 1.112
DISP O 0.011 0.006
UNIT 208 128 32 4 16
 
L.S. 5 0 13
PLAN  20
SIZE 0.3 0.2 0.2
TEMP 20(2)
MORE -1
BOND $H
CONF
ABIN
fmap 2 53
acta 52
OMIT -4 0 2
OMIT 2 2 0
OMIT 1 1 0
OMIT 2 2 6
OMIT 1 1 2
OMIT -4 0 4
OMIT -5 1 4
OMIT 3 1 6
OMIT 0 0 4
OMIT -2 0 4
OMIT -2 0 6
OMIT -6 0 6
OMIT 0 0 8
OMIT 2 0 2
OMIT 2 2 1
OMIT 2 0 0
OMIT -3 5 4
OMIT 6 0 4
OMIT 0 2 0
OMIT 6 0 2
OMIT 0 2 2
OMIT 6 0 6
OMIT -4 0 6
OMIT 4 0 0
OMIT -3 1 2
OMIT 4 2 0
OMIT -2 2 2
OMIT 2 4 5
OMIT 0 4 1
OMIT 2 2 8
OMIT 3 1 8
OMIT 6 2 4
OMIT -1 1 8
OMIT -1 1 3
OMIT 4 4 1
OMIT 9 1 0
OMIT 5 1 6
OMIT -4 2 1
OMIT 0 4 7
OMIT 0 2 5
OMIT 9 1 2
OMIT -9 1 6
OMIT -2 4 9
OMIT -2 4 7
REM <olex2.extras>
REM <HklSrc "%.\\ups2160mscn4och3_0m_sqd.hkl">
REM </olex2.extras>
 
WGHT    0.151000    0.241500
FVAR       0.99535
NI1   4   10.000000   10.500000   10.000000    10.50000    0.03709    0.02608 =
         0.03306    0.00402    0.01025   -0.00592
N1    3   -0.091004    0.412382   -0.044238    11.00000    0.04465    0.02846 =
         0.03428    0.00411    0.01435   -0.00578
N2    3    0.033185    0.366993    0.062757    11.00000    0.04167    0.03452 =
         0.03836    0.00663    0.00935   -0.00762
O0AA  5   -0.160969   -0.249235    0.062874    11.00000    0.08409    0.03750 =
         0.08657    0.00598    0.04732   -0.01691
C2    1   -0.206426    0.365985   -0.112076    11.00000    0.03828    0.03349 =
         0.04114   -0.00321    0.01145   -0.01034
C9    1    0.097195    0.357305    0.114058    11.00000    0.04515    0.03905 =
         0.04078    0.00778    0.01117   -0.00496
C1    1   -0.148281    0.450457   -0.098007    11.00000    0.04245    0.03081 =
         0.04120    0.00194    0.01454   -0.00728
C19   1    0.217956    0.414959    0.190772    11.00000    0.05158    0.04157 =
         0.03783    0.00877    0.01110   -0.01010
C0AA  1   -0.183623    0.275583   -0.066826    11.00000    0.04196    0.03073 =
         0.04750    0.00300    0.01560   -0.00856
C4    1   -0.112055    0.301097   -0.025919    11.00000    0.04556    0.03142 =
         0.04112    0.00257    0.01653   -0.01130
C14   1   -0.100044    0.003534   -0.008761    11.00000    0.05591    0.03984 =
         0.04211    0.00512    0.02145   -0.00533
H14   2    9.914000   10.016900    9.958400    11.00000   10.05600
C16   1   -0.139793   -0.136915    0.049350    11.00000    0.05315    0.02958 =
         0.06216    0.00763    0.01987   -0.00706
C6    1   -0.001514    0.257562    0.064717    11.00000    0.04736    0.03175 =
         0.04380    0.00798    0.01414   -0.00724
C13   1   -0.095913    0.099351    0.032204    11.00000    0.03843    0.03198 =
         0.04678    0.00636    0.01197   -0.00731
C10   1    0.152531    0.442019    0.132782    11.00000    0.04011    0.03707 =
         0.03683    0.00309    0.00903   -0.00597
C5    1   -0.069311    0.225374    0.023340    11.00000    0.04557    0.02710 =
         0.04725    0.00336    0.01769   -0.00853
N3    3   -0.331647    0.356939   -0.199654    11.00000    0.05571    0.06931 =
         0.05260   -0.00521    0.00928   -0.01148
C8    1    0.101788    0.243241    0.147463    11.00000    0.05165    0.05237 =
         0.04642    0.02021    0.00433   -0.00865
H8    2   10.140000   10.217400   10.184600    11.00000   10.06800
C21   1    0.331163    0.317413    0.243439    11.00000    0.05049    0.05295 =
         0.05700    0.01076    0.01362   -0.00303
H21   2   10.366000   10.265301   10.240900    11.00000   10.07000
C15   1   -0.121620   -0.113759   -0.000196    11.00000    0.05594    0.03533 =
         0.05490   -0.00200    0.02472   -0.00909
H15   2    9.875300    9.821501    9.971900    11.00000   10.06000
C18   1   -0.114092    0.075819    0.081550    11.00000    0.06697    0.03141 =
         0.06039    0.00078    0.03108   -0.00609
H18   2    9.887500   10.141101   10.109100    11.00000   10.06000
C17   1   -0.136161   -0.039295    0.091052    11.00000    0.06741    0.04286 =
         0.06386    0.00727    0.03878   -0.01416
H17   2    9.852700    9.944499   10.124500    11.00000   10.06900
C12   1   -0.229966    0.180069   -0.062483    11.00000    0.04681    0.04565 =
         0.06195    0.01128    0.01114   -0.01300
O1AA  5    0.399690    0.359573    0.354321    11.00000    0.05290    0.11802 =
         0.05494    0.01079   -0.00457   -0.00267
C11   1   -0.275796    0.366450   -0.162691    11.00000    0.04614    0.03812 =
         0.04491    0.00398    0.01363   -0.00658
C7    1    0.042504    0.180902    0.116478    11.00000    0.05178    0.03944 =
         0.06044    0.02038    0.01014   -0.01095
H7    2   10.031500   10.103001   10.127101    11.00000   10.06800
N4    3   -0.271528    0.113653   -0.062334    11.00000    0.05815    0.07196 =
         0.10517    0.03185    0.01307   -0.02155
C20   1    0.269819    0.338590    0.188756    11.00000    0.04874    0.04535 =
         0.04805    0.00517    0.01233   -0.00464
H20   2   10.262500   10.297700   10.151701    11.00000   10.06200
C23   1    0.288953    0.446965    0.302300    11.00000    0.06718    0.07726 =
         0.03949   -0.00543    0.01235   -0.01327
H23   2   10.294800   10.486300   10.340200    11.00000   10.07700
C24   1    0.227917    0.469792    0.248984    11.00000    0.05240    0.06070 =
         0.04821    0.00455    0.01132   -0.00425
H24   2   10.193201   10.520600   10.251301    11.00000   10.06700
C22   1    0.340647    0.372967    0.299241    11.00000    0.05508    0.06231 =
         0.04000    0.00764    0.00627   -0.01033
C25   1   -0.162404   -0.350998    0.024077    11.00000    0.09835    0.03633 =
         0.10942   -0.00499    0.05142   -0.02661
H25A  2    9.808101    9.669801    9.980700    11.00000   10.12500
H25B  2    9.819100    9.577200   10.036200    11.00000   10.12500
H25C  2    9.884600    9.631901   10.028301    11.00000   10.12500
C26   1    0.454799    0.287140    0.354827    11.00000    0.05685    0.12956 =
         0.08166    0.02304    0.00232    0.00289
H26A  2   10.440200   10.201100   10.344800    11.00000   10.14900
H26B  2   10.494900   10.288600   10.395901    11.00000   10.14900
H26C  2   10.471300   10.316300   10.323601    11.00000   10.14900
HKLF 4
 
REM  UPS2160MSCN4OCH3_0M OLEX2: imported from CIF
REM R1 =  0.0642 for    2799 Fo > 4sig(Fo)  and  0.0805 for all    3699 data
REM    295 parameters refined using      0 restraints
 
END  
     
WGHT      0.1507      0.2835 

REM Highest difference peak  0.580,  deepest hole -1.016,  1-sigma level  0.083
Q1    1   0.5157 -0.0258  0.2754  11.00000  0.05    0.58
Q2    1   0.5000 -0.0581  0.2500  10.50000  0.05    0.55
Q3    1   0.0380  0.4952  0.2595  11.00000  0.05    0.51
Q4    1   0.5417  0.1308  0.3003  11.00000  0.05    0.40
Q5    1   0.4161  0.0894  0.2291  11.00000  0.05    0.31
Q6    1  -0.0510 -0.4533  0.1535  11.00000  0.05    0.30
Q7    1  -0.0824  0.1809  0.0248  11.00000  0.05    0.27
Q8    1  -0.1770  0.4136 -0.1005  11.00000  0.05    0.24
Q9    1  -0.0983  0.3438 -0.0329  11.00000  0.05    0.23
Q10   1  -0.1422 -0.2307  0.0988  11.00000  0.05    0.22
Q11   1  -0.0021  0.4531  0.1600  11.00000  0.05    0.22
Q12   1   0.2432  0.3400  0.1950  11.00000  0.05    0.22
Q13   1  -0.2465  0.3579 -0.1371  11.00000  0.05    0.21
Q14   1  -0.4118  0.1255 -0.2208  11.00000  0.05    0.20
Q15   1   0.5194  0.4748  0.2822  11.00000  0.05    0.20
Q16   1  -0.0725  0.3464  0.1791  11.00000  0.05    0.20
Q17   1  -0.1219 -0.2771  0.0802  11.00000  0.05    0.19
Q18   1  -0.1149 -0.0091  0.0818  11.00000  0.05    0.18
Q19   1   0.5000  0.4379  0.2500  10.50000  0.05    0.18
Q20   1  -0.1940  0.0634  0.0990  11.00000  0.05    0.18

REM The information below was added by Olex2.
REM
REM R1 = 0.0642 for 2799 Fo > 4sig(Fo) and 0.0805 for all 3716 data
REM n/a parameters refined using n/a restraints
REM Highest difference peak 0.58, deepest hole -1.02
REM Mean Shift 0, Max Shift 0.000.

REM +++ Tabular Listing of Refinement Information +++
REM R1_all = 0.0805
REM R1_gt = 0.0642
REM wR_ref = 0.2096
REM GOOF = 1.074
REM Shift_max = 0.000
REM Shift_mean = 0
REM Reflections_all = 3716
REM Reflections_gt = 2799
REM Parameters = n/a
REM Hole = -1.02
REM Peak = 0.58
REM Flack = n/a

;
_cod_data_source_file            c5dt00937e2.cif
_cod_data_source_block           ups2160mscn4och3_0m_sq
_cod_depositor_comments
;
The following automatic conversions were performed:

'_exptl_absorpt_correction_type' value 'Psi-scan' changed to
'psi-scan' according to
/usr/data/users/saulius/crontab/automatic-downloads/rss-feeds/RSC/lib/dictionaries/cif_core.dic
dictionary named 'cif_core.dic' version 2.4.2 from 2011-04-26.

Automatic conversion script
Id: cif_fix_values 3271 2015-04-21 07:52:19Z andrius 

 Adding full bibliography for 7034889--7034893.cif.
;
_cod_database_code               7034889
_audit_block_doi                 10.5517/cc140ytx
_shelx_space_group_comment
;
The symmetry employed for this shelxl refinement is uniquely defined
by the following loop, which should always be used as a source of
symmetry information in preference to the above space-group names.
They are only intended as comments.
;
_shelx_estimated_absorpt_t_max   0.913
_shelx_estimated_absorpt_t_min   0.873
_olex2_refinement_description
;
1. Others
 Fixed Uiso: H14(0.056) H8(0.068) H21(0.07) H15(0.06) H18(0.06) H17(0.069)
 H7(0.068) H20(0.062) H23(0.077) H24(0.067) H25A(0.125) H25B(0.125) H25C(0.125)
 H26A(0.149) H26B(0.149) H26C(0.149)
 Fixed X: Ni1(0) H14(-0.086) H8(0.14) H21(0.366) H15(-0.1247) H18(-0.1125)
 H17(-0.1473) H7(0.0315) H20(0.2625) H23(0.2948) H24(0.193201) H25A(-0.191899)
 H25B(-0.1809) H25C(-0.1154) H26A(0.4402) H26B(0.4949) H26C(0.4713)
 Fixed Y: Ni1(0.5) H14(0.0169) H8(0.2174) H21(0.265301) H15(-0.178499)
 H18(0.141101) H17(-0.055501) H7(0.103001) H20(0.2977) H23(0.4863) H24(0.5206)
 H25A(-0.330199) H25B(-0.4228) H25C(-0.368099) H26A(0.2011) H26B(0.2886)
 H26C(0.3163)
 Fixed Z: Ni1(0) H14(-0.0416) H8(0.1846) H21(0.2409) H15(-0.0281) H18(0.1091)
 H17(0.1245) H7(0.127101) H20(0.151701) H23(0.3402) H24(0.251301) H25A(-0.0193)
 H25B(0.0362) H25C(0.028301) H26A(0.3448) H26B(0.395901) H26C(0.323601)
;
_shelx_fab_checksum              94263
_shelx_fab_file
;
    6    0    0      4.72      0.00
    8    0    0    -14.51      0.00
   10    0    0    -10.46      0.00
   12    0    0     -4.17      0.00
   14    0    0      0.11      0.00
   16    0    0      1.09      0.00
   18    0    0      0.62      0.00
   20    0    0     -0.45      0.00
    3    1    0    -22.04      0.00
    5    1    0     -6.81      0.00
    7    1    0     13.45      0.00
    9    1    0     15.74      0.00
   11    1    0      7.75      0.00
   13    1    0      1.96      0.00
   15    1    0     -0.34      0.00
   17    1    0     -0.87      0.00
   19    1    0      0.38      0.00
   21    1    0     -0.29      0.00
    6    2    0     -8.01      0.00
    8    2    0    -14.17      0.00
   10    2    0     -6.37      0.00
   12    2    0     -0.74      0.00
   14    2    0      1.76      0.00
   16    2    0      1.72      0.00
   18    2    0      0.58      0.00
   20    2    0      0.07      0.00
    1    3    0      3.57      0.00
    3    3    0      5.22      0.00
    5    3    0      9.03      0.00
    7    3    0     12.35      0.00
    9    3    0      6.56      0.00
   11    3    0      0.49      0.00
   13    3    0     -1.59      0.00
   15    3    0     -2.03      0.00
   17    3    0     -0.85      0.00
   19    3    0      0.20      0.00
   21    3    0     -0.42      0.00
    0    4    0     -4.70      0.00
    2    4    0     -3.36      0.00
    4    4    0     -4.84      0.00
    6    4    0     -5.29      0.00
    8    4    0     -1.45      0.00
   10    4    0      2.49      0.00
   12    4    0      3.40      0.00
   14    4    0      2.78      0.00
   16    4    0      1.72      0.00
   18    4    0     -0.28      0.00
   20    4    0     -0.17      0.00
    1    5    0      3.30      0.00
    3    5    0      4.30      0.00
    5    5    0      3.79      0.00
    7    5    0     -0.50      0.00
    9    5    0     -2.12      0.00
   11    5    0     -3.43      0.00
   13    5    0     -2.73      0.00
   15    5    0     -2.23      0.00
   17    5    0     -0.48      0.00
   19    5    0      0.11      0.00
    0    6    0     -0.99      0.00
    2    6    0     -1.69      0.00
    4    6    0     -1.16      0.00
    6    6    0      2.95      0.00
    8    6    0      3.18      0.00
   10    6    0      3.28      0.00
   12    6    0      3.35      0.00
   14    6    0      2.37      0.00
   16    6    0      1.17      0.00
   18    6    0     -0.13      0.00
    1    7    0      2.82      0.00
    3    7    0      1.80      0.00
    5    7    0     -1.68      0.00
    7    7    0     -2.56      0.00
    9    7    0     -2.14      0.00
   11    7    0     -2.91      0.00
   13    7    0     -2.00      0.00
   15    7    0     -1.61      0.00
   17    7    0     -0.26      0.00
    0    8    0     -0.70      0.00
    2    8    0      0.04      0.00
    4    8    0      2.17      0.00
    6    8    0      2.99      0.00
    8    8    0      2.71      0.00
   10    8    0      3.03      0.00
   12    8    0      1.10      0.00
   14    8    0      0.31      0.00
   16    8    0      0.00      0.00
    1    9    0      0.61      0.00
    3    9    0     -0.38      0.00
    5    9    0     -1.11      0.00
    7    9    0     -1.40      0.00
    9    9    0     -2.32      0.00
   11    9    0     -0.99      0.00
   13    9    0      0.70      0.00
    0   10    0     -0.24      0.00
    2   10    0     -0.16      0.00
    4   10    0      0.12      0.00
    6   10    0      0.46      0.00
    8   10    0      0.85      0.00
   10   10    0      0.71      0.00
   12   10    0     -0.28      0.00
    1   11    0     -0.34      0.00
    3   11    0     -0.10      0.00
    5   11    0     -0.32      0.00
    7   11    0     -0.35      0.00
    9   11    0      0.12      0.00
    0   12    0      0.33      0.00
    2   12    0      0.18      0.00
    4   12    0     -0.10      0.00
  -21    1    1     -0.05      0.00
  -19    1    1     -0.65      0.00
  -17    1    1     -0.60      0.00
  -15    1    1      0.55      0.00
  -13    1    1      0.84      0.00
  -11    1    1      2.09      0.00
   -9    1    1      0.01      0.00
   -7    1    1     -4.22      0.00
   -5    1    1     -8.73      0.00
   -3    1    1    -20.99      0.00
   -1    1    1    -23.03      0.00
    1    1    1    -21.99      0.00
    3    1    1    -12.49      0.00
    5    1    1     -4.20      0.00
    7    1    1     -2.86      0.00
    9    1    1      1.71      0.00
   11    1    1      0.79      0.00
   13    1    1      0.49      0.00
   15    1    1     -0.37      0.00
   17    1    1     -0.94      0.00
   19    1    1     -0.41      0.00
   21    1    1      0.65      0.00
  -20    2    1      0.73      0.00
  -18    2    1      1.03      0.00
  -16    2    1      0.25      0.00
  -14    2    1     -1.25      0.00
  -12    2    1     -1.87      0.00
  -10    2    1     -5.03      0.00
   -8    2    1      0.14      0.00
   -6    2    1      1.92      0.00
   -4    2    1     12.00      0.00
   -2    2    1     20.28      0.00
    0    2    1     18.19      0.00
    4    2    1      1.77      0.00
    6    2    1      0.52      0.00
    8    2    1     -3.37      0.00
   10    2    1     -3.57      0.00
   12    2    1     -0.58      0.00
   14    2    1     -0.42      0.00
   16    2    1      1.21      0.00
   18    2    1      1.14      0.00
   20    2    1     -0.15      0.00
  -21    3    1     -0.52      0.00
  -19    3    1     -1.21      0.00
  -17    3    1     -1.32      0.00
  -15    3    1      0.26      0.00
  -13    3    1      0.09      0.00
  -11    3    1      3.00      0.00
   -9    3    1      4.29      0.00
   -7    3    1      0.71      0.00
   -5    3    1      1.36      0.00
   -3    3    1     -5.38      0.00
   -1    3    1     -2.34      0.00
    1    3    1     -3.33      0.00
    3    3    1      1.46      0.00
    5    3    1      4.98      0.00
    7    3    1      3.68      0.00
    9    3    1      5.49      0.00
   11    3    1     -0.18      0.00
   13    3    1     -0.38      0.00
   15    3    1     -1.39      0.00
   17    3    1     -1.62      0.00
   19    3    1     -1.06      0.00
  -20    4    1      0.27      0.00
  -18    4    1      0.58      0.00
  -16    4    1      0.51      0.00
  -14    4    1     -0.28      0.00
  -12    4    1      0.52      0.00
  -10    4    1     -3.07      0.00
   -8    4    1     -1.79      0.00
   -6    4    1     -3.52      0.00
   -4    4    1     -5.59      0.00
   -2    4    1     -7.06      0.00
    0    4    1     -9.61      0.00
    2    4    1     -7.34      0.00
    4    4    1     -8.64      0.00
    6    4    1     -4.89      0.00
    8    4    1     -5.31      0.00
   10    4    1     -1.30      0.00
   12    4    1      1.01      0.00
   14    4    1      0.59      0.00
   16    4    1      0.96      0.00
   18    4    1      0.36      0.00
   20    4    1      0.01      0.00
  -19    5    1     -0.34      0.00
  -17    5    1     -0.32      0.00
  -15    5    1     -0.14      0.00
  -13    5    1     -1.20      0.00
  -11    5    1     -1.99      0.00
   -9    5    1     -1.25      0.00
   -7    5    1     -1.37      0.00
   -5    5    1      3.19      0.00
   -3    5    1      5.95      0.00
   -1    5    1      8.48      0.00
    1    5    1      7.64      0.00
    3    5    1      6.14      0.00
    5    5    1      2.55      0.00
    7    5    1      0.08      0.00
    9    5    1     -0.53      0.00
   11    5    1     -2.13      0.00
   13    5    1     -0.87      0.00
   15    5    1     -0.81      0.00
   17    5    1     -0.14      0.00
   19    5    1     -0.23      0.00
  -18    6    1     -0.27      0.00
  -16    6    1     -0.89      0.00
  -14    6    1     -0.34      0.00
  -12    6    1      1.33      0.00
  -10    6    1      2.25      0.00
   -8    6    1      2.50      0.00
   -6    6    1      0.58      0.00
   -4    6    1     -2.63      0.00
   -2    6    1     -4.69      0.00
    0    6    1     -5.27      0.00
    2    6    1     -3.77      0.00
    4    6    1     -1.41      0.00
    6    6    1      1.77      0.00
    8    6    1      2.24      0.00
   10    6    1      1.78      0.00
   12    6    1      0.59      0.00
   14    6    1      0.06      0.00
   16    6    1     -0.01      0.00
   18    6    1      0.37      0.00
  -17    7    1      0.59      0.00
  -15    7    1      0.47      0.00
  -13    7    1     -0.95      0.00
  -11    7    1     -2.03      0.00
   -9    7    1     -2.84      0.00
   -7    7    1     -2.53      0.00
   -5    7    1     -1.21      0.00
   -3    7    1      0.71      0.00
   -1    7    1      2.60      0.00
    1    7    1      1.55      0.00
    3    7    1     -0.57      0.00
    5    7    1     -2.36      0.00
    7    7    1     -3.39      0.00
    9    7    1     -2.61      0.00
   11    7    1     -1.65      0.00
   13    7    1     -0.84      0.00
   15    7    1     -0.51      0.00
   17    7    1     -0.91      0.00
  -16    8    1     -0.12      0.00
  -14    8    1      0.45      0.00
  -12    8    1      1.05      0.00
  -10    8    1      1.52      0.00
   -8    8    1      2.17      0.00
   -6    8    1      1.65      0.00
   -4    8    1      0.99      0.00
   -2    8    1     -1.28      0.00
    0    8    1     -2.03      0.00
    2    8    1      0.45      0.00
    4    8    1      1.72      0.00
    6    8    1      2.33      0.00
    8    8    1      1.90      0.00
   10    8    1      1.24      0.00
   12    8    1      0.95      0.00
   14    8    1      0.43      0.00
   16    8    1      0.64      0.00
  -15    9    1     -0.51      0.00
  -13    9    1     -0.53      0.00
  -11    9    1     -1.05      0.00
   -9    9    1     -2.39      0.00
   -7    9    1     -2.48      0.00
   -5    9    1     -1.76      0.00
   -3    9    1     -1.22      0.00
   -1    9    1      0.65      0.00
    1    9    1     -0.63      0.00
    3    9    1     -2.23      0.00
    5    9    1     -2.30      0.00
    7    9    1     -2.27      0.00
    9    9    1     -1.40      0.00
   11    9    1     -0.95      0.00
   13    9    1     -0.46      0.00
  -12   10    1     -0.60      0.00
  -10   10    1      0.81      0.00
   -8   10    1      1.83      0.00
   -6   10    1      0.65      0.00
   -4   10    1      0.55      0.00
   -2   10    1     -0.63      0.00
    0   10    1     -1.49      0.00
    2   10    1      0.61      0.00
    4   10    1      0.86      0.00
    6   10    1      1.17      0.00
    8   10    1      1.20      0.00
   10   10    1      0.43      0.00
   12   10    1     -0.28      0.00
   -9   11    1     -1.06      0.00
   -7   11    1     -0.56      0.00
   -5   11    1     -0.29      0.00
   -3   11    1     -0.73      0.00
   -1   11    1      1.28      0.00
    1   11    1      0.41      0.00
    3   11    1     -0.69      0.00
    5   11    1      0.09      0.00
    7   11    1     -0.41      0.00
    9   11    1     -0.43      0.00
   -4   12    1      1.28      0.00
   -2   12    1      0.61      0.00
    0   12    1     -0.39      0.00
    2   12    1      1.12      0.00
    4   12    1      0.54      0.00
  -22    0    2     -0.15      0.00
  -20    0    2      0.11      0.00
  -18    0    2     -1.39      0.00
  -16    0    2     -0.27      0.00
  -14    0    2      2.50      0.00
  -12    0    2      7.59      0.00
  -10    0    2     13.07      0.00
   -8    0    2      4.10      0.00
   -6    0    2    -23.44      0.00
   -2    0    2    -77.88      0.00
    4    0    2     -8.22      0.00
    8    0    2     12.85      0.00
   10    0    2      5.74      0.00
   12    0    2      0.40      0.00
   14    0    2     -0.79      0.00
   16    0    2     -0.88      0.00
   18    0    2      0.56      0.00
   20    0    2     -0.28      0.00
  -21    1    2     -0.20      0.00
  -19    1    2      0.86      0.00
  -17    1    2      1.07      0.00
  -15    1    2     -0.51      0.00
  -13    1    2     -4.72      0.00
  -11    1    2    -10.51      0.00
   -9    1    2    -14.59      0.00
   -7    1    2      2.52      0.00
   -5    1    2     19.96      0.00
   -1    1    2     58.87      0.00
    3    1    2      4.24      0.00
    5    1    2     -8.90      0.00
    7    1    2    -18.48      0.00
    9    1    2    -10.70      0.00
   11    1    2     -3.73      0.00
   13    1    2     -0.22      0.00
   15    1    2      0.09      0.00
   17    1    2     -0.17      0.00
   19    1    2     -0.53      0.00
  -22    2    2     -0.43      0.00
  -20    2    2     -0.15      0.00
  -18    2    2     -1.55      0.00
  -16    2    2     -1.90      0.00
  -14    2    2     -0.56      0.00
  -12    2    2      2.67      0.00
  -10    2    2      8.74      0.00
   -8    2    2      9.46      0.00
   -6    2    2     -2.91      0.00
   -4    2    2     -9.86      0.00
    2    2    2     -0.86      0.00
    4    2    2      7.63      0.00
    6    2    2     17.05      0.00
    8    2    2     11.41      0.00
   10    2    2      2.52      0.00
   12    2    2     -1.48      0.00
   14    2    2     -1.69      0.00
   16    2    2     -0.94      0.00
   18    2    2      0.11      0.00
   20    2    2     -0.58      0.00
  -21    3    2      0.00      0.00
  -19    3    2      0.23      0.00
  -17    3    2      2.06      0.00
  -15    3    2      2.31      0.00
  -13    3    2      1.29      0.00
  -11    3    2     -1.54      0.00
   -9    3    2     -7.58      0.00
   -7    3    2     -8.43      0.00
   -5    3    2     -4.43      0.00
   -3    3    2     -2.90      0.00
   -1    3    2     -2.84      0.00
    1    3    2     -6.26      0.00
    3    3    2    -10.73      0.00
    5    3    2    -16.06      0.00
    7    3    2    -12.99      0.00
    9    3    2     -3.76      0.00
   11    3    2      0.77      0.00
   13    3    2      1.84      0.00
   15    3    2      1.19      0.00
   17    3    2     -0.10      0.00
   19    3    2      0.07      0.00
  -20    4    2      0.60      0.00
  -18    4    2     -0.84      0.00
  -16    4    2     -2.98      0.00
  -14    4    2     -3.43      0.00
  -12    4    2     -3.66      0.00
  -10    4    2     -1.09      0.00
   -8    4    2      2.89      0.00
   -6    4    2      5.27      0.00
   -4    4    2      3.26      0.00
   -2    4    2      3.80      0.00
    0    4    2      4.57      0.00
    2    4    2      5.02      0.00
    4    4    2      7.40      0.00
    6    4    2      5.16      0.00
    8    4    2      0.19      0.00
   10    4    2     -2.86      0.00
   12    4    2     -2.80      0.00
   14    4    2     -2.40      0.00
   16    4    2     -0.47      0.00
   18    4    2      0.41      0.00
  -19    5    2     -0.37      0.00
  -17    5    2      1.54      0.00
  -15    5    2      2.64      0.00
  -13    5    2      3.42      0.00
  -11    5    2      2.28      0.00
   -9    5    2      0.37      0.00
   -7    5    2     -2.73      0.00
   -5    5    2     -5.64      0.00
   -3    5    2     -3.72      0.00
   -1    5    2     -3.83      0.00
    1    5    2     -4.03      0.00
    3    5    2     -4.46      0.00
    5    5    2     -1.06      0.00
    7    5    2      1.35      0.00
    9    5    2      2.31      0.00
   11    5    2      2.45      0.00
   13    5    2      2.31      0.00
   15    5    2      1.56      0.00
   17    5    2     -0.09      0.00
   19    5    2     -0.07      0.00
  -18    6    2      0.04      0.00
  -16    6    2     -1.56      0.00
  -14    6    2     -2.49      0.00
  -12    6    2     -3.22      0.00
  -10    6    2     -1.57      0.00
   -8    6    2     -1.83      0.00
   -6    6    2      0.93      0.00
   -4    6    2      2.97      0.00
   -2    6    2      1.43      0.00
    0    6    2      1.10      0.00
    2    6    2      0.91      0.00
    4    6    2     -2.36      0.00
    6    6    2     -4.30      0.00
    8    6    2     -3.02      0.00
   10    6    2     -3.33      0.00
   12    6    2     -2.62      0.00
   14    6    2     -2.23      0.00
   16    6    2     -0.49      0.00
   18    6    2      0.03      0.00
  -17    7    2      0.95      0.00
  -15    7    2      1.66      0.00
  -13    7    2      2.49      0.00
  -11    7    2      2.56      0.00
   -9    7    2      1.23      0.00
   -7    7    2      1.19      0.00
   -5    7    2     -1.71      0.00
   -3    7    2     -3.24      0.00
   -1    7    2     -2.46      0.00
    1    7    2     -1.50      0.00
    3    7    2      1.18      0.00
    5    7    2      3.21      0.00
    7    7    2      1.95      0.00
    9    7    2      2.38      0.00
   11    7    2      2.03      0.00
   13    7    2      1.40      0.00
   15    7    2      0.58      0.00
   17    7    2     -0.13      0.00
  -16    8    2     -0.70      0.00
  -14    8    2     -0.43      0.00
  -12    8    2     -2.22      0.00
  -10    8    2     -2.76      0.00
   -8    8    2     -1.70      0.00
   -6    8    2     -1.44      0.00
   -4    8    2      0.07      0.00
   -2    8    2      0.70      0.00
    0    8    2     -0.05      0.00
    2    8    2     -1.88      0.00
    4    8    2     -3.44      0.00
    6    8    2     -2.68      0.00
    8    8    2     -2.70      0.00
   10    8    2     -2.09      0.00
   12    8    2     -0.15      0.00
   14    8    2      0.26      0.00
  -15    9    2     -0.31      0.00
  -13    9    2     -0.36      0.00
  -11    9    2      1.69      0.00
   -9    9    2      1.29      0.00
   -7    9    2      0.15      0.00
   -5    9    2      0.16      0.00
   -3    9    2     -0.41      0.00
   -1    9    2     -0.63      0.00
    1    9    2     -0.01      0.00
    3    9    2      1.18      0.00
    5    9    2      1.51      0.00
    7    9    2      1.74      0.00
    9    9    2      1.86      0.00
   11    9    2      0.02      0.00
   13    9    2     -0.61      0.00
  -12   10    2      0.27      0.00
  -10   10    2     -0.54      0.00
   -8   10    2     -0.20      0.00
   -6   10    2     -0.09      0.00
   -4   10    2     -0.28      0.00
   -2   10    2     -0.10      0.00
    0   10    2      0.14      0.00
    2   10    2      0.12      0.00
    4   10    2     -0.60      0.00
    6   10    2     -0.87      0.00
    8   10    2     -0.85      0.00
   10   10    2     -0.36      0.00
   -9   11    2      0.09      0.00
   -7   11    2      0.48      0.00
   -5   11    2      0.42      0.00
   -3   11    2      0.43      0.00
   -1   11    2      0.34      0.00
    1   11    2     -0.12      0.00
    3   11    2     -0.16      0.00
    5   11    2      0.40      0.00
    7   11    2     -0.08      0.00
   -4   12    2     -0.10      0.00
   -2   12    2     -0.24      0.00
    0   12    2     -0.27      0.00
    2   12    2      0.08      0.00
  -21    1    3      0.35      0.00
  -19    1    3      0.15      0.00
  -17    1    3     -0.30      0.00
  -15    1    3     -1.46      0.00
  -13    1    3     -1.65      0.00
  -11    1    3     -2.13      0.00
   -9    1    3      2.34      0.00
   -7    1    3      5.24      0.00
   -5    1    3     13.34      0.00
   -3    1    3     17.79      0.00
   -1    1    3     15.77      0.00
    1    1    3     13.22      0.00
    3    1    3      4.28      0.00
    5    1    3      3.41      0.00
    7    1    3     -0.01      0.00
    9    1    3     -1.35      0.00
   11    1    3      0.03      0.00
   13    1    3      0.05      0.00
   15    1    3      0.95      0.00
   17    1    3      0.82      0.00
   19    1    3     -0.35      0.00
  -22    2    3     -0.43      0.00
  -20    2    3     -0.35      0.00
  -18    2    3     -0.20      0.00
  -16    2    3      1.51      0.00
  -14    2    3      1.74      0.00
  -12    2    3      3.62      0.00
  -10    2    3      2.27      0.00
   -8    2    3     -2.89      0.00
   -6    2    3     -6.63      0.00
   -4    2    3    -16.63      0.00
   -2    2    3    -13.66      0.00
    0    2    3    -13.01      0.00
    2    2    3     -4.51      0.00
    4    2    3      1.21      0.00
    6    2    3      0.73      0.00
    8    2    3      4.40      0.00
   10    2    3      0.56      0.00
   12    2    3      0.39      0.00
   14    2    3     -0.74      0.00
   16    2    3     -1.45      0.00
   18    2    3     -0.67      0.00
   20    2    3      0.77      0.00
  -21    3    3      0.96      0.00
  -19    3    3      0.71      0.00
  -17    3    3     -0.17      0.00
  -15    3    3     -1.54      0.00
  -13    3    3     -0.80      0.00
  -11    3    3     -3.79      0.00
   -9    3    3      0.31      0.00
   -7    3    3      0.82      0.00
   -5    3    3      3.98      0.00
   -3    3    3      4.16      0.00
   -1    3    3     -0.27      0.00
    1    3    3     -1.13      0.00
    3    3    3     -8.31      0.00
    5    3    3     -5.32      0.00
    7    3    3     -5.93      0.00
    9    3    3     -1.57      0.00
   11    3    3      1.52      0.00
   13    3    3      1.05      0.00
   15    3    3      2.04      0.00
   17    3    3      1.60      0.00
   19    3    3      0.54      0.00
  -20    4    3     -0.65      0.00
  -18    4    3     -0.44      0.00
  -16    4    3      0.96      0.00
  -14    4    3     -0.01      0.00
  -12    4    3      0.22      0.00
  -10    4    3      0.93      0.00
   -8    4    3     -0.97      0.00
   -6    4    3      3.00      0.00
   -4    4    3      3.80      0.00
   -2    4    3      8.45      0.00
    0    4    3      9.04      0.00
    2    4    3     11.25      0.00
    4    4    3      9.84      0.00
    6    4    3      6.43      0.00
    8    4    3      3.82      0.00
   10    4    3     -1.58      0.00
   12    4    3     -1.00      0.00
   14    4    3     -1.42      0.00
   16    4    3     -0.58      0.00
   18    4    3     -0.50      0.00
  -19    5    3      0.81      0.00
  -17    5    3      0.17      0.00
  -15    5    3     -0.02      0.00
  -13    5    3      2.00      0.00
  -11    5    3      1.93      0.00
   -9    5    3      2.87      0.00
   -7    5    3      0.50      0.00
   -5    5    3     -3.82      0.00
   -3    5    3     -6.31      0.00
   -1    5    3     -8.13      0.00
    1    5    3     -7.66      0.00
    3    5    3     -6.57      0.00
    5    5    3     -2.36      0.00
    7    5    3     -0.93      0.00
    9    5    3      1.83      0.00
   11    5    3      2.08      0.00
   13    5    3      1.78      0.00
   15    5    3      0.87      0.00
   17    5    3      0.06      0.00
  -18    6    3      0.96      0.00
  -16    6    3      1.14      0.00
  -14    6    3     -0.06      0.00
  -12    6    3     -1.41      0.00
  -10    6    3     -1.80      0.00
   -8    6    3     -1.50      0.00
   -6    6    3      1.16      0.00
   -4    6    3      3.75      0.00
   -2    6    3      5.27      0.00
    0    6    3      4.48      0.00
    2    6    3      2.89      0.00
    4    6    3      0.10      0.00
    6    6    3     -1.53      0.00
    8    6    3     -1.31      0.00
   10    6    3     -1.15      0.00
   12    6    3     -1.11      0.00
   14    6    3     -1.30      0.00
   16    6    3     -0.30      0.00
  -17    7    3     -1.44      0.00
  -15    7    3     -0.15      0.00
  -13    7    3      1.04      0.00
  -11    7    3      1.80      0.00
   -9    7    3      1.94      0.00
   -7    7    3      1.47      0.00
   -5    7    3      0.34      0.00
   -3    7    3     -1.97      0.00
   -1    7    3     -2.00      0.00
    1    7    3      0.32      0.00
    3    7    3      1.95      0.00
    5    7    3      3.18      0.00
    7    7    3      2.67      0.00
    9    7    3      1.76      0.00
   11    7    3      1.53      0.00
   13    7    3      1.80      0.00
   15    7    3      1.72      0.00
  -16    8    3      0.48      0.00
  -14    8    3     -0.42      0.00
  -12    8    3     -0.84      0.00
  -10    8    3     -1.65      0.00
   -8    8    3     -1.30      0.00
   -6    8    3     -0.99      0.00
   -4    8    3      0.16      0.00
   -2    8    3      1.90      0.00
    0    8    3      0.08      0.00
    2    8    3     -1.73      0.00
    4    8    3     -2.23      0.00
    6    8    3     -2.06      0.00
    8    8    3     -1.21      0.00
   10    8    3     -0.96      0.00
   12    8    3     -0.35      0.00
   14    8    3     -0.63      0.00
  -15    9    3      0.30      0.00
  -13    9    3      0.42      0.00
  -11    9    3      1.80      0.00
   -9    9    3      2.67      0.00
   -7    9    3      1.11      0.00
   -5    9    3      0.80      0.00
   -3    9    3     -0.21      0.00
   -1    9    3     -0.22      0.00
    1    9    3      1.86      0.00
    3    9    3      2.19      0.00
    5    9    3      2.03      0.00
    7    9    3      1.37      0.00
    9    9    3      1.28      0.00
   11    9    3      0.43      0.00
   13    9    3      0.12      0.00
  -12   10    3      0.43      0.00
  -10   10    3     -1.65      0.00
   -8   10    3     -1.01      0.00
   -6   10    3      0.42      0.00
   -4   10    3      0.12      0.00
   -2   10    3      1.40      0.00
    0   10    3      0.31      0.00
    2   10    3     -0.95      0.00
    4   10    3     -0.77      0.00
    6   10    3     -0.75      0.00
    8   10    3     -0.87      0.00
   10   10    3     -0.46      0.00
   -9   11    3      1.38      0.00
   -7   11    3      0.18      0.00
   -5   11    3      0.64      0.00
   -3   11    3     -0.12      0.00
   -1   11    3     -1.35      0.00
    1   11    3      0.33      0.00
    3   11    3      0.11      0.00
    5   11    3     -0.38      0.00
    7   11    3      0.03      0.00
   -4   12    3     -1.21      0.00
   -2   12    3      0.47      0.00
    0   12    3      0.05      0.00
    2   12    3     -0.78      0.00
  -22    0    4     -0.57      0.00
  -20    0    4      0.66      0.00
  -18    0    4      0.43      0.00
  -16    0    4     -1.36      0.00
  -14    0    4     -4.86      0.00
  -12    0    4     -8.70      0.00
  -10    0    4     -9.49      0.00
   -8    0    4     11.34      0.00
   -6    0    4     28.16      0.00
    2    0    4      3.70      0.00
    4    0    4     -5.10      0.00
    8    0    4     -6.81      0.00
   10    0    4     -0.82      0.00
   12    0    4      1.53      0.00
   14    0    4      0.80      0.00
   16    0    4      0.16      0.00
   18    0    4     -0.78      0.00
  -21    1    4     -0.03      0.00
  -19    1    4     -1.24      0.00
  -17    1    4     -0.22      0.00
  -15    1    4      2.14      0.00
  -13    1    4      5.97      0.00
  -11    1    4     10.84      0.00
   -9    1    4      5.17      0.00
   -7    1    4    -14.73      0.00
   -3    1    4    -42.17      0.00
   -1    1    4    -30.25      0.00
    1    1    4     -0.42      0.00
    3    1    4      6.90      0.00
    5    1    4     16.82      0.00
    7    1    4     12.96      0.00
    9    1    4      4.80      0.00
   11    1    4      0.13      0.00
   13    1    4      0.08      0.00
   15    1    4     -0.01      0.00
   17    1    4      0.90      0.00
   19    1    4     -0.09      0.00
  -22    2    4      0.17      0.00
  -20    2    4      0.90      0.00
  -18    2    4      1.90      0.00
  -16    2    4      1.46      0.00
  -14    2    4     -0.50      0.00
  -12    2    4     -3.79      0.00
  -10    2    4     -8.43      0.00
   -8    2    4     -0.91      0.00
   -6    2    4      8.35      0.00
   -4    2    4     14.50      0.00
   -2    2    4     18.36      0.00
    0    2    4      0.95      0.00
    2    2    4    -10.25      0.00
    4    2    4    -17.09      0.00
    6    2    4    -15.58      0.00
    8    2    4     -4.73      0.00
   10    2    4      1.04      0.00
   12    2    4      2.08      0.00
   14    2    4      1.00      0.00
   16    2    4      0.25      0.00
   18    2    4      0.03      0.00
  -21    3    4      0.00      0.00
  -19    3    4     -1.55      0.00
  -17    3    4     -2.83      0.00
  -15    3    4     -2.15      0.00
  -13    3    4     -0.88      0.00
  -11    3    4      3.18      0.00
   -9    3    4      7.13      0.00
   -7    3    4      4.43      0.00
   -5    3    4      1.60      0.00
   -3    3    4      1.40      0.00
   -1    3    4      6.19      0.00
    1    3    4     13.44      0.00
    3    3    4     18.59      0.00
    5    3    4     17.93      0.00
    7    3    4      7.96      0.00
    9    3    4      0.44      0.00
   11    3    4     -1.68      0.00
   13    3    4     -1.32      0.00
   15    3    4     -0.05      0.00
   17    3    4      0.47      0.00
   19    3    4     -0.38      0.00
  -20    4    4      0.10      0.00
  -18    4    4      2.76      0.00
  -16    4    4      3.42      0.00
  -14    4    4      3.40      0.00
  -12    4    4      2.04      0.00
  -10    4    4     -1.11      0.00
   -8    4    4     -4.40      0.00
   -6    4    4     -4.17      0.00
   -4    4    4     -2.49      0.00
   -2    4    4     -4.78      0.00
    0    4    4     -6.51      0.00
    2    4    4     -8.93      0.00
    4    4    4     -8.38      0.00
    6    4    4     -3.49      0.00
    8    4    4      1.39      0.00
   10    4    4      2.84      0.00
   12    4    4      2.88      0.00
   14    4    4      1.47      0.00
   16    4    4     -0.59      0.00
   18    4    4     -0.32      0.00
  -21    5    4      0.75      0.00
  -19    5    4     -0.49      0.00
  -17    5    4     -2.30      0.00
  -15    5    4     -2.52      0.00
  -13    5    4     -2.15      0.00
  -11    5    4      0.45      0.00
   -9    5    4      2.07      0.00
   -7    5    4      5.85      0.00
   -5    5    4      5.50      0.00
   -1    5    4      4.87      0.00
    1    5    4      4.89      0.00
    3    5    4      3.20      0.00
    5    5    4      0.45      0.00
    7    5    4     -0.36      0.00
    9    5    4     -1.48      0.00
   11    5    4     -1.82      0.00
   13    5    4     -2.29      0.00
   15    5    4     -0.28      0.00
   17    5    4      0.49      0.00
  -20    6    4     -0.62      0.00
  -18    6    4      0.53      0.00
  -16    6    4      1.35      0.00
  -14    6    4      2.29      0.00
  -12    6    4      0.99      0.00
  -10    6    4     -0.35      0.00
   -8    6    4     -0.87      0.00
   -6    6    4     -3.93      0.00
   -4    6    4     -2.80      0.00
   -2    6    4     -1.25      0.00
    0    6    4     -0.62      0.00
    2    6    4      1.23      0.00
    4    6    4      3.62      0.00
    6    6    4      2.46      0.00
    8    6    4      2.42      0.00
   10    6    4      2.38      0.00
   12    6    4      2.31      0.00
   14    6    4      1.47      0.00
   16    6    4      0.13      0.00
  -19    7    4     -0.17      0.00
  -17    7    4     -0.96      0.00
  -15    7    4     -1.28      0.00
  -13    7    4     -2.35      0.00
  -11    7    4     -0.68      0.00
   -9    7    4      0.17      0.00
   -7    7    4      1.42      0.00
   -5    7    4      3.46      0.00
   -3    7    4      2.46      0.00
   -1    7    4      1.16      0.00
    1    7    4     -0.46      0.00
    3    7    4     -2.50      0.00
    5    7    4     -1.81      0.00
    7    7    4     -1.45      0.00
    9    7    4     -1.86      0.00
   11    7    4     -0.59      0.00
   13    7    4     -0.27      0.00
   15    7    4      0.22      0.00
  -16    8    4      0.32      0.00
  -14    8    4      0.60      0.00
  -12    8    4      2.19      0.00
  -10    8    4      0.82      0.00
   -8    8    4      0.14      0.00
   -6    8    4     -0.30      0.00
   -4    8    4     -0.83      0.00
   -2    8    4     -0.09      0.00
    0    8    4      1.05      0.00
    2    8    4      2.69      0.00
    4    8    4      2.68      0.00
    6    8    4      2.10      0.00
    8    8    4      2.55      0.00
   10    8    4      0.74      0.00
   12    8    4     -0.69      0.00
   14    8    4     -0.91      0.00
  -15    9    4      0.69      0.00
  -13    9    4     -0.08      0.00
  -11    9    4     -1.03      0.00
   -9    9    4      0.50      0.00
   -7    9    4      0.54      0.00
   -5    9    4      0.33      0.00
   -3    9    4      0.52      0.00
   -1    9    4      0.42      0.00
    1    9    4     -0.31      0.00
    3    9    4     -1.33      0.00
    5    9    4     -1.17      0.00
    7    9    4     -1.42      0.00
    9    9    4     -0.91      0.00
   11    9    4      0.45      0.00
  -12   10    4     -0.34      0.00
  -10   10    4      0.04      0.00
   -8   10    4     -0.18      0.00
   -6   10    4      0.47      0.00
   -4   10    4      0.65      0.00
   -2   10    4      0.39      0.00
    0   10    4     -0.13      0.00
    2   10    4      0.36      0.00
    4   10    4      1.03      0.00
    6   10    4      0.48      0.00
    8   10    4      0.50      0.00
   10   10    4      0.02      0.00
   -9   11    4     -0.38      0.00
   -7   11    4     -0.40      0.00
   -5   11    4     -0.48      0.00
   -3   11    4     -0.38      0.00
   -1   11    4      0.00      0.00
    1   11    4      0.63      0.00
    3   11    4      0.03      0.00
    5   11    4      0.15      0.00
    7   11    4      0.55      0.00
   -4   12    4      0.13      0.00
   -2   12    4      0.27      0.00
    0   12    4      0.20      0.00
    2   12    4     -0.04      0.00
  -23    1    5     -0.25      0.00
  -21    1    5      0.52      0.00
  -19    1    5      0.40      0.00
  -17    1    5      1.43      0.00
  -15    1    5      1.87      0.00
  -13    1    5      2.04      0.00
  -11    1    5      0.37      0.00
   -9    1    5     -2.50      0.00
   -7    1    5     -4.89      0.00
   -5    1    5     -9.65      0.00
   -3    1    5     -7.71      0.00
   -1    1    5     -9.06      0.00
    1    1    5     -5.20      0.00
    3    1    5     -2.03      0.00
    5    1    5     -1.29      0.00
    7    1    5      1.48      0.00
    9    1    5     -0.48      0.00
   11    1    5     -0.37      0.00
   13    1    5     -0.71      0.00
   15    1    5     -0.92      0.00
   17    1    5     -0.23      0.00
   19    1    5      0.71      0.00
  -22    2    5     -0.11      0.00
  -20    2    5     -0.81      0.00
  -18    2    5     -1.03      0.00
  -16    2    5     -2.60      0.00
  -14    2    5     -1.97      0.00
  -12    2    5     -3.10      0.00
  -10    2    5      1.30      0.00
   -8    2    5      3.04      0.00
   -6    2    5      8.53      0.00
   -4    2    5      9.06      0.00
   -2    2    5      6.49      0.00
    0    2    5      6.33      0.00
    2    2    5     -1.39      0.00
    4    2    5     -0.29      0.00
    6    2    5     -3.07      0.00
    8    2    5     -1.18      0.00
   10    2    5      0.74      0.00
   12    2    5      0.30      0.00
   14    2    5      1.52      0.00
   16    2    5      1.28      0.00
   18    2    5     -0.24      0.00
  -21    3    5     -0.16      0.00
  -19    3    5      0.11      0.00
  -17    3    5      1.72      0.00
  -15    3    5      0.86      0.00
  -13    3    5      1.19      0.00
  -11    3    5      0.91      0.00
   -9    3    5     -2.46      0.00
   -7    3    5     -1.73      0.00
   -5    3    5     -3.98      0.00
   -3    3    5      1.80      0.00
   -1    3    5      2.84      0.00
    1    3    5      7.91      0.00
    3    3    5      8.32      0.00
    5    3    5      5.09      0.00
    7    3    5      3.40      0.00
    9    3    5     -1.92      0.00
   11    3    5     -0.99      0.00
   13    3    5     -2.02      0.00
   15    3    5     -1.91      0.00
   17    3    5     -1.20      0.00
  -20    4    5      0.47      0.00
  -18    4    5     -0.72      0.00
  -16    4    5     -1.37      0.00
  -14    4    5      1.05      0.00
  -12    4    5     -0.01      0.00
  -10    4    5      2.10      0.00
   -8    4    5      0.45      0.00
   -6    4    5     -2.19      0.00
   -4    4    5     -5.13      0.00
   -2    4    5     -9.65      0.00
    0    4    5    -11.35      0.00
    2    4    5    -12.77      0.00
    4    4    5     -7.27      0.00
    6    4    5     -4.56      0.00
    8    4    5      0.76      0.00
   10    4    5      1.70      0.00
   12    4    5      1.39      0.00
   14    4    5      1.18      0.00
   16    4    5      0.39      0.00
   18    4    5      0.49      0.00
  -21    5    5     -1.52      0.00
  -19    5    5     -0.70      0.00
  -17    5    5      0.56      0.00
  -15    5    5     -0.66      0.00
  -13    5    5     -2.15      0.00
  -11    5    5     -2.43      0.00
   -9    5    5     -2.98      0.00
   -7    5    5      1.05      0.00
   -5    5    5      3.75      0.00
   -3    5    5      6.59      0.00
   -1    5    5      7.70      0.00
    1    5    5      7.76      0.00
    3    5    5      4.35      0.00
    5    5    5      1.30      0.00
    7    5    5     -0.81      0.00
    9    5    5     -2.74      0.00
   11    5    5     -2.33      0.00
   13    5    5     -2.09      0.00
   15    5    5      0.18      0.00
   17    5    5     -0.15      0.00
  -20    6    5     -0.14      0.00
  -18    6    5     -1.33      0.00
  -16    6    5     -1.16      0.00
  -14    6    5      0.05      0.00
  -12    6    5      0.67      0.00
  -10    6    5      0.95      0.00
   -8    6    5      0.03      0.00
   -6    6    5     -2.43      0.00
   -4    6    5     -4.36      0.00
   -2    6    5     -4.52      0.00
    0    6    5     -2.92      0.00
    2    6    5     -1.16      0.00
    4    6    5      0.64      0.00
    6    6    5      0.63      0.00
    8    6    5      1.10      0.00
   10    6    5      1.61      0.00
   12    6    5      2.43      0.00
   14    6    5      0.88      0.00
   16    6    5     -0.47      0.00
  -19    7    5      1.19      0.00
  -17    7    5      0.93      0.00
  -15    7    5      0.00      0.00
  -13    7    5     -0.68      0.00
  -11    7    5     -1.01      0.00
   -9    7    5     -0.79      0.00
   -7    7    5     -0.74      0.00
   -5    7    5      0.81      0.00
   -3    7    5      1.88      0.00
   -1    7    5     -0.30      0.00
    1    7    5     -2.15      0.00
    3    7    5     -2.70      0.00
    5    7    5     -2.29      0.00
    7    7    5     -1.51      0.00
    9    7    5     -1.59      0.00
   11    7    5     -2.11      0.00
   13    7    5     -2.40      0.00
   15    7    5     -1.15      0.00
  -16    8    5     -0.39      0.00
  -14    8    5     -0.12      0.00
  -12    8    5      0.76      0.00
  -10    8    5      0.75      0.00
   -8    8    5      0.13      0.00
   -6    8    5      0.26      0.00
   -4    8    5     -1.06      0.00
   -2    8    5     -0.40      0.00
    0    8    5      1.75      0.00
    2    8    5      2.17      0.00
    4    8    5      2.02      0.00
    6    8    5      1.14      0.00
    8    8    5      0.89      0.00
   10    8    5      0.04      0.00
   12    8    5     -0.04      0.00
   14    8    5      0.44      0.00
  -15    9    5      0.05      0.00
  -13    9    5     -0.56      0.00
  -11    9    5     -2.28      0.00
   -9    9    5     -1.02      0.00
   -7    9    5      0.32      0.00
   -5    9    5      0.12      0.00
   -3    9    5      0.49      0.00
   -1    9    5     -1.05      0.00
    1    9    5     -1.93      0.00
    3    9    5     -1.99      0.00
    5    9    5     -1.35      0.00
    7    9    5     -1.13      0.00
    9    9    5     -0.62      0.00
   11    9    5      0.73      0.00
  -12   10    5      0.34      0.00
  -10   10    5      1.43      0.00
   -8   10    5     -0.83      0.00
   -6   10    5     -0.91      0.00
   -4   10    5     -0.80      0.00
   -2   10    5     -0.86      0.00
    0   10    5      0.62      0.00
    2   10    5      0.84      0.00
    4   10    5      0.52      0.00
    6   10    5      0.29      0.00
    8   10    5      0.70      0.00
   10   10    5     -0.30      0.00
   -9   11    5     -0.78      0.00
   -7   11    5      0.20      0.00
   -5   11    5     -0.33      0.00
   -3   11    5      1.08      0.00
   -1   11    5      0.46      0.00
    1   11    5     -0.51      0.00
    3   11    5      0.25      0.00
    5   11    5      0.54      0.00
   -4   12    5      0.02      0.00
   -2   12    5     -0.99      0.00
    0   12    5      0.28      0.00
  -22    0    6      0.69      0.00
  -20    0    6     -0.47      0.00
  -18    0    6      0.68      0.00
  -16    0    6      2.64      0.00
  -14    0    6      5.28      0.00
  -12    0    6      8.40      0.00
  -10    0    6      2.15      0.00
   -8    0    6    -15.40      0.00
    0    0    6      1.99      0.00
    2    0    6      4.00      0.00
    4    0    6     10.70      0.00
    8    0    6      0.17      0.00
   10    0    6     -3.35      0.00
   12    0    6     -1.48      0.00
   14    0    6     -0.78      0.00
   16    0    6      1.18      0.00
   18    0    6      0.63      0.00
  -23    1    6     -0.52      0.00
  -21    1    6      0.41      0.00
  -19    1    6      0.55      0.00
  -17    1    6     -0.59      0.00
  -15    1    6     -3.17      0.00
  -13    1    6     -6.22      0.00
  -11    1    6     -8.66      0.00
   -9    1    6      4.14      0.00
   -7    1    6     14.10      0.00
   -5    1    6     20.99      0.00
   -3    1    6     25.48      0.00
   -1    1    6      0.70      0.00
    1    1    6     -9.47      0.00
    5    1    6    -13.26      0.00
    7    1    6     -4.64      0.00
    9    1    6      0.74      0.00
   11    1    6      1.36      0.00
   13    1    6      0.06      0.00
   15    1    6     -0.39      0.00
   17    1    6     -1.12      0.00
  -22    2    6     -0.27      0.00
  -20    2    6     -1.44      0.00
  -18    2    6     -1.80      0.00
  -16    2    6     -0.81      0.00
  -14    2    6      1.09      0.00
  -12    2    6      4.97      0.00
  -10    2    6      4.69      0.00
   -8    2    6     -5.42      0.00
   -6    2    6     -9.32      0.00
   -4    2    6    -13.03      0.00
   -2    2    6     -2.66      0.00
    0    2    6     12.91      0.00
    4    2    6     16.60      0.00
    6    2    6      6.59      0.00
    8    2    6     -0.86      0.00
   10    2    6     -2.99      0.00
   12    2    6     -1.50      0.00
   14    2    6     -0.68      0.00
   16    2    6      0.31      0.00
   18    2    6     -0.22      0.00
  -21    3    6      0.84      0.00
  -19    3    6      2.52      0.00
  -17    3    6      2.48      0.00
  -15    3    6      1.56      0.00
  -13    3    6     -0.37      0.00
  -11    3    6     -4.41      0.00
   -9    3    6     -4.22      0.00
   -7    3    6     -0.64      0.00
   -5    3    6     -0.40      0.00
   -3    3    6     -5.07      0.00
   -1    3    6    -14.50      0.00
    1    3    6    -19.93      0.00
    3    3    6    -19.45      0.00
    5    3    6    -11.24      0.00
    7    3    6     -1.92      0.00
    9    3    6      1.48      0.00
   11    3    6      1.66      0.00
   13    3    6      0.27      0.00
   15    3    6     -0.79      0.00
   17    3    6     -0.26      0.00
  -22    4    6     -0.01      0.00
  -20    4    6     -1.78      0.00
  -18    4    6     -3.09      0.00
  -16    4    6     -2.46      0.00
  -14    4    6     -1.95      0.00
  -12    4    6      0.18      0.00
  -10    4    6      2.50      0.00
   -8    4    6      3.91      0.00
   -6    4    6      2.19      0.00
   -4    4    6      3.44      0.00
   -2    4    6      7.08      0.00
    0    4    6      9.56      0.00
    2    4    6      9.62      0.00
    4    4    6      5.86      0.00
    6    4    6      0.72      0.00
    8    4    6     -2.39      0.00
   10    4    6     -2.97      0.00
   12    4    6     -2.38      0.00
   14    4    6      0.25      0.00
   16    4    6      0.89      0.00
  -21    5    6     -0.23      0.00
  -19    5    6      1.58      0.00
  -17    5    6      1.55      0.00
  -15    5    6      1.42      0.00
  -13    5    6     -0.48      0.00
  -11    5    6     -2.17      0.00
   -9    5    6     -4.36      0.00
   -7    5    6     -6.55      0.00
   -5    5    6     -4.68      0.00
   -3    5    6     -4.81      0.00
   -1    5    6     -4.96      0.00
    1    5    6     -4.32      0.00
    3    5    6     -2.45      0.00
    5    5    6     -1.83      0.00
    7    5    6     -0.20      0.00
    9    5    6      1.01      0.00
   11    5    6      2.04      0.00
   13    5    6      1.09      0.00
   15    5    6     -0.76      0.00
  -20    6    6      0.15      0.00
  -18    6    6     -0.64      0.00
  -16    6    6     -0.85      0.00
  -14    6    6     -0.91      0.00
  -12    6    6      1.54      0.00
  -10    6    6      1.78      0.00
   -8    6    6      3.86      0.00
   -6    6    6      4.39      0.00
   -4    6    6      1.82      0.00
   -2    6    6      0.55      0.00
    0    6    6     -0.48      0.00
    2    6    6     -1.87      0.00
    4    6    6     -1.27      0.00
    6    6    6     -0.89      0.00
    8    6    6     -1.78      0.00
   10    6    6     -1.55      0.00
   12    6    6     -1.88      0.00
   14    6    6     -0.69      0.00
   16    6    6     -0.13      0.00
  -19    7    6      0.21      0.00
  -17    7    6      0.25      0.00
  -15    7    6      1.04      0.00
  -13    7    6      0.84      0.00
  -11    7    6     -1.17      0.00
   -9    7    6     -1.53      0.00
   -7    7    6     -3.18      0.00
   -5    7    6     -2.84      0.00
   -3    7    6     -1.07      0.00
   -1    7    6      0.02      0.00
    1    7    6      1.33      0.00
    3    7    6      1.23      0.00
    5    7    6      0.52      0.00
    7    7    6      1.30      0.00
    9    7    6      0.03      0.00
   11    7    6     -0.72      0.00
   13    7    6     -0.32      0.00
  -18    8    6     -0.20      0.00
  -16    8    6      0.53      0.00
  -14    8    6     -0.75      0.00
  -12    8    6     -0.69      0.00
  -10    8    6      0.73      0.00
   -8    8    6      0.58      0.00
   -6    8    6      1.00      0.00
   -4    8    6      0.45      0.00
   -2    8    6     -0.47      0.00
    0    8    6     -1.71      0.00
    2    8    6     -2.53      0.00
    4    8    6     -1.86      0.00
    6    8    6     -2.14      0.00
    8    8    6     -1.34      0.00
   10    8    6      0.72      0.00
   12    8    6      0.95      0.00
  -15    9    6     -0.92      0.00
  -13    9    6      0.36      0.00
  -11    9    6     -0.27      0.00
   -9    9    6     -0.93      0.00
   -7    9    6     -0.38      0.00
   -5    9    6     -0.54      0.00
   -3    9    6     -0.41      0.00
   -1    9    6     -0.19      0.00
    1    9    6      1.00      0.00
    3    9    6      1.27      0.00
    5    9    6      0.58      0.00
    7    9    6      0.65      0.00
    9    9    6     -0.17      0.00
   11    9    6     -0.46      0.00
  -12   10    6      0.23      0.00
  -10   10    6      0.38      0.00
   -8   10    6     -0.12      0.00
   -6   10    6     -0.69      0.00
   -4   10    6     -0.75      0.00
   -2   10    6     -0.38      0.00
    0   10    6     -0.14      0.00
    2   10    6     -1.15      0.00
    4   10    6     -0.53      0.00
    6   10    6      0.04      0.00
    8   10    6     -0.30      0.00
   -9   11    6      0.05      0.00
   -7   11    6      0.23      0.00
   -5   11    6      0.38      0.00
   -3   11    6      0.25      0.00
   -1   11    6     -0.61      0.00
    1   11    6     -0.73      0.00
    3   11    6     -0.28      0.00
    5   11    6     -0.89      0.00
  -23    1    7     -0.54      0.00
  -21    1    7     -0.89      0.00
  -19    1    7     -0.58      0.00
  -17    1    7     -2.16      0.00
  -15    1    7     -1.77      0.00
  -13    1    7     -1.52      0.00
  -11    1    7      0.11      0.00
   -9    1    7      0.09      0.00
   -7    1    7      2.46      0.00
   -5    1    7      2.56      0.00
   -3    1    7      3.31      0.00
   -1    1    7      4.98      0.00
    1    1    7      1.28      0.00
    3    1    7      1.29      0.00
    5    1    7     -0.67      0.00
    7    1    7      0.53      0.00
    9    1    7      1.07      0.00
   11    1    7      0.35      0.00
   13    1    7      0.72      0.00
   15    1    7      0.54      0.00
   17    1    7     -0.32      0.00
  -22    2    7      1.41      0.00
  -20    2    7      0.71      0.00
  -18    2    7      2.02      0.00
  -16    2    7      2.43      0.00
  -14    2    7      2.11      0.00
  -12    2    7      1.36      0.00
  -10    2    7     -0.69      0.00
   -8    2    7     -1.28      0.00
   -6    2    7     -4.18      0.00
   -4    2    7     -1.28      0.00
   -2    2    7     -3.87      0.00
    0    2    7     -0.28      0.00
    2    2    7      1.34      0.00
    4    2    7      1.06      0.00
    6    2    7      1.51      0.00
    8    2    7     -1.69      0.00
   10    2    7     -0.34      0.00
   12    2    7     -1.28      0.00
   14    2    7     -1.45      0.00
   16    2    7     -0.59      0.00
   18    2    7      0.54      0.00
  -21    3    7     -0.35      0.00
  -19    3    7     -0.43      0.00
  -17    3    7     -1.49      0.00
  -15    3    7      0.37      0.00
  -13    3    7     -0.83      0.00
  -11    3    7      1.48      0.00
   -9    3    7      0.93      0.00
   -7    3    7      1.01      0.00
   -5    3    7     -1.60      0.00
   -3    3    7     -5.16      0.00
   -1    3    7     -6.05      0.00
    1    3    7     -8.83      0.00
    3    3    7     -4.41      0.00
    5    3    7     -3.44      0.00
    7    3    7      0.94      0.00
    9    3    7      1.31      0.00
   11    3    7      1.38      0.00
   13    3    7      2.24      0.00
   15    3    7      1.28      0.00
   17    3    7      0.22      0.00
  -22    4    7     -0.64      0.00
  -20    4    7      0.14      0.00
  -18    4    7      1.56      0.00
  -16    4    7     -0.14      0.00
  -14    4    7     -1.31      0.00
  -12    4    7     -1.20      0.00
  -10    4    7     -2.51      0.00
   -8    4    7      1.15      0.00
   -6    4    7      3.26      0.00
   -4    4    7      8.12      0.00
   -2    4    7     10.21      0.00
    0    4    7     11.35      0.00
    2    4    7      7.29      0.00
    4    4    7      3.38      0.00
    6    4    7      0.56      0.00
    8    4    7     -1.88      0.00
   10    4    7     -0.85      0.00
   12    4    7     -1.79      0.00
   14    4    7     -0.22      0.00
   16    4    7     -0.36      0.00
  -21    5    7      1.26      0.00
  -19    5    7     -0.43      0.00
  -17    5    7     -0.73      0.00
  -15    5    7      1.52      0.00
  -13    5    7      1.88      0.00
  -11    5    7      3.05      0.00
   -9    5    7      1.74      0.00
   -7    5    7     -1.63      0.00
   -5    5    7     -3.85      0.00
   -3    5    7     -5.92      0.00
   -1    5    7     -5.69      0.00
    1    5    7     -3.79      0.00
    3    5    7     -0.68      0.00
    5    5    7      0.30      0.00
    7    5    7      2.27      0.00
    9    5    7      2.09      0.00
   11    5    7      2.41      0.00
   13    5    7      0.39      0.00
   15    5    7     -0.77      0.00
  -20    6    7      0.69      0.00
  -18    6    7      1.63      0.00
  -16    6    7      1.08      0.00
  -14    6    7      0.08      0.00
  -12    6    7     -0.04      0.00
  -10    6    7     -0.25      0.00
   -8    6    7      1.00      0.00
   -6    6    7      2.68      0.00
   -4    6    7      3.33      0.00
   -2    6    7      1.87      0.00
    0    6    7      0.10      0.00
    2    6    7     -0.65      0.00
    4    6    7     -0.37      0.00
    6    6    7     -0.72      0.00
    8    6    7     -1.50      0.00
   10    6    7     -2.20      0.00
   12    6    7     -1.65      0.00
   14    6    7      0.89      0.00
  -19    7    7     -0.78      0.00
  -17    7    7     -0.53      0.00
  -15    7    7     -0.23      0.00
  -13    7    7      0.29      0.00
  -11    7    7     -0.24      0.00
   -9    7    7     -0.05      0.00
   -7    7    7     -0.04      0.00
   -5    7    7     -0.99      0.00
   -3    7    7      0.26      0.00
   -1    7    7      2.61      0.00
    1    7    7      2.88      0.00
    3    7    7      1.93      0.00
    5    7    7      1.16      0.00
    7    7    7      1.42      0.00
    9    7    7      1.51      0.00
   11    7    7      1.94      0.00
   13    7    7      1.03      0.00
  -18    8    7      0.70      0.00
  -16    8    7      0.83      0.00
  -14    8    7      0.31      0.00
  -12    8    7     -0.18      0.00
  -10    8    7      0.97      0.00
   -8    8    7      0.65      0.00
   -6    8    7      0.41      0.00
   -4    8    7      0.32      0.00
   -2    8    7     -1.48      0.00
    0    8    7     -2.21      0.00
    2    8    7     -2.02      0.00
    4    8    7     -1.10      0.00
    6    8    7     -0.76      0.00
    8    8    7     -0.20      0.00
   10    8    7      0.78      0.00
   12    8    7     -0.02      0.00
  -15    9    7     -0.45      0.00
  -13    9    7      1.11      0.00
  -11    9    7      1.22      0.00
   -9    9    7     -0.96      0.00
   -7    9    7     -0.73      0.00
   -5    9    7     -0.17      0.00
   -3    9    7      0.70      0.00
   -1    9    7      1.66      0.00
    1    9    7      1.94      0.00
    3    9    7      1.62      0.00
    5    9    7      0.58      0.00
    7    9    7      0.67      0.00
    9    9    7     -0.81      0.00
   11    9    7     -0.60      0.00
  -12   10    7     -0.97      0.00
  -10   10    7      0.19      0.00
   -8   10    7      1.90      0.00
   -6   10    7      0.86      0.00
   -4   10    7      0.50      0.00
   -2   10    7     -0.53      0.00
    0   10    7     -1.01      0.00
    2   10    7     -0.75      0.00
    4   10    7      0.32      0.00
    6   10    7      0.19      0.00
    8   10    7      0.28      0.00
   -9   11    7     -0.43      0.00
   -7   11    7     -0.49      0.00
   -5   11    7     -0.51      0.00
   -3   11    7     -0.65      0.00
   -1   11    7      0.67      0.00
    1   11    7      0.37      0.00
    3   11    7     -0.46      0.00
    5   11    7     -0.60      0.00
  -22    0    8     -0.10      0.00
  -20    0    8     -0.02      0.00
  -18    0    8     -1.22      0.00
  -16    0    8     -3.55      0.00
  -14    0    8     -5.31      0.00
  -12    0    8     -7.16      0.00
  -10    0    8      2.95      0.00
   -8    0    8      9.88      0.00
   -6    0    8     14.25      0.00
   -4    0    8     16.98      0.00
   -2    0    8     -2.64      0.00
    2    0    8     -7.26      0.00
    4    0    8     -4.96      0.00
    6    0    8      1.89      0.00
    8    0    8      5.36      0.00
   10    0    8      3.55      0.00
   12    0    8      0.81      0.00
   14    0    8     -0.45      0.00
   16    0    8     -1.83      0.00
  -23    1    8      0.58      0.00
  -21    1    8     -0.49      0.00
  -19    1    8     -0.04      0.00
  -17    1    8      1.57      0.00
  -15    1    8      3.77      0.00
  -13    1    8      6.68      0.00
  -11    1    8      4.53      0.00
   -9    1    8     -6.63      0.00
   -7    1    8     -8.87      0.00
   -5    1    8    -14.04      0.00
   -3    1    8     -2.74      0.00
   -1    1    8     12.03      0.00
    1    1    8     11.75      0.00
    3    1    8     11.19      0.00
    5    1    8      3.42      0.00
    7    1    8     -2.15      0.00
    9    1    8     -3.63      0.00
   11    1    8     -0.75      0.00
   13    1    8     -0.11      0.00
   15    1    8      1.53      0.00
   17    1    8      0.67      0.00
  -22    2    8      0.57      0.00
  -20    2    8      1.45      0.00
  -18    2    8      1.35      0.00
  -16    2    8      0.03      0.00
  -14    2    8     -1.78      0.00
  -12    2    8     -4.55      0.00
  -10    2    8      0.85      0.00
   -8    2    8      6.59      0.00
   -6    2    8      6.64      0.00
   -4    2    8      2.57      0.00
   -2    2    8    -11.93      0.00
    0    2    8    -16.65      0.00
    2    2    8    -14.71      0.00
    4    2    8     -7.02      0.00
    6    2    8      1.28      0.00
    8    2    8      4.10      0.00
   10    2    8      3.02      0.00
   12    2    8      1.06      0.00
   14    2    8      0.04      0.00
   16    2    8     -0.60      0.00
  -23    3    8     -0.51      0.00
  -21    3    8     -1.41      0.00
  -19    3    8     -2.08      0.00
  -17    3    8     -1.58      0.00
  -15    3    8     -0.96      0.00
  -13    3    8      1.31      0.00
  -11    3    8      2.92      0.00
   -9    3    8      0.28      0.00
   -7    3    8     -0.21      0.00
   -5    3    8      3.75      0.00
   -3    3    8     12.00      0.00
   -1    3    8     18.51      0.00
    1    3    8     17.77      0.00
    3    3    8     11.92      0.00
    5    3    8      3.21      0.00
    7    3    8     -1.35      0.00
    9    3    8     -2.16      0.00
   11    3    8     -0.86      0.00
   13    3    8      0.70      0.00
   15    3    8      0.96      0.00
   17    3    8      0.01      0.00
  -22    4    8      0.77      0.00
  -20    4    8      2.02      0.00
  -18    4    8      1.48      0.00
  -16    4    8      1.31      0.00
  -14    4    8      0.45      0.00
  -12    4    8     -1.02      0.00
  -10    4    8     -2.20      0.00
   -8    4    8     -1.88      0.00
   -6    4    8     -1.77      0.00
   -4    4    8     -5.03      0.00
   -2    4    8     -8.06      0.00
    0    4    8     -8.65      0.00
    2    4    8     -6.24      0.00
    4    4    8     -2.55      0.00
    6    4    8      1.34      0.00
    8    4    8      2.71      0.00
   10    4    8      2.67      0.00
   12    4    8      0.63      0.00
   14    4    8     -1.09      0.00
   16    4    8     -0.29      0.00
  -21    5    8     -0.71      0.00
  -19    5    8     -0.97      0.00
  -17    5    8     -0.38      0.00
  -15    5    8     -0.01      0.00
  -13    5    8      2.03      0.00
  -11    5    8      2.90      0.00
   -9    5    8      5.20      0.00
   -7    5    8      4.49      0.00
   -5    5    8      3.23      0.00
   -3    5    8      3.70      0.00
   -1    5    8      3.93      0.00
    1    5    8      3.37      0.00
    3    5    8      3.25      0.00
    5    5    8      2.05      0.00
    7    5    8     -0.16      0.00
    9    5    8     -1.01      0.00
   11    5    8     -1.44      0.00
   13    5    8      0.33      0.00
   15    5    8      0.57      0.00
  -20    6    8      0.43      0.00
  -18    6    8      0.09      0.00
  -16    6    8      0.37      0.00
  -14    6    8     -1.17      0.00
  -12    6    8     -2.83      0.00
  -10    6    8     -3.40      0.00
   -8    6    8     -4.68      0.00
   -6    6    8     -2.40      0.00
   -4    6    8     -0.46      0.00
   -2    6    8      0.10      0.00
    0    6    8      0.44      0.00
    2    6    8     -0.06      0.00
    4    6    8     -0.67      0.00
    6    6    8      0.82      0.00
    8    6    8      0.77      0.00
   10    6    8      1.21      0.00
   12    6    8      1.33      0.00
   14    6    8      0.57      0.00
  -19    7    8      0.10      0.00
  -17    7    8      0.26      0.00
  -15    7    8     -0.49      0.00
  -13    7    8      1.10      0.00
  -11    7    8      2.02      0.00
   -9    7    8      2.47      0.00
   -7    7    8      2.80      0.00
   -5    7    8      1.12      0.00
   -3    7    8      0.09      0.00
   -1    7    8     -0.62      0.00
    1    7    8     -0.59      0.00
    3    7    8      0.28      0.00
    5    7    8     -0.36      0.00
    7    7    8      0.09      0.00
    9    7    8      1.36      0.00
   11    7    8      0.50      0.00
   13    7    8     -0.28      0.00
  -18    8    8     -0.68      0.00
  -16    8    8     -0.63      0.00
  -14    8    8      0.52      0.00
  -12    8    8     -0.67      0.00
  -10    8    8     -0.74      0.00
   -8    8    8     -0.65      0.00
   -6    8    8     -0.58      0.00
   -4    8    8      0.49      0.00
   -2    8    8      1.45      0.00
    0    8    8      2.48      0.00
    2    8    8      1.86      0.00
    4    8    8      1.29      0.00
    6    8    8      1.15      0.00
    8    8    8     -0.26      0.00
   10    8    8     -0.59      0.00
   12    8    8     -0.02      0.00
  -15    9    8      0.31      0.00
  -13    9    8     -0.27      0.00
  -11    9    8      0.66      0.00
   -9    9    8      0.21      0.00
   -7    9    8      0.34      0.00
   -5    9    8      0.06      0.00
   -3    9    8     -0.41      0.00
   -1    9    8     -1.12      0.00
    1    9    8     -1.70      0.00
    3    9    8     -0.28      0.00
    5    9    8      0.43      0.00
    7    9    8      0.39      0.00
    9    9    8      0.49      0.00
  -12   10    8     -0.42      0.00
  -10   10    8     -0.40      0.00
   -8   10    8      0.22      0.00
   -6   10    8      0.48      0.00
   -4   10    8      0.86      0.00
   -2   10    8      0.43      0.00
    0   10    8      0.99      0.00
    2   10    8      0.95      0.00
    4   10    8     -0.47      0.00
    6   10    8     -0.06      0.00
   -9   11    8      0.19      0.00
   -7   11    8     -0.22      0.00
   -5   11    8     -0.34      0.00
   -3   11    8      0.17      0.00
   -1   11    8      0.99      0.00
    1   11    8      0.44      0.00
    3   11    8      0.75      0.00
  -23    1    9      0.96      0.00
  -21    1    9      0.12      0.00
  -19    1    9      1.26      0.00
  -17    1    9      2.33      0.00
  -15    1    9      1.44      0.00
  -13    1    9      1.08      0.00
  -11    1    9      1.17      0.00
   -9    1    9      1.01      0.00
   -7    1    9     -0.52      0.00
   -5    1    9     -0.22      0.00
   -3    1    9     -2.91      0.00
   -1    1    9     -1.57      0.00
    1    1    9     -1.05      0.00
    3    1    9     -0.78      0.00
    5    1    9     -0.48      0.00
    7    1    9     -1.36      0.00
    9    1    9      0.09      0.00
   11    1    9     -0.34      0.00
   13    1    9     -0.55      0.00
   15    1    9     -0.29      0.00
   17    1    9      0.20      0.00
  -22    2    9     -0.87      0.00
  -20    2    9     -0.31      0.00
  -18    2    9     -2.89      0.00
  -16    2    9     -2.10      0.00
  -14    2    9     -2.12      0.00
  -12    2    9     -1.20      0.00
  -10    2    9     -1.88      0.00
   -8    2    9     -0.41      0.00
   -6    2    9     -1.02      0.00
   -4    2    9     -0.51      0.00
   -2    2    9      0.62      0.00
    0    2    9     -1.74      0.00
    2    2    9      0.16      0.00
    4    2    9     -0.99      0.00
    6    2    9      1.28      0.00
    8    2    9      0.47      0.00
   10    2    9      0.53      0.00
   12    2    9      1.59      0.00
   14    2    9      0.98      0.00
   16    2    9      0.00      0.00
  -23    3    9      0.36      0.00
  -21    3    9     -0.39      0.00
  -19    3    9      0.73      0.00
  -17    3    9      0.42      0.00
  -15    3    9     -0.35      0.00
  -13    3    9     -0.01      0.00
  -11    3    9     -0.73      0.00
   -9    3    9      1.46      0.00
   -7    3    9      2.15      0.00
   -5    3    9      5.55      0.00
   -3    3    9      5.07      0.00
   -1    3    9      6.20      0.00
    1    3    9      3.49      0.00
    3    3    9      1.83      0.00
    5    3    9      0.47      0.00
    7    3    9     -1.34      0.00
    9    3    9     -0.44      0.00
   11    3    9     -2.49      0.00
   13    3    9     -1.30      0.00
   15    3    9     -0.40      0.00
  -22    4    9      0.25      0.00
  -20    4    9     -0.72      0.00
  -18    4    9     -1.03      0.00
  -16    4    9      1.41      0.00
  -14    4    9      0.98      0.00
  -12    4    9      2.08      0.00
  -10    4    9      0.30      0.00
   -8    4    9     -2.98      0.00
   -6    4    9     -5.57      0.00
   -4    4    9     -7.79      0.00
   -2    4    9     -7.21      0.00
    0    4    9     -5.20      0.00
    2    4    9     -1.67      0.00
    4    4    9     -1.14      0.00
    6    4    9      1.09      0.00
    8    4    9      0.32      0.00
   10    4    9      1.55      0.00
   12    4    9      0.94      0.00
   14    4    9     -0.37      0.00
  -21    5    9      0.09      0.00
  -19    5    9      1.32      0.00
  -17    5    9     -0.20      0.00
  -15    5    9     -1.71      0.00
  -13    5    9     -1.93      0.00
  -11    5    9     -2.85      0.00
   -9    5    9     -0.31      0.00
   -7    5    9      1.43      0.00
   -5    5    9      2.62      0.00
   -3    5    9      2.13      0.00
   -1    5    9      0.51      0.00
    1    5    9     -0.82      0.00
    3    5    9     -0.58      0.00
    5    5    9     -1.30      0.00
    7    5    9     -1.49      0.00
    9    5    9     -1.34      0.00
   11    5    9     -1.25      0.00
   13    5    9      1.16      0.00
   15    5    9      0.05      0.00
  -20    6    9     -1.17      0.00
  -18    6    9     -1.44      0.00
  -16    6    9     -0.41      0.00
  -14    6    9     -0.12      0.00
  -12    6    9     -0.19      0.00
  -10    6    9     -0.05      0.00
   -8    6    9     -0.99      0.00
   -6    6    9     -1.27      0.00
   -4    6    9     -0.35      0.00
   -2    6    9      1.88      0.00
    0    6    9      2.27      0.00
    2    6    9      0.82      0.00
    4    6    9      0.51      0.00
    6    6    9      1.22      0.00
    8    6    9      0.98      0.00
   10    6    9      1.27      0.00
   12    6    9     -0.52      0.00
   14    6    9     -0.91      0.00
  -19    7    9      0.31      0.00
  -17    7    9      0.60      0.00
  -15    7    9      0.14      0.00
  -13    7    9      0.69      0.00
  -11    7    9      1.23      0.00
   -9    7    9      0.32      0.00
   -7    7    9      0.17      0.00
   -5    7    9     -0.37      0.00
   -3    7    9     -2.39      0.00
   -1    7    9     -3.63      0.00
    1    7    9     -2.45      0.00
    3    7    9     -1.06      0.00
    5    7    9     -1.22      0.00
    7    7    9     -0.87      0.00
    9    7    9     -0.45      0.00
   11    7    9     -0.46      0.00
  -18    8    9     -0.75      0.00
  -16    8    9     -1.03      0.00
  -14    8    9     -0.30      0.00
  -12    8    9     -1.43      0.00
  -10    8    9     -1.95      0.00
   -8    8    9     -0.76      0.00
   -6    8    9     -0.13      0.00
   -4    8    9      0.94      0.00
   -2    8    9      1.95      0.00
    0    8    9      2.25      0.00
    2    8    9      1.39      0.00
    4    8    9      0.42      0.00
    6    8    9      0.48      0.00
    8    8    9     -0.78      0.00
   10    8    9     -0.52      0.00
  -15    9    9      0.05      0.00
  -13    9    9     -0.99      0.00
  -11    9    9      0.62      0.00
   -9    9    9      1.25      0.00
   -7    9    9     -0.12      0.00
   -5    9    9     -1.09      0.00
   -3    9    9     -1.67      0.00
   -1    9    9     -1.73      0.00
    1    9    9     -1.95      0.00
    3    9    9     -0.38      0.00
    5    9    9     -0.14      0.00
    7    9    9      0.06      0.00
    9    9    9      0.65      0.00
  -12   10    9      0.37      0.00
  -10   10    9     -1.67      0.00
   -8   10    9     -1.37      0.00
   -6   10    9      0.03      0.00
   -4   10    9      0.93      0.00
   -2   10    9      1.14      0.00
    0   10    9      0.72      0.00
    2   10    9     -0.29      0.00
    4   10    9     -1.30      0.00
    6   10    9     -0.48      0.00
   -9   11    9      1.17      0.00
   -7   11    9      0.56      0.00
   -5   11    9      0.33      0.00
   -3   11    9     -0.71      0.00
   -1   11    9     -0.68      0.00
    1   11    9      0.17      0.00
    3   11    9      0.72      0.00
  -22    0   10     -0.33      0.00
  -20    0   10      0.39      0.00
  -18    0   10      2.27      0.00
  -16    0   10      3.80      0.00
  -14    0   10      4.92      0.00
  -12    0   10      3.57      0.00
  -10    0   10     -4.96      0.00
   -8    0   10     -6.66      0.00
   -6    0   10     -9.59      0.00
   -4    0   10     -0.15      0.00
   -2    0   10      8.50      0.00
    0    0   10      5.14      0.00
    2    0   10      1.77      0.00
    4    0   10     -4.59      0.00
    6    0   10     -6.85      0.00
    8    0   10     -5.92      0.00
   10    0   10     -1.43      0.00
   12    0   10     -0.51      0.00
   14    0   10      1.69      0.00
   16    0   10      0.59      0.00
  -23    1   10      0.01      0.00
  -21    1   10      0.31      0.00
  -19    1   10     -0.57      0.00
  -17    1   10     -2.66      0.00
  -15    1   10     -3.73      0.00
  -13    1   10     -5.58      0.00
  -11    1   10     -0.07      0.00
   -9    1   10      4.83      0.00
   -7    1   10      5.18      0.00
   -5    1   10      2.42      0.00
   -3    1   10    -10.51      0.00
   -1    1   10    -11.72      0.00
    1    1   10     -8.35      0.00
    3    1   10     -1.81      0.00
    5    1   10      3.54      0.00
    7    1   10      5.02      0.00
    9    1   10      2.47      0.00
   11    1   10      0.27      0.00
   13    1   10     -0.66      0.00
   15    1   10     -1.58      0.00
  -22    2   10     -0.62      0.00
  -20    2   10     -1.08      0.00
  -18    2   10     -0.51      0.00
  -16    2   10      0.32      0.00
  -14    2   10      1.81      0.00
  -12    2   10      1.74      0.00
  -10    2   10     -3.70      0.00
   -8    2   10     -3.58      0.00
   -6    2   10     -0.84      0.00
   -4    2   10      7.77      0.00
   -2    2   10     14.41      0.00
    0    2   10     11.75      0.00
    2    2   10      5.85      0.00
    4    2   10     -1.88      0.00
    6    2   10     -5.00      0.00
    8    2   10     -4.83      0.00
   10    2   10     -2.00      0.00
   12    2   10     -0.72      0.00
   14    2   10      0.71      0.00
   16    2   10      0.23      0.00
  -23    3   10      0.36      0.00
  -21    3   10      1.06      0.00
  -19    3   10      1.18      0.00
  -17    3   10      1.29      0.00
  -15    3   10      0.82      0.00
  -13    3   10     -0.93      0.00
  -11    3   10     -0.23      0.00
   -9    3   10      0.98      0.00
   -7    3   10     -1.89      0.00
   -5    3   10     -7.01      0.00
   -3    3   10    -13.07      0.00
   -1    3   10    -13.86      0.00
    1    3   10     -9.97      0.00
    3    3   10     -3.81      0.00
    5    3   10      1.22      0.00
    7    3   10      2.65      0.00
    9    3   10      1.70      0.00
   11    3   10     -0.21      0.00
   13    3   10     -1.07      0.00
   15    3   10     -0.60      0.00
  -22    4   10     -0.70      0.00
  -20    4   10     -0.65      0.00
  -18    4   10     -0.48      0.00
  -16    4   10     -0.85      0.00
  -14    4   10      0.18      0.00
  -12    4   10      0.79      0.00
  -10    4   10      0.73      0.00
   -8    4   10      0.06      0.00
   -6    4   10      1.48      0.00
   -4    4   10      4.07      0.00
   -2    4   10      5.91      0.00
    0    4   10      5.03      0.00
    2    4   10      3.13      0.00
    4    4   10      0.03      0.00
    6    4   10     -2.39      0.00
    8    4   10     -2.40      0.00
   10    4   10     -1.31      0.00
   12    4   10      0.59      0.00
   14    4   10      0.51      0.00
  -21    5   10      0.61      0.00
  -19    5   10     -0.16      0.00
  -17    5   10      0.07      0.00
  -15    5   10     -1.11      0.00
  -13    5   10     -2.20      0.00
  -11    5   10     -2.86      0.00
   -9    5   10     -2.88      0.00
   -7    5   10     -1.15      0.00
   -5    5   10     -1.29      0.00
   -3    5   10     -2.31      0.00
   -1    5   10     -2.98      0.00
    1    5   10     -3.23      0.00
    3    5   10     -3.05      0.00
    5    5   10     -0.55      0.00
    7    5   10      0.24      0.00
    9    5   10      0.75      0.00
   11    5   10      0.30      0.00
   13    5   10     -0.40      0.00
  -20    6   10     -0.21      0.00
  -18    6   10      0.19      0.00
  -16    6   10      0.51      0.00
  -14    6   10      2.62      0.00
  -12    6   10      3.09      0.00
  -10    6   10      3.45      0.00
   -8    6   10      2.20      0.00
   -6    6   10      0.30      0.00
   -4    6   10      0.03      0.00
   -2    6   10      0.13      0.00
    0    6   10      0.64      0.00
    2    6   10      1.39      0.00
    4    6   10      0.17      0.00
    6    6   10     -0.43      0.00
    8    6   10     -0.18      0.00
   10    6   10     -1.23      0.00
   12    6   10     -0.96      0.00
  -19    7   10     -0.55      0.00
  -17    7   10     -0.37      0.00
  -15    7   10     -0.62      0.00
  -13    7   10     -2.04      0.00
  -11    7   10     -1.88      0.00
   -9    7   10     -1.78      0.00
   -7    7   10     -0.86      0.00
   -5    7   10      0.00      0.00
   -3    7   10      0.42      0.00
   -1    7   10      0.50      0.00
    1    7   10     -0.64      0.00
    3    7   10     -0.52      0.00
    5    7   10     -0.11      0.00
    7    7   10     -1.12      0.00
    9    7   10     -0.50      0.00
   11    7   10      0.47      0.00
  -18    8   10      1.00      0.00
  -16    8   10      0.06      0.00
  -14    8   10      0.06      0.00
  -12    8   10      0.69      0.00
  -10    8   10     -0.11      0.00
   -8    8   10     -0.14      0.00
   -6    8   10     -1.00      0.00
   -4    8   10     -1.83      0.00
   -2    8   10     -2.60      0.00
    0    8   10     -1.99      0.00
    2    8   10     -0.57      0.00
    4    8   10     -0.53      0.00
    6    8   10     -0.19      0.00
    8    8   10     -0.20      0.00
   10    8   10     -0.70      0.00
  -15    9   10      0.47      0.00
  -13    9   10     -0.03      0.00
  -11    9   10      0.11      0.00
   -9    9   10      0.44      0.00
   -7    9   10      0.52      0.00
   -5    9   10      1.49      0.00
   -3    9   10      1.71      0.00
   -1    9   10      2.00      0.00
    1    9   10      0.55      0.00
    3    9   10     -1.04      0.00
    5    9   10     -0.81      0.00
    7    9   10     -0.35      0.00
  -12   10   10      0.60      0.00
  -10   10   10      0.18      0.00
   -8   10   10      0.07      0.00
   -6   10   10     -0.68      0.00
   -4   10   10     -0.87      0.00
   -2   10   10     -0.69      0.00
    0   10   10     -1.06      0.00
    2   10   10      0.35      0.00
    4   10   10      0.58      0.00
   -9   11   10     -0.03      0.00
   -7   11   10      0.13      0.00
   -5   11   10      0.17      0.00
   -3   11   10     -0.56      0.00
   -1   11   10     -0.41      0.00
    1   11   10     -0.18      0.00
  -23    1   11     -0.44      0.00
  -21    1   11     -0.05      0.00
  -19    1   11     -2.13      0.00
  -17    1   11     -1.57      0.00
  -15    1   11     -0.82      0.00
  -13    1   11     -0.91      0.00
  -11    1   11     -1.28      0.00
   -9    1   11     -0.22      0.00
   -7    1   11     -0.26      0.00
   -5    1   11      0.80      0.00
   -3    1   11      1.65      0.00
   -1    1   11      1.28      0.00
    1    1   11      2.12      0.00
    3    1   11      0.80      0.00
    5    1   11      0.97      0.00
    7    1   11     -0.46      0.00
    9    1   11     -0.23      0.00
   11    1   11      0.65      0.00
   13    1   11      0.55      0.00
   15    1   11      0.05      0.00
  -22    2   11     -0.30      0.00
  -20    2   11      1.43      0.00
  -18    2   11      2.80      0.00
  -16    2   11      1.45      0.00
  -14    2   11      1.60      0.00
  -12    2   11      2.04      0.00
  -10    2   11      2.72      0.00
   -8    2   11      2.33      0.00
   -6    2   11      3.14      0.00
   -4    2   11      0.99      0.00
   -2    2   11      1.43      0.00
    0    2   11     -0.42      0.00
    2    2   11     -0.03      0.00
    4    2   11      0.09      0.00
    6    2   11     -0.15      0.00
    8    2   11      0.67      0.00
   10    2   11     -1.57      0.00
   12    2   11     -1.11      0.00
   14    2   11     -0.44      0.00
  -23    3   11      0.06      0.00
  -21    3   11      0.30      0.00
  -19    3   11     -1.20      0.00
  -17    3   11      0.34      0.00
  -15    3   11      0.18      0.00
  -13    3   11      0.27      0.00
  -11    3   11     -1.58      0.00
   -9    3   11     -3.15      0.00
   -7    3   11     -4.38      0.00
   -5    3   11     -4.17      0.00
   -3    3   11     -2.91      0.00
   -1    3   11     -1.75      0.00
    1    3   11      0.11      0.00
    3    3   11     -0.99      0.00
    5    3   11      0.69      0.00
    7    3   11     -0.22      0.00
    9    3   11      1.82      0.00
   11    3   11      1.94      0.00
   13    3   11      0.23      0.00
  -22    4   11      0.14      0.00
  -20    4   11      1.08      0.00
  -18    4   11     -0.21      0.00
  -16    4   11     -1.43      0.00
  -14    4   11     -1.10      0.00
  -12    4   11     -1.12      0.00
  -10    4   11      2.11      0.00
   -8    4   11      3.41      0.00
   -6    4   11      4.11      0.00
   -4    4   11      2.95      0.00
   -2    4   11      1.62      0.00
    0    4   11      0.08      0.00
    2    4   11      0.76      0.00
    4    4   11      0.05      0.00
    6    4   11     -0.06      0.00
    8    4   11     -0.28      0.00
   10    4   11     -1.72      0.00
   12    4   11      0.51      0.00
   14    4   11      0.24      0.00
  -21    5   11     -1.15      0.00
  -19    5   11     -0.88      0.00
  -17    5   11      1.19      0.00
  -15    5   11      1.39      0.00
  -13    5   11      2.04      0.00
  -11    5   11      1.59      0.00
   -9    5   11      0.08      0.00
   -7    5   11      0.51      0.00
   -5    5   11      1.11      0.00
   -3    5   11      2.82      0.00
   -1    5   11      3.02      0.00
    1    5   11      1.35      0.00
    3    5   11      0.79      0.00
    5    5   11      1.12      0.00
    7    5   11     -0.01      0.00
    9    5   11      0.98      0.00
   11    5   11     -0.28      0.00
   13    5   11     -0.72      0.00
  -20    6   11      0.98      0.00
  -18    6   11      0.52      0.00
  -16    6   11     -0.29      0.00
  -14    6   11      0.27      0.00
  -12    6   11     -0.09      0.00
  -10    6   11     -0.05      0.00
   -8    6   11     -0.19      0.00
   -6    6   11     -1.08      0.00
   -4    6   11     -2.82      0.00
   -2    6   11     -4.32      0.00
    0    6   11     -2.32      0.00
    2    6   11     -0.71      0.00
    4    6   11     -1.15      0.00
    6    6   11     -0.03      0.00
    8    6   11      0.35      0.00
   10    6   11      0.17      0.00
   12    6   11      0.98      0.00
  -19    7   11     -0.35      0.00
  -17    7   11     -0.38      0.00
  -15    7   11     -0.43      0.00
  -13    7   11     -1.65      0.00
  -11    7   11     -1.03      0.00
   -9    7   11     -0.30      0.00
   -7    7   11      0.39      0.00
   -5    7   11      1.65      0.00
   -3    7   11      3.72      0.00
   -1    7   11      3.92      0.00
    1    7   11      1.68      0.00
    3    7   11      0.95      0.00
    5    7   11      0.58      0.00
    7    7   11     -0.87      0.00
    9    7   11     -0.54      0.00
   11    7   11     -0.71      0.00
  -16    8   11      0.56      0.00
  -14    8   11      1.13      0.00
  -12    8   11      2.31      0.00
  -10    8   11      1.55      0.00
   -8    8   11      0.50      0.00
   -6    8   11     -0.46      0.00
   -4    8   11     -1.32      0.00
   -2    8   11     -2.37      0.00
    0    8   11     -2.15      0.00
    2    8   11     -0.18      0.00
    4    8   11     -0.08      0.00
    6    8   11      0.31      0.00
    8    8   11      0.76      0.00
  -15    9   11      0.41      0.00
  -13    9   11     -0.06      0.00
  -11    9   11     -0.89      0.00
   -9    9   11      0.17      0.00
   -7    9   11      1.51      0.00
   -5    9   11      1.93      0.00
   -3    9   11      1.50      0.00
   -1    9   11      1.90      0.00
    1    9   11      0.89      0.00
    3    9   11     -0.52      0.00
    5    9   11      0.41      0.00
    7    9   11      0.04      0.00
  -12   10   11      0.67      0.00
  -10   10   11      1.23      0.00
   -8   10   11     -0.15      0.00
   -6   10   11     -1.09      0.00
   -4   10   11     -1.09      0.00
   -2   10   11     -0.17      0.00
    0   10   11      0.15      0.00
    2   10   11      1.37      0.00
    4   10   11      0.88      0.00
   -7   11   11     -0.22      0.00
   -5   11   11      0.47      0.00
   -3   11   11      0.57      0.00
   -1   11   11     -0.34      0.00
  -22    0   12      0.15      0.00
  -20    0   12     -0.91      0.00
  -18    0   12     -2.92      0.00
  -16    0   12     -2.49      0.00
  -14    0   12     -2.92      0.00
  -12    0   12      1.05      0.00
  -10    0   12      5.64      0.00
   -8    0   12      5.58      0.00
   -6    0   12      2.03      0.00
   -4    0   12     -5.81      0.00
   -2    0   12     -3.93      0.00
    0    0   12      0.45      0.00
    2    0   12      6.19      0.00
    4    0   12      7.77      0.00
    6    0   12      7.03      0.00
    8    0   12      3.42      0.00
   10    0   12      1.28      0.00
   12    0   12     -0.03      0.00
   14    0   12     -1.29      0.00
  -23    1   12     -0.29      0.00
  -21    1   12     -0.06      0.00
  -19    1   12      1.36      0.00
  -17    1   12      2.31      0.00
  -15    1   12      2.48      0.00
  -13    1   12      2.46      0.00
  -11    1   12     -2.50      0.00
   -9    1   12     -2.86      0.00
   -7    1   12     -0.90      0.00
   -5    1   12      6.34      0.00
   -3    1   12     10.03      0.00
   -1    1   12      6.25      0.00
    1    1   12      0.83      0.00
    3    1   12     -4.28      0.00
    5    1   12     -5.06      0.00
    7    1   12     -4.13      0.00
    9    1   12     -0.95      0.00
   11    1   12     -0.45      0.00
   13    1   12      1.43      0.00
  -22    2   12      0.43      0.00
  -20    2   12      0.52      0.00
  -18    2   12      0.00      0.00
  -16    2   12      0.07      0.00
  -14    2   12     -1.01      0.00
  -12    2   12      0.98      0.00
  -10    2   12      3.11      0.00
   -8    2   12      0.66      0.00
   -6    2   12     -3.33      0.00
   -4    2   12     -9.16      0.00
   -2    2   12     -8.61      0.00
    0    2   12     -4.08      0.00
    2    2   12      1.99      0.00
    4    2   12      5.25      0.00
    6    2   12      5.69      0.00
    8    2   12      3.44      0.00
   10    2   12      1.39      0.00
   12    2   12      0.22      0.00
   14    2   12     -0.48      0.00
  -23    3   12     -0.09      0.00
  -21    3   12     -0.48      0.00
  -19    3   12     -0.87      0.00
  -17    3   12     -1.39      0.00
  -15    3   12     -0.65      0.00
  -13    3   12      0.01      0.00
  -11    3   12     -1.58      0.00
   -9    3   12     -0.95      0.00
   -7    3   12      1.78      0.00
   -5    3   12      5.52      0.00
   -3    3   12      8.52      0.00
   -1    3   12      6.86      0.00
    1    3   12      3.25      0.00
    3    3   12     -0.80      0.00
    5    3   12     -2.81      0.00
    7    3   12     -2.28      0.00
    9    3   12     -0.41      0.00
   11    3   12      0.65      0.00
   13    3   12      0.73      0.00
  -22    4   12      0.01      0.00
  -20    4   12     -0.18      0.00
  -18    4   12      0.66      0.00
  -16    4   12      0.41      0.00
  -14    4   12     -0.28      0.00
  -12    4   12      0.21      0.00
  -10    4   12      1.62      0.00
   -8    4   12      1.68      0.00
   -6    4   12      0.28      0.00
   -4    4   12     -2.17      0.00
   -2    4   12     -3.37      0.00
    0    4   12     -2.40      0.00
    2    4   12     -0.90      0.00
    4    4   12      1.84      0.00
    6    4   12      2.19      0.00
    8    4   12      1.31      0.00
   10    4   12      0.12      0.00
   12    4   12     -0.32      0.00
  -21    5   12      0.11      0.00
  -19    5   12      0.20      0.00
  -17    5   12      0.19      0.00
  -15    5   12      1.43      0.00
  -13    5   12      1.43      0.00
  -11    5   12      0.86      0.00
   -9    5   12     -0.63      0.00
   -7    5   12     -0.68      0.00
   -5    5   12      0.35      0.00
   -3    5   12      1.72      0.00
   -1    5   12      2.23      0.00
    1    5   12      2.54      0.00
    3    5   12      0.98      0.00
    5    5   12     -0.24      0.00
    7    5   12      0.11      0.00
    9    5   12     -0.25      0.00
   11    5   12      0.15      0.00
  -20    6   12     -0.21      0.00
  -18    6   12     -0.29      0.00
  -16    6   12     -1.38      0.00
  -14    6   12     -2.33      0.00
  -12    6   12     -2.04      0.00
  -10    6   12     -1.13      0.00
   -8    6   12     -0.03      0.00
   -6    6   12     -0.05      0.00
   -4    6   12      0.13      0.00
   -2    6   12     -0.10      0.00
    0    6   12     -0.98      0.00
    2    6   12     -0.59      0.00
    4    6   12      0.40      0.00
    6    6   12     -0.17      0.00
    8    6   12      0.47      0.00
   10    6   12      0.92      0.00
  -19    7   12      0.74      0.00
  -17    7   12      0.49      0.00
  -15    7   12      1.18      0.00
  -13    7   12      1.44      0.00
  -11    7   12      0.63      0.00
   -9    7   12      0.03      0.00
   -7    7   12     -0.28      0.00
   -5    7   12     -0.54      0.00
   -3    7   12     -1.07      0.00
   -1    7   12      0.14      0.00
    1    7   12      0.92      0.00
    3    7   12      0.11      0.00
    5    7   12      0.45      0.00
    7    7   12      0.20      0.00
    9    7   12     -0.58      0.00
  -16    8   12      0.36      0.00
  -14    8   12     -0.25      0.00
  -12    8   12      0.45      0.00
  -10    8   12      1.28      0.00
   -8    8   12      1.70      0.00
   -6    8   12      2.30      0.00
   -4    8   12      2.63      0.00
   -2    8   12      2.33      0.00
    0    8   12      0.46      0.00
    2    8   12      0.22      0.00
    4    8   12      0.52      0.00
    6    8   12      0.75      0.00
    8    8   12      1.21      0.00
  -15    9   12     -0.51      0.00
  -13    9   12     -0.21      0.00
  -11    9   12     -1.19      0.00
   -9    9   12     -1.24      0.00
   -7    9   12     -2.10      0.00
   -5    9   12     -2.16      0.00
   -3    9   12     -1.91      0.00
   -1    9   12     -1.08      0.00
    1    9   12      0.63      0.00
    3    9   12      0.58      0.00
    5    9   12      0.07      0.00
  -12   10   12     -0.27      0.00
  -10   10   12     -0.22      0.00
   -8   10   12      0.06      0.00
   -6   10   12      0.86      0.00
   -4   10   12      0.38      0.00
   -2   10   12      0.73      0.00
    0   10   12      0.12      0.00
    2   10   12     -0.68      0.00
  -23    1   13     -0.11      0.00
  -21    1   13      0.69      0.00
  -19    1   13      1.51      0.00
  -17    1   13      0.33      0.00
  -15    1   13      0.41      0.00
  -13    1   13      0.74      0.00
  -11    1   13      0.62      0.00
   -9    1   13      0.51      0.00
   -7    1   13      0.33      0.00
   -5    1   13     -1.23      0.00
   -3    1   13     -1.52      0.00
   -1    1   13     -2.51      0.00
    1    1   13     -1.23      0.00
    3    1   13     -0.35      0.00
    5    1   13      0.45      0.00
    7    1   13      0.82      0.00
    9    1   13     -0.75      0.00
   11    1   13     -0.58      0.00
   13    1   13     -0.08      0.00
  -22    2   13      0.18      0.00
  -20    2   13     -1.95      0.00
  -18    2   13     -1.01      0.00
  -16    2   13     -0.54      0.00
  -14    2   13     -1.30      0.00
  -12    2   13     -2.49      0.00
  -10    2   13     -3.07      0.00
   -8    2   13     -3.73      0.00
   -6    2   13     -2.28      0.00
   -4    2   13     -1.00      0.00
   -2    2   13      0.13      0.00
    0    2   13      0.64      0.00
    2    2   13     -1.20      0.00
    4    2   13     -0.51      0.00
    6    2   13     -1.52      0.00
    8    2   13      0.71      0.00
   10    2   13      1.38      0.00
   12    2   13      0.25      0.00
  -23    3   13     -0.12      0.00
  -21    3   13      0.70      0.00
  -19    3   13      0.51      0.00
  -17    3   13     -0.86      0.00
  -15    3   13     -0.24      0.00
  -13    3   13      0.73      0.00
  -11    3   13      2.79      0.00
   -9    3   13      3.13      0.00
   -7    3   13      2.58      0.00
   -5    3   13      0.59      0.00
   -3    3   13     -0.16      0.00
   -1    3   13     -1.28      0.00
    1    3   13      0.47      0.00
    3    3   13      0.28      0.00
    5    3   13      0.36      0.00
    7    3   13     -0.18      0.00
    9    3   13     -2.24      0.00
   11    3   13     -0.35      0.00
   13    3   13     -0.08      0.00
  -22    4   13     -0.63      0.00
  -20    4   13     -0.67      0.00
  -18    4   13      1.14      0.00
  -16    4   13      1.06      0.00
  -14    4   13      0.90      0.00
  -12    4   13     -0.56      0.00
  -10    4   13     -1.67      0.00
   -8    4   13     -0.72      0.00
   -6    4   13      0.28      0.00
   -4    4   13      1.36      0.00
   -2    4   13      1.45      0.00
    0    4   13      0.17      0.00
    2    4   13     -0.64      0.00
    4    4   13     -0.12      0.00
    6    4   13     -1.07      0.00
    8    4   13      0.96      0.00
   10    4   13      0.26      0.00
   12    4   13     -0.72      0.00
  -21    5   13      1.03      0.00
  -19    5   13     -0.28      0.00
  -17    5   13     -1.35      0.00
  -15    5   13     -1.08      0.00
  -13    5   13     -1.51      0.00
  -11    5   13     -0.80      0.00
   -9    5   13     -1.79      0.00
   -7    5   13     -3.00      0.00
   -5    5   13     -3.98      0.00
   -3    5   13     -4.69      0.00
   -1    5   13     -2.58      0.00
    1    5   13     -0.94      0.00
    3    5   13     -1.13      0.00
    5    5   13      0.56      0.00
    7    5   13      0.46      0.00
    9    5   13     -0.58      0.00
   11    5   13      0.51      0.00
  -20    6   13     -0.35      0.00
  -18    6   13      0.38      0.00
  -16    6   13      0.22      0.00
  -14    6   13     -0.23      0.00
  -12    6   13      0.25      0.00
  -10    6   13      0.26      0.00
   -8    6   13      1.54      0.00
   -6    6   13      2.59      0.00
   -4    6   13      4.71      0.00
   -2    6   13      4.31      0.00
    0    6   13      1.41      0.00
    2    6   13      1.12      0.00
    4    6   13     -0.02      0.00
    6    6   13     -1.82      0.00
    8    6   13     -0.71      0.00
   10    6   13     -0.56      0.00
  -19    7   13      0.41      0.00
  -17    7   13      0.03      0.00
  -15    7   13      1.11      0.00
  -13    7   13      1.29      0.00
  -11    7   13      0.74      0.00
   -9    7   13      0.21      0.00
   -7    7   13     -1.19      0.00
   -5    7   13     -2.90      0.00
   -3    7   13     -4.86      0.00
   -1    7   13     -2.97      0.00
    1    7   13     -0.60      0.00
    3    7   13     -0.39      0.00
    5    7   13      1.09      0.00
    7    7   13      1.34      0.00
    9    7   13      0.55      0.00
  -16    8   13     -0.47      0.00
  -14    8   13     -1.73      0.00
  -12    8   13     -1.59      0.00
  -10    8   13     -1.15      0.00
   -8    8   13     -0.04      0.00
   -6    8   13      0.92      0.00
   -4    8   13      1.92      0.00
   -2    8   13      2.66      0.00
    0    8   13      0.33      0.00
    2    8   13     -0.93      0.00
    4    8   13     -0.20      0.00
    6    8   13     -0.62      0.00
  -15    9   13     -0.12      0.00
  -13    9   13      0.20      0.00
  -11    9   13     -0.30      0.00
   -9    9   13     -1.28      0.00
   -7    9   13     -1.93      0.00
   -5    9   13     -1.37      0.00
   -3    9   13     -1.34      0.00
   -1    9   13     -1.45      0.00
    1    9   13      0.48      0.00
    3    9   13     -0.07      0.00
    5    9   13     -0.69      0.00
  -10   10   13      0.07      0.00
   -8   10   13      0.62      0.00
   -6   10   13      0.55      0.00
   -4   10   13     -0.40      0.00
   -2   10   13     -0.45      0.00
    0   10   13     -0.49      0.00
    2   10   13     -0.88      0.00
  -22    0   14     -0.11      0.00
  -20    0   14      1.40      0.00
  -18    0   14      2.08      0.00
  -16    0   14      0.81      0.00
  -14    0   14      0.48      0.00
  -12    0   14     -3.78      0.00
  -10    0   14     -5.03      0.00
   -8    0   14     -2.39      0.00
   -6    0   14      2.23      0.00
   -4    0   14      2.41      0.00
   -2    0   14     -0.70      0.00
    0    0   14     -5.20      0.00
    2    0   14     -7.86      0.00
    4    0   14     -6.93      0.00
    6    0   14     -5.38      0.00
    8    0   14     -2.29      0.00
   10    0   14     -1.50      0.00
   12    0   14      1.09      0.00
  -23    1   14      0.32      0.00
  -21    1   14     -0.10      0.00
  -19    1   14     -1.44      0.00
  -17    1   14     -0.73      0.00
  -15    1   14     -0.91      0.00
  -13    1   14      0.63      0.00
  -11    1   14      3.23      0.00
   -9    1   14      1.29      0.00
   -7    1   14     -2.73      0.00
   -5    1   14     -6.23      0.00
   -3    1   14     -4.53      0.00
   -1    1   14     -0.87      0.00
    1    1   14      3.85      0.00
    3    1   14      4.72      0.00
    5    1   14      4.59      0.00
    7    1   14      2.31      0.00
    9    1   14      1.00      0.00
   11    1   14     -0.31      0.00
   13    1   14     -1.29      0.00
  -22    2   14     -0.21      0.00
  -20    2   14     -0.04      0.00
  -18    2   14     -0.21      0.00
  -16    2   14     -0.43      0.00
  -14    2   14     -0.18      0.00
  -12    2   14     -2.68      0.00
  -10    2   14     -2.49      0.00
   -8    2   14      0.04      0.00
   -6    2   14      3.56      0.00
   -4    2   14      5.27      0.00
   -2    2   14      2.71      0.00
    0    2   14     -1.51      0.00
    2    2   14     -4.52      0.00
    4    2   14     -5.16      0.00
    6    2   14     -4.27      0.00
    8    2   14     -1.99      0.00
   10    2   14     -1.16      0.00
   12    2   14      0.09      0.00
  -21    3   14      0.14      0.00
  -19    3   14      0.85      0.00
  -17    3   14      1.06      0.00
  -15    3   14      0.42      0.00
  -13    3   14      1.49      0.00
  -11    3   14      3.22      0.00
   -9    3   14      2.14      0.00
   -7    3   14      0.25      0.00
   -5    3   14     -3.12      0.00
   -3    3   14     -4.07      0.00
   -1    3   14     -1.82      0.00
    1    3   14      0.41      0.00
    3    3   14      2.18      0.00
    5    3   14      2.20      0.00
    7    3   14      0.79      0.00
    9    3   14     -0.18      0.00
   11    3   14     -0.31      0.00
  -22    4   14      0.45      0.00
  -20    4   14     -0.13      0.00
  -18    4   14     -0.70      0.00
  -16    4   14     -0.08      0.00
  -14    4   14     -0.31      0.00
  -12    4   14     -2.24      0.00
  -10    4   14     -3.46      0.00
   -8    4   14     -2.61      0.00
   -6    4   14     -0.93      0.00
   -4    4   14      1.66      0.00
   -2    4   14      1.40      0.00
    0    4   14      0.54      0.00
    2    4   14     -1.00      0.00
    4    4   14     -2.01      0.00
    6    4   14     -1.06      0.00
    8    4   14     -0.43      0.00
   10    4   14     -0.11      0.00
  -21    5   14     -0.26      0.00
  -19    5   14      0.16      0.00
  -17    5   14     -0.41      0.00
  -15    5   14     -0.75      0.00
  -13    5   14     -0.10      0.00
  -11    5   14      1.47      0.00
   -9    5   14      1.50      0.00
   -7    5   14      0.66      0.00
   -5    5   14     -0.09      0.00
   -3    5   14     -1.03      0.00
   -1    5   14     -1.23      0.00
    1    5   14     -0.86      0.00
    3    5   14      0.39      0.00
    5    5   14     -0.17      0.00
    7    5   14     -0.33      0.00
    9    5   14     -0.16      0.00
   11    5   14     -0.12      0.00
  -20    6   14      0.24      0.00
  -18    6   14      0.36      0.00
  -16    6   14      0.92      0.00
  -14    6   14      1.10      0.00
  -12    6   14      0.38      0.00
  -10    6   14     -0.53      0.00
   -8    6   14     -0.08      0.00
   -6    6   14     -0.72      0.00
   -4    6   14     -1.26      0.00
   -2    6   14     -0.05      0.00
    0    6   14      0.44      0.00
    2    6   14     -0.43      0.00
    4    6   14     -0.18      0.00
    6    6   14      0.03      0.00
    8    6   14     -0.45      0.00
  -19    7   14     -0.51      0.00
  -17    7   14     -0.16      0.00
  -15    7   14     -0.59      0.00
  -13    7   14     -0.30      0.00
  -11    7   14      0.68      0.00
   -9    7   14      0.83      0.00
   -7    7   14      0.85      0.00
   -5    7   14      1.86      0.00
   -3    7   14      1.11      0.00
   -1    7   14     -0.80      0.00
    1    7   14     -0.17      0.00
    3    7   14      0.10      0.00
    5    7   14      0.06      0.00
    7    7   14      0.57      0.00
  -16    8   14     -0.43      0.00
  -14    8   14     -0.23      0.00
  -12    8   14     -1.51      0.00
  -10    8   14     -2.05      0.00
   -8    8   14     -2.43      0.00
   -6    8   14     -2.47      0.00
   -4    8   14     -2.61      0.00
   -2    8   14     -1.07      0.00
    0    8   14     -0.27      0.00
    2    8   14     -0.89      0.00
    4    8   14     -0.73      0.00
    6    8   14     -1.03      0.00
  -13    9   14      1.07      0.00
  -11    9   14      1.68      0.00
   -9    9   14      1.95      0.00
   -7    9   14      2.16      0.00
   -5    9   14      1.47      0.00
   -3    9   14      1.49      0.00
   -1    9   14      0.39      0.00
    1    9   14      0.17      0.00
    3    9   14      0.38      0.00
  -10   10   14      0.24      0.00
   -8   10   14     -0.45      0.00
   -6   10   14     -0.24      0.00
   -4   10   14     -0.23      0.00
   -2   10   14     -0.57      0.00
    0   10   14      0.33      0.00
  -23    1   15      0.39      0.00
  -21    1   15     -0.62      0.00
  -19    1   15     -0.32      0.00
  -17    1   15     -0.21      0.00
  -15    1   15     -0.71      0.00
  -13    1   15     -0.83      0.00
  -11    1   15     -1.03      0.00
   -9    1   15     -0.94      0.00
   -7    1   15      0.73      0.00
   -5    1   15      1.49      0.00
   -3    1   15      1.79      0.00
   -1    1   15      1.12      0.00
    1    1   15     -0.12      0.00
    3    1   15     -0.06      0.00
    5    1   15     -0.89      0.00
    7    1   15      0.35      0.00
    9    1   15      0.63      0.00
   11    1   15     -0.16      0.00
  -22    2   15      0.17      0.00
  -20    2   15      0.71      0.00
  -18    2   15     -0.20      0.00
  -16    2   15      0.60      0.00
  -14    2   15      1.46      0.00
  -12    2   15      2.44      0.00
  -10    2   15      3.15      0.00
   -8    2   15      2.18      0.00
   -6    2   15      0.26      0.00
   -4    2   15      0.00      0.00
   -2    2   15     -0.40      0.00
    0    2   15      1.44      0.00
    2    2   15      1.05      0.00
    4    2   15      1.27      0.00
    6    2   15      0.70      0.00
    8    2   15     -1.21      0.00
   10    2   15     -0.04      0.00
   12    2   15      0.44      0.00
  -21    3   15     -0.66      0.00
  -19    3   15      0.58      0.00
  -17    3   15      0.60      0.00
  -15    3   15     -0.22      0.00
  -13    3   15     -1.33      0.00
  -11    3   15     -1.84      0.00
   -9    3   15     -1.14      0.00
   -7    3   15      0.59      0.00
   -5    3   15      1.39      0.00
   -3    3   15      1.49      0.00
   -1    3   15      0.19      0.00
    1    3   15     -0.95      0.00
    3    3   15     -0.39      0.00
    5    3   15     -1.17      0.00
    7    3   15      1.04      0.00
    9    3   15      0.82      0.00
   11    3   15     -0.06      0.00
  -22    4   15      0.71      0.00
  -20    4   15     -0.18      0.00
  -18    4   15     -1.07      0.00
  -16    4   15     -0.55      0.00
  -14    4   15     -0.20      0.00
  -12    4   15      0.33      0.00
  -10    4   15     -0.87      0.00
   -8    4   15     -1.88      0.00
   -6    4   15     -2.51      0.00
   -4    4   15     -2.59      0.00
   -2    4   15     -1.22      0.00
    0    4   15      0.49      0.00
    2    4   15      0.50      0.00
    4    4   15      1.71      0.00
    6    4   15      0.91      0.00
    8    4   15     -0.62      0.00
   10    4   15      0.47      0.00
  -21    5   15     -0.22      0.00
  -19    5   15      0.95      0.00
  -17    5   15      0.94      0.00
  -15    5   15      0.74      0.00
  -13    5   15      0.80      0.00
  -11    5   15      1.35      0.00
   -9    5   15      3.01      0.00
   -7    5   15      3.38      0.00
   -5    5   15      4.58      0.00
   -3    5   15      3.94      0.00
   -1    5   15      1.52      0.00
    1    5   15      1.08      0.00
    3    5   15     -0.40      0.00
    5    5   15     -1.66      0.00
    7    5   15      0.28      0.00
    9    5   15      0.40      0.00
  -20    6   15      0.01      0.00
  -18    6   15     -0.44      0.00
  -16    6   15      0.40      0.00
  -14    6   15      0.21      0.00
  -12    6   15      0.23      0.00
  -10    6   15     -0.66      0.00
   -8    6   15     -2.00      0.00
   -6    6   15     -3.31      0.00
   -4    6   15     -5.04      0.00
   -2    6   15     -2.49      0.00
    0    6   15     -0.73      0.00
    2    6   15     -0.26      0.00
    4    6   15      2.00      0.00
    6    6   15      1.59      0.00
    8    6   15      0.24      0.00
  -17    7   15     -0.24      0.00
  -15    7   15     -1.08      0.00
  -13    7   15     -0.52      0.00
  -11    7   15     -0.73      0.00
   -9    7   15      0.91      0.00
   -7    7   15      2.26      0.00
   -5    7   15      4.03      0.00
   -3    7   15      3.79      0.00
   -1    7   15      0.35      0.00
    1    7   15     -0.12      0.00
    3    7   15     -0.36      0.00
    5    7   15     -1.22      0.00
    7    7   15     -0.21      0.00
  -16    8   15      0.87      0.00
  -14    8   15      1.00      0.00
  -12    8   15      0.97      0.00
  -10    8   15      0.62      0.00
   -8    8   15     -0.91      0.00
   -6    8   15     -1.21      0.00
   -4    8   15     -1.96      0.00
   -2    8   15     -0.50      0.00
    0    8   15      1.74      0.00
    2    8   15      0.56      0.00
    4    8   15      0.23      0.00
  -13    9   15      0.46      0.00
  -11    9   15      0.64      0.00
   -9    9   15      1.25      0.00
   -7    9   15      1.22      0.00
   -5    9   15      0.60      0.00
   -3    9   15      1.17      0.00
   -1    9   15      0.11      0.00
    1    9   15     -0.42      0.00
   -8   10   15      0.29      0.00
   -6   10   15      0.69      0.00
   -4   10   15      0.85      0.00
  -22    0   16     -0.05      0.00
  -20    0   16     -1.68      0.00
  -18    0   16     -0.78      0.00
  -16    0   16     -0.16      0.00
  -14    0   16      1.11      0.00
  -12    0   16      4.26      0.00
  -10    0   16      2.87      0.00
   -8    0   16     -0.54      0.00
   -6    0   16     -1.17      0.00
   -4    0   16      0.12      0.00
   -2    0   16      2.41      0.00
    0    0   16      6.32      0.00
    2    0   16      6.44      0.00
    4    0   16      5.68      0.00
    6    0   16      3.10      0.00
    8    0   16      1.77      0.00
   10    0   16     -0.04      0.00
  -23    1   16     -0.34      0.00
  -21    1   16      0.49      0.00
  -19    1   16      0.80      0.00
  -17    1   16     -0.35      0.00
  -15    1   16     -0.27      0.00
  -13    1   16     -2.60      0.00
  -11    1   16     -2.97      0.00
   -9    1   16      0.28      0.00
   -7    1   16      2.88      0.00
   -5    1   16      2.66      0.00
   -3    1   16      1.09      0.00
   -1    1   16     -2.43      0.00
    1    1   16     -4.42      0.00
    3    1   16     -4.18      0.00
    5    1   16     -3.12      0.00
    7    1   16     -1.13      0.00
    9    1   16     -0.48      0.00
   11    1   16      1.24      0.00
  -22    2   16      0.05      0.00
  -20    2   16     -0.01      0.00
  -18    2   16      0.55      0.00
  -16    2   16      0.56      0.00
  -14    2   16      1.71      0.00
  -12    2   16      3.56      0.00
  -10    2   16      2.00      0.00
   -8    2   16     -0.41      0.00
   -6    2   16     -2.41      0.00
   -4    2   16     -1.89      0.00
   -2    2   16      0.78      0.00
    0    2   16      3.10      0.00
    2    2   16      3.69      0.00
    4    2   16      3.70      0.00
    6    2   16      2.26      0.00
    8    2   16      1.35      0.00
   10    2   16      0.56      0.00
  -21    3   16     -0.22      0.00
  -19    3   16     -0.70      0.00
  -17    3   16     -0.49      0.00
  -15    3   16     -0.84      0.00
  -13    3   16     -3.15      0.00
  -11    3   16     -3.68      0.00
   -9    3   16     -2.23      0.00
   -7    3   16     -0.20      0.00
   -5    3   16      2.05      0.00
   -3    3   16      0.80      0.00
   -1    3   16     -0.50      0.00
    1    3   16     -0.91      0.00
    3    3   16     -1.32      0.00
    5    3   16     -0.77      0.00
    7    3   16     -0.11      0.00
    9    3   16     -0.09      0.00
  -20    4   16      0.67      0.00
  -18    4   16      0.45      0.00
  -16    4   16      0.18      0.00
  -14    4   16      1.38      0.00
  -12    4   16      3.38      0.00
  -10    4   16      2.81      0.00
   -8    4   16      1.85      0.00
   -6    4   16      0.07      0.00
   -4    4   16     -0.77      0.00
   -2    4   16      0.38      0.00
    0    4   16      0.53      0.00
    2    4   16      1.26      0.00
    4    4   16      0.91      0.00
    6    4   16      0.38      0.00
    8    4   16      0.40      0.00
  -21    5   16     -0.20      0.00
  -19    5   16     -0.22      0.00
  -17    5   16      0.17      0.00
  -15    5   16      0.33      0.00
  -13    5   16     -0.87      0.00
  -11    5   16     -1.67      0.00
   -9    5   16     -0.57      0.00
   -7    5   16     -0.91      0.00
   -5    5   16     -0.26      0.00
   -3    5   16      0.34      0.00
   -1    5   16      0.30      0.00
    1    5   16     -0.22      0.00
    3    5   16     -0.14      0.00
    5    5   16      0.60      0.00
    7    5   16      0.46      0.00
    9    5   16      0.25      0.00
  -18    6   16      0.06      0.00
  -16    6   16     -0.25      0.00
  -14    6   16     -0.58      0.00
  -12    6   16      0.76      0.00
  -10    6   16      0.64      0.00
   -8    6   16      0.88      0.00
   -6    6   16      2.40      0.00
   -4    6   16      1.09      0.00
   -2    6   16     -0.34      0.00
    0    6   16      0.36      0.00
    2    6   16      0.58      0.00
    4    6   16      0.11      0.00
    6    6   16      0.08      0.00
  -17    7   16     -0.51      0.00
  -15    7   16      0.25      0.00
  -13    7   16     -0.41      0.00
  -11    7   16     -1.35      0.00
   -9    7   16     -1.23      0.00
   -7    7   16     -2.16      0.00
   -5    7   16     -2.27      0.00
   -3    7   16      0.29      0.00
   -1    7   16      0.50      0.00
    1    7   16     -0.42      0.00
    3    7   16     -0.13      0.00
    5    7   16     -0.45      0.00
  -16    8   16      0.21      0.00
  -14    8   16      0.56      0.00
  -12    8   16      1.53      0.00
  -10    8   16      1.97      0.00
   -8    8   16      2.12      0.00
   -6    8   16      2.37      0.00
   -4    8   16      1.78      0.00
   -2    8   16      0.41      0.00
    0    8   16      1.01      0.00
    2    8   16      0.61      0.00
    4    8   16      0.34      0.00
  -13    9   16     -1.39      0.00
  -11    9   16     -1.33      0.00
   -9    9   16     -1.70      0.00
   -7    9   16     -1.13      0.00
   -5    9   16     -1.35      0.00
   -3    9   16     -1.23      0.00
   -1    9   16     -0.66      0.00
    1    9   16     -0.75      0.00
  -21    1   17      0.40      0.00
  -19    1   17      0.36      0.00
  -17    1   17      0.81      0.00
  -15    1   17      0.80      0.00
  -13    1   17      0.91      0.00
  -11    1   17      1.00      0.00
   -9    1   17     -0.41      0.00
   -7    1   17     -1.42      0.00
   -5    1   17     -0.88      0.00
   -3    1   17     -0.46      0.00
   -1    1   17      0.33      0.00
    1    1   17     -0.21      0.00
    3    1   17      0.35      0.00
    5    1   17      0.43      0.00
    7    1   17     -0.40      0.00
    9    1   17      0.23      0.00
  -22    2   17     -0.32      0.00
  -20    2   17     -0.12      0.00
  -18    2   17     -0.33      0.00
  -16    2   17     -0.81      0.00
  -14    2   17     -1.03      0.00
  -12    2   17     -1.67      0.00
  -10    2   17     -1.28      0.00
   -8    2   17      0.59      0.00
   -6    2   17      0.56      0.00
   -4    2   17      0.05      0.00
   -2    2   17     -0.98      0.00
    0    2   17     -1.07      0.00
    2    2   17     -0.42      0.00
    4    2   17     -1.38      0.00
    6    2   17      0.09      0.00
    8    2   17      0.12      0.00
   10    2   17     -0.62      0.00
  -21    3   17      0.10      0.00
  -19    3   17     -0.46      0.00
  -17    3   17      0.03      0.00
  -15    3   17      0.32      0.00
  -13    3   17      0.50      0.00
  -11    3   17      0.34      0.00
   -9    3   17     -0.62      0.00
   -7    3   17     -1.60      0.00
   -5    3   17     -1.35      0.00
   -3    3   17     -0.42      0.00
   -1    3   17      1.04      0.00
    1    3   17      0.69      0.00
    3    3   17      1.42      0.00
    5    3   17      0.74      0.00
    7    3   17     -0.71      0.00
    9    3   17     -0.07      0.00
  -20    4   17      0.38      0.00
  -18    4   17      0.38      0.00
  -16    4   17     -0.02      0.00
  -14    4   17      0.03      0.00
  -12    4   17      0.79      0.00
  -10    4   17      1.57      0.00
   -8    4   17      1.94      0.00
   -6    4   17      2.70      0.00
   -4    4   17      2.01      0.00
   -2    4   17     -0.08      0.00
    0    4   17     -0.96      0.00
    2    4   17     -1.77      0.00
    4    4   17     -2.03      0.00
    6    4   17      0.03      0.00
    8    4   17      0.17      0.00
  -19    5   17     -0.95      0.00
  -17    5   17     -0.45      0.00
  -15    5   17     -0.34      0.00
  -13    5   17     -0.58      0.00
  -11    5   17     -1.72      0.00
   -9    5   17     -2.31      0.00
   -7    5   17     -3.25      0.00
   -5    5   17     -4.49      0.00
   -3    5   17     -2.25      0.00
   -1    5   17     -0.65      0.00
    1    5   17      0.22      0.00
    3    5   17      1.71      0.00
    5    5   17      0.45      0.00
    7    5   17     -0.85      0.00
  -18    6   17     -0.25      0.00
  -16    6   17     -0.82      0.00
  -14    6   17     -0.47      0.00
  -12    6   17     -0.42      0.00
  -10    6   17      1.18      0.00
   -8    6   17      1.92      0.00
   -6    6   17      3.72      0.00
   -4    6   17      3.13      0.00
   -2    6   17      0.14      0.00
    0    6   17     -0.01      0.00
    2    6   17     -1.15      0.00
    4    6   17     -1.74      0.00
    6    6   17     -0.28      0.00
  -17    7   17      0.62      0.00
  -15    7   17      0.09      0.00
  -13    7   17      0.16      0.00
  -11    7   17     -0.42      0.00
   -9    7   17     -2.11      0.00
   -7    7   17     -2.28      0.00
   -5    7   17     -2.94      0.00
   -3    7   17     -0.39      0.00
   -1    7   17      0.88      0.00
    1    7   17     -0.42      0.00
    3    7   17      0.21      0.00
  -14    8   17     -0.01      0.00
  -12    8   17     -0.66      0.00
  -10    8   17      0.59      0.00
   -8    8   17      0.78      0.00
   -6    8   17      0.31      0.00
   -4    8   17      0.12      0.00
   -2    8   17     -1.77      0.00
    0    8   17     -0.94      0.00
    2    8   17      0.32      0.00
  -11    9   17     -0.13      0.00
   -9    9   17     -0.73      0.00
   -7    9   17     -0.07      0.00
   -5    9   17     -0.16      0.00
   -3    9   17     -0.35      0.00
  -22    0   18      0.70      0.00
  -20    0   18      1.21      0.00
  -18    0   18      0.00      0.00
  -16    0   18      0.08      0.00
  -14    0   18     -2.17      0.00
  -12    0   18     -3.47      0.00
  -10    0   18     -0.45      0.00
   -8    0   18      0.94      0.00
   -6    0   18      0.26      0.00
   -4    0   18     -0.22      0.00
   -2    0   18     -3.49      0.00
    0    0   18     -5.37      0.00
    2    0   18     -4.53      0.00
    4    0   18     -2.70      0.00
    6    0   18     -1.11      0.00
    8    0   18     -0.60      0.00
  -21    1   18     -0.83      0.00
  -19    1   18     -0.13      0.00
  -17    1   18      0.35      0.00
  -15    1   18      1.07      0.00
  -13    1   18      3.21      0.00
  -11    1   18      1.59      0.00
   -9    1   18     -1.18      0.00
   -7    1   18     -1.37      0.00
   -5    1   18     -0.85      0.00
   -3    1   18      0.97      0.00
   -1    1   18      3.55      0.00
    1    1   18      3.58      0.00
    3    1   18      2.71      0.00
    5    1   18      0.99      0.00
    7    1   18      0.42      0.00
    9    1   18     -0.44      0.00
  -22    2   18     -0.10      0.00
  -20    2   18     -0.08      0.00
  -18    2   18     -0.30      0.00
  -16    2   18     -0.60      0.00
  -14    2   18     -2.40      0.00
  -12    2   18     -2.45      0.00
  -10    2   18     -0.23      0.00
   -8    2   18      1.15      0.00
   -6    2   18      1.46      0.00
   -4    2   18      0.04      0.00
   -2    2   18     -1.58      0.00
    0    2   18     -2.03      0.00
    2    2   18     -2.29      0.00
    4    2   18     -1.91      0.00
    6    2   18     -1.08      0.00
    8    2   18     -0.69      0.00
  -21    3   18      0.45      0.00
  -19    3   18      0.09      0.00
  -17    3   18     -0.05      0.00
  -15    3   18      1.29      0.00
  -13    3   18      2.69      0.00
  -11    3   18      1.47      0.00
   -9    3   18      0.41      0.00
   -7    3   18     -0.95      0.00
   -5    3   18     -0.93      0.00
   -3    3   18      0.37      0.00
   -1    3   18     -0.12      0.00
    1    3   18      0.03      0.00
    3    3   18      0.43      0.00
    5    3   18      0.28      0.00
    7    3   18      0.19      0.00
  -20    4   18     -0.61      0.00
  -18    4   18     -0.10      0.00
  -16    4   18     -0.24      0.00
  -14    4   18     -1.82      0.00
  -12    4   18     -2.08      0.00
  -10    4   18     -0.96      0.00
   -8    4   18     -0.97      0.00
   -6    4   18      0.07      0.00
   -4    4   18     -0.51      0.00
   -2    4   18     -0.64      0.00
    0    4   18     -0.29      0.00
    2    4   18     -0.55      0.00
    4    4   18     -0.29      0.00
    6    4   18     -0.35      0.00
  -19    5   18      0.11      0.00
  -17    5   18     -0.31      0.00
  -15    5   18     -0.39      0.00
  -13    5   18      1.22      0.00
  -11    5   18      0.51      0.00
   -9    5   18      0.61      0.00
   -7    5   18      1.33      0.00
   -5    5   18      0.05      0.00
   -3    5   18     -0.11      0.00
   -1    5   18      0.04      0.00
    1    5   18     -0.01      0.00
    3    5   18     -0.49      0.00
    5    5   18     -0.73      0.00
  -18    6   18     -0.32      0.00
  -16    6   18      0.78      0.00
  -14    6   18      0.08      0.00
  -12    6   18     -1.18      0.00
  -10    6   18     -0.55      0.00
   -8    6   18     -2.04      0.00
   -6    6   18     -1.72      0.00
   -4    6   18      0.49      0.00
   -2    6   18     -0.01      0.00
    0    6   18     -0.65      0.00
    2    6   18     -0.30      0.00
    4    6   18     -0.10      0.00
  -17    7   18      0.36      0.00
  -15    7   18     -0.38      0.00
  -13    7   18      1.07      0.00
  -11    7   18      1.45      0.00
   -9    7   18      1.61      0.00
   -7    7   18      2.37      0.00
   -5    7   18      0.43      0.00
   -3    7   18     -0.86      0.00
   -1    7   18      0.46      0.00
    1    7   18      0.22      0.00
    3    7   18      0.27      0.00
  -14    8   18     -0.32      0.00
  -12    8   18     -0.99      0.00
  -10    8   18     -1.42      0.00
   -8    8   18     -1.62      0.00
   -6    8   18     -1.72      0.00
   -4    8   18     -0.46      0.00
   -2    8   18     -0.59      0.00
    0    8   18     -0.69      0.00
   -7    9   18      0.85      0.00
   -5    9   18      1.24      0.00
  -21    1   19     -0.46      0.00
  -19    1   19     -0.52      0.00
  -17    1   19     -0.33      0.00
  -15    1   19     -0.12      0.00
  -13    1   19     -0.28      0.00
  -11    1   19      0.60      0.00
   -9    1   19      1.60      0.00
   -7    1   19      0.74      0.00
   -5    1   19      0.05      0.00
   -3    1   19     -0.21      0.00
   -1    1   19      0.16      0.00
    1    1   19      0.04      0.00
    3    1   19     -0.96      0.00
    5    1   19     -0.34      0.00
    7    1   19     -0.10      0.00
  -22    2   19      0.61      0.00
  -20    2   19      0.51      0.00
  -18    2   19      0.52      0.00
  -16    2   19      0.11      0.00
  -14    2   19      0.18      0.00
  -12    2   19      0.22      0.00
  -10    2   19     -1.10      0.00
   -8    2   19     -1.41      0.00
   -6    2   19     -0.41      0.00
   -4    2   19      0.14      0.00
   -2    2   19      0.50      0.00
    0    2   19      0.00      0.00
    2    2   19      1.12      0.00
    4    2   19      1.14      0.00
    6    2   19      0.06      0.00
  -21    3   19     -0.08      0.00
  -19    3   19     -0.08      0.00
  -17    3   19     -0.13      0.00
  -15    3   19      0.11      0.00
  -13    3   19      0.07      0.00
  -11    3   19      0.05      0.00
   -9    3   19      0.88      0.00
   -7    3   19      1.21      0.00
   -5    3   19      0.56      0.00
   -3    3   19     -0.68      0.00
   -1    3   19     -0.98      0.00
    1    3   19     -1.17      0.00
    3    3   19     -1.41      0.00
    5    3   19     -0.04      0.00
    7    3   19      0.30      0.00
  -20    4   19     -0.04      0.00
  -18    4   19      0.33      0.00
  -16    4   19      0.52      0.00
  -14    4   19     -0.05      0.00
  -12    4   19     -0.36      0.00
  -10    4   19     -0.43      0.00
   -8    4   19     -1.67      0.00
   -6    4   19     -2.17      0.00
   -4    4   19     -0.17      0.00
   -2    4   19      1.28      0.00
    0    4   19      1.67      0.00
    2    4   19      1.76      0.00
    4    4   19      0.46      0.00
    6    4   19     -0.37      0.00
  -19    5   19      0.64      0.00
  -17    5   19     -0.01      0.00
  -15    5   19      0.18      0.00
  -13    5   19      0.72      0.00
  -11    5   19      1.40      0.00
   -9    5   19      2.07      0.00
   -7    5   19      3.85      0.00
   -5    5   19      2.72      0.00
   -3    5   19      0.09      0.00
   -1    5   19     -0.34      0.00
    1    5   19     -0.98      0.00
    3    5   19     -0.50      0.00
    5    5   19      0.63      0.00
  -18    6   19      0.85      0.00
  -16    6   19      0.64      0.00
  -14    6   19      0.53      0.00
  -12    6   19     -0.23      0.00
  -10    6   19     -1.31      0.00
   -8    6   19     -1.84      0.00
   -6    6   19     -2.51      0.00
   -4    6   19      0.16      0.00
   -2    6   19      0.92      0.00
    0    6   19      0.36      0.00
    2    6   19      1.02      0.00
  -15    7   19      0.75      0.00
  -13    7   19      0.14      0.00
  -11    7   19      1.45      0.00
   -9    7   19      1.19      0.00
   -7    7   19      0.98      0.00
   -5    7   19      0.44      0.00
   -3    7   19     -1.19      0.00
   -1    7   19      0.44      0.00
    1    7   19      0.87      0.00
  -12    8   19      0.20      0.00
  -10    8   19     -0.46      0.00
   -8    8   19      0.85      0.00
   -6    8   19      0.69      0.00
   -4    8   19      1.11      0.00
   -2    8   19      0.96      0.00
  -20    0   20     -0.04      0.00
  -18    0   20      0.14      0.00
  -16    0   20      0.48      0.00
  -14    0   20      3.03      0.00
  -12    0   20      1.98      0.00
  -10    0   20     -0.61      0.00
   -8    0   20     -0.43      0.00
   -6    0   20     -0.30      0.00
   -4    0   20      1.22      0.00
   -2    0   20      3.44      0.00
    0    0   20      2.95      0.00
    2    0   20      1.32      0.00
    4    0   20      0.26      0.00
    6    0   20      0.45      0.00
  -21    1   20      0.65      0.00
  -19    1   20      0.11      0.00
  -17    1   20      0.13      0.00
  -15    1   20     -1.55      0.00
  -13    1   20     -2.32      0.00
  -11    1   20      0.23      0.00
   -9    1   20      1.15      0.00
   -7    1   20      0.67      0.00
   -5    1   20     -0.10      0.00
   -3    1   20     -2.03      0.00
   -1    1   20     -2.63      0.00
    1    1   20     -1.71      0.00
    3    1   20     -0.49      0.00
    5    1   20     -0.08      0.00
  -20    2   20     -0.45      0.00
  -18    2   20     -0.51      0.00
  -16    2   20      0.35      0.00
  -14    2   20      1.34      0.00
  -12    2   20     -0.13      0.00
  -10    2   20     -1.46      0.00
   -8    2   20     -1.52      0.00
   -6    2   20     -0.91      0.00
   -4    2   20      0.32      0.00
   -2    2   20      0.77      0.00
    0    2   20      1.11      0.00
    2    2   20      1.22      0.00
    4    2   20      0.81      0.00
    6    2   20      0.39      0.00
  -19    3   20      0.83      0.00
  -17    3   20      0.41      0.00
  -15    3   20     -0.71      0.00
  -13    3   20     -0.12      0.00
  -11    3   20      1.10      0.00
   -9    3   20      1.11      0.00
   -7    3   20      1.57      0.00
   -5    3   20      0.75      0.00
   -3    3   20      0.65      0.00
   -1    3   20      0.77      0.00
    1    3   20     -0.07      0.00
    3    3   20     -0.32      0.00
    5    3   20     -0.16      0.00
  -20    4   20     -0.01      0.00
  -18    4   20     -0.28      0.00
  -16    4   20      0.22      0.00
  -14    4   20      1.10      0.00
  -12    4   20      0.06      0.00
  -10    4   20      0.41      0.00
   -8    4   20      0.65      0.00
   -6    4   20     -0.06      0.00
   -4    4   20      0.39      0.00
   -2    4   20     -0.03      0.00
    0    4   20      0.04      0.00
    2    4   20      0.16      0.00
    4    4   20      0.06      0.00
  -17    5   20      0.81      0.00
  -15    5   20     -0.07      0.00
  -13    5   20     -0.74      0.00
  -11    5   20      0.12      0.00
   -9    5   20     -1.32      0.00
   -7    5   20     -0.61      0.00
   -5    5   20      0.49      0.00
   -3    5   20      0.04      0.00
   -1    5   20      0.32      0.00
    1    5   20      0.56      0.00
    3    5   20      0.76      0.00
  -16    6   20     -1.20      0.00
  -14    6   20      0.64      0.00
  -12    6   20      0.32      0.00
  -10    6   20      0.39      0.00
   -8    6   20      1.45      0.00
   -6    6   20     -0.41      0.00
   -4    6   20     -0.58      0.00
   -2    6   20      0.45      0.00
    0    6   20      0.08      0.00
    2    6   20      0.16      0.00
  -13    7   20     -1.17      0.00
  -11    7   20     -0.74      0.00
   -9    7   20     -1.34      0.00
   -7    7   20     -0.93      0.00
   -5    7   20      0.67      0.00
   -3    7   20     -0.28      0.00
   -1    7   20     -0.43      0.00
  -10    8   20      0.73      0.00
   -8    8   20      0.95      0.00
   -6    8   20      0.38      0.00
  -21    1   21      0.03      0.00
  -19    1   21     -0.33      0.00
  -17    1   21     -0.71      0.00
  -15    1   21     -0.56      0.00
  -13    1   21     -1.11      0.00
  -11    1   21     -2.12      0.00
   -9    1   21     -1.40      0.00
   -7    1   21     -0.34      0.00
   -5    1   21     -0.17      0.00
   -3    1   21     -0.12      0.00
   -1    1   21      0.12      0.00
    1    1   21      1.06      0.00
    3    1   21      0.99      0.00
    5    1   21      0.18      0.00
  -20    2   21     -0.43      0.00
  -18    2   21      0.09      0.00
  -16    2   21      0.31      0.00
  -14    2   21      0.29      0.00
  -12    2   21      1.23      0.00
  -10    2   21      1.89      0.00
   -8    2   21      1.16      0.00
   -6    2   21      0.66      0.00
   -4    2   21      0.22      0.00
   -2    2   21     -0.12      0.00
    0    2   21     -0.92      0.00
    2    2   21     -1.47      0.00
    4    2   21     -0.55      0.00
  -19    3   21      0.32      0.00
  -17    3   21      0.13      0.00
  -15    3   21     -0.09      0.00
  -13    3   21      0.23      0.00
  -11    3   21      0.00      0.00
   -9    3   21     -0.88      0.00
   -7    3   21     -0.88      0.00
   -5    3   21      0.14      0.00
   -3    3   21      0.87      0.00
   -1    3   21      1.05      0.00
    1    3   21      0.99      0.00
    3    3   21      0.35      0.00
  -18    4   21     -0.96      0.00
  -16    4   21     -0.60      0.00
  -14    4   21     -0.24      0.00
  -12    4   21     -0.70      0.00
  -10    4   21      0.15      0.00
   -8    4   21      1.57      0.00
   -6    4   21      0.27      0.00
   -4    4   21     -1.41      0.00
   -2    4   21     -1.47      0.00
    0    4   21     -1.07      0.00
    2    4   21     -0.16      0.00
  -17    5   21      0.11      0.00
  -15    5   21     -0.64      0.00
  -13    5   21     -1.03      0.00
  -11    5   21     -1.43      0.00
   -9    5   21     -2.64      0.00
   -7    5   21     -2.55      0.00
   -5    5   21      0.16      0.00
   -3    5   21      0.61      0.00
   -1    5   21      0.19      0.00
    1    5   21     -0.01      0.00
  -16    6   21     -0.17      0.00
  -14    6   21     -0.12      0.00
  -12    6   21      0.82      0.00
  -10    6   21      0.93      0.00
   -8    6   21      1.17      0.00
   -6    6   21     -0.17      0.00
   -4    6   21     -1.63      0.00
   -2    6   21     -0.28      0.00
    0    6   21     -0.17      0.00
  -13    7   21     -0.18      0.00
  -11    7   21     -0.73      0.00
   -9    7   21      0.23      0.00
   -7    7   21     -0.16      0.00
   -5    7   21      0.70      0.00
   -3    7   21      0.12      0.00
  -20    0   22     -0.61      0.00
  -18    0   22     -0.16      0.00
  -16    0   22     -1.64      0.00
  -14    0   22     -2.87      0.00
  -12    0   22     -0.57      0.00
  -10    0   22      0.27      0.00
   -8    0   22     -0.02      0.00
   -6    0   22     -0.46      0.00
   -4    0   22     -1.65      0.00
   -2    0   22     -1.60      0.00
    0    0   22     -0.26      0.00
    2    0   22      0.42      0.00
    4    0   22     -0.14      0.00
  -19    1   22     -0.57      0.00
  -17    1   22     -0.18      0.00
  -15    1   22      1.47      0.00
  -13    1   22      0.45      0.00
  -11    1   22     -1.26      0.00
   -9    1   22     -0.95      0.00
   -7    1   22     -0.43      0.00
   -5    1   22      0.63      0.00
   -3    1   22      1.29      0.00
   -1    1   22      0.83      0.00
    1    1   22     -0.13      0.00
    3    1   22     -0.17      0.00
  -20    2   22      1.20      0.00
  -18    2   22      0.91      0.00
  -16    2   22      0.07      0.00
  -14    2   22      0.49      0.00
  -12    2   22      2.01      0.00
  -10    2   22      2.02      0.00
   -8    2   22      1.56      0.00
   -6    2   22      0.61      0.00
   -4    2   22     -0.14      0.00
   -2    2   22     -0.59      0.00
    0    2   22     -0.77      0.00
    2    2   22     -0.53      0.00
  -19    3   22     -1.02      0.00
  -17    3   22     -0.39      0.00
  -15    3   22     -0.52      0.00
  -13    3   22     -1.95      0.00
  -11    3   22     -2.06      0.00
   -9    3   22     -1.94      0.00
   -7    3   22     -1.98      0.00
   -5    3   22     -1.12      0.00
   -3    3   22     -0.71      0.00
   -1    3   22     -0.03      0.00
    1    3   22      0.18      0.00
  -18    4   22      0.38      0.00
  -16    4   22     -0.14      0.00
  -14    4   22      0.14      0.00
  -12    4   22      0.61      0.00
  -10    4   22     -0.54      0.00
   -8    4   22      0.23      0.00
   -6    4   22      0.51      0.00
   -4    4   22     -0.07      0.00
   -2    4   22      0.05      0.00
    0    4   22      0.08      0.00
  -15    5   22      0.37      0.00
  -13    5   22     -0.22      0.00
  -11    5   22      0.31      0.00
   -9    5   22      1.08      0.00
   -7    5   22     -0.63      0.00
   -5    5   22     -0.41      0.00
   -3    5   22     -0.22      0.00
   -1    5   22     -0.73      0.00
  -14    6   22     -0.16      0.00
  -12    6   22      0.82      0.00
  -10    6   22     -0.38      0.00
   -8    6   22      0.00      0.00
   -6    6   22      0.98      0.00
   -4    6   22     -0.07      0.00
  -19    1   23      1.04      0.00
  -17    1   23      0.86      0.00
  -15    1   23      1.09      0.00
  -13    1   23      2.42      0.00
  -11    1   23      2.22      0.00
   -9    1   23      0.89      0.00
   -7    1   23      0.46      0.00
   -5    1   23      0.22      0.00
   -3    1   23     -0.29      0.00
   -1    1   23     -0.92      0.00
    1    1   23     -0.97      0.00
  -18    2   23     -0.15      0.00
  -16    2   23      0.04      0.00
  -14    2   23     -0.88      0.00
  -12    2   23     -1.95      0.00
  -10    2   23     -1.51      0.00
   -8    2   23     -0.91      0.00
   -6    2   23     -0.45      0.00
   -4    2   23      0.27      0.00
   -2    2   23      1.03      0.00
    0    2   23      1.15      0.00
  -17    3   23     -0.20      0.00
  -15    3   23     -0.11      0.00
  -13    3   23     -0.18      0.00
  -11    3   23      0.45      0.00
   -9    3   23      1.00      0.00
   -7    3   23      0.29      0.00
   -5    3   23     -0.53      0.00
   -3    3   23     -0.87      0.00
   -1    3   23     -0.55      0.00
    1    3   23      0.11      0.00
  -16    4   23     -0.03      0.00
  -14    4   23      0.50      0.00
  -12    4   23      0.77      0.00
  -10    4   23     -0.57      0.00
   -8    4   23     -0.36      0.00
   -6    4   23      1.25      0.00
   -4    4   23      1.17      0.00
   -2    4   23      0.65      0.00
  -15    5   23      1.17      0.00
  -13    5   23      0.99      0.00
  -11    5   23      1.44      0.00
   -9    5   23      1.80      0.00
   -7    5   23      0.00      0.00
   -5    5   23     -0.73      0.00
   -3    5   23      0.26      0.00
  -10    6   23     -0.34      0.00
   -8    6   23      0.17      0.00
   -6    6   23      1.48      0.00
  -18    0   24      0.49      0.00
  -16    0   24      2.09      0.00
  -14    0   24      1.50      0.00
  -12    0   24      0.19      0.00
  -10    0   24      0.34      0.00
   -8    0   24      0.41      0.00
   -6    0   24      0.86      0.00
   -4    0   24      0.86      0.00
   -2    0   24      0.16      0.00
    0    0   24     -0.62      0.00
  -17    1   24     -0.18      0.00
  -15    1   24     -0.56      0.00
  -13    1   24      0.95      0.00
  -11    1   24      1.17      0.00
   -9    1   24      0.80      0.00
   -7    1   24      0.25      0.00
   -5    1   24     -0.24      0.00
   -3    1   24     -0.24      0.00
   -1    1   24      0.41      0.00
  -16    2   24     -0.53      0.00
  -14    2   24     -1.71      0.00
  -12    2   24     -2.27      0.00
  -10    2   24     -1.70      0.00
   -8    2   24     -1.02      0.00
   -6    2   24     -0.10      0.00
   -4    2   24      0.45      0.00
   -2    2   24      0.59      0.00
  -15    3   24      1.35      0.00
  -13    3   24      2.28      0.00
  -11    3   24      1.90      0.00
   -9    3   24      1.96      0.00
   -7    3   24      1.38      0.00
   -5    3   24      0.35      0.00
   -3    3   24     -0.09      0.00
  -14    4   24     -0.86      0.00
  -12    4   24     -0.32      0.00
  -10    4   24      0.01      0.00
   -8    4   24     -0.96      0.00
   -6    4   24     -0.18      0.00
   -4    4   24      0.23      0.00
  -11    5   24     -0.78      0.00
   -9    5   24      0.12      0.00
   -7    5   24      0.87      0.00
  -15    1   25     -1.64      0.00
  -13    1   25     -2.38      0.00
  -11    1   25     -1.12      0.00
   -9    1   25     -0.35      0.00
   -7    1   25     -0.25      0.00
   -5    1   25      0.06      0.00
   -3    1   25      0.50      0.00
  -16    2   25      0.01      0.00
  -14    2   25      1.53      0.00
  -12    2   25      1.38      0.00
  -10    2   25      0.49      0.00
   -8    2   25      0.05      0.00
   -6    2   25     -0.34      0.00
   -4    2   25     -0.85      0.00
  -13    3   25     -0.34      0.00
  -11    3   25     -0.72      0.00
   -9    3   25     -0.41      0.00
   -7    3   25      0.35      0.00
   -5    3   25      0.50      0.00
  -12    4   25     -0.10      0.00
  -10    4   25      0.45      0.00
   -8    4   25     -0.66      0.00
  -14    0   26     -0.34      0.00
  -12    0   26     -0.39      0.00
  -10    0   26     -0.29      0.00
   -8    0   26     -0.46      0.00
   -6    0   26     -0.71      0.00
  -13    1   26     -0.91      0.00
  -11    1   26     -0.71      0.00
   -9    1   26     -0.63      0.00
   -7    1   26     -0.22      0.00
  -12    2   26      1.33      0.00
  -10    2   26      0.83      0.00
   -8    2   26      0.25      0.00
    2    0    0     58.23      0.00
    4    0    0     26.00      0.00
   22    0    0      0.57      0.00
    1    1    0    -56.79      0.00
    0    2    0     25.66      0.00
    2    2    0     13.29      0.00
    4    2    0      2.88      0.00
   15    9    0      0.32      0.00
    6   12    0      0.16      0.00
  -22    2    1     -0.45      0.00
    2    2    1     15.50      0.00
   21    3    1     -0.01      0.00
   15    9    1     -0.71      0.00
  -11   11    1     -0.03      0.00
   -6   12    1      0.22      0.00
    6   12    1      0.05      0.00
   -4    0    2    -41.76      0.00
    0    0    2    -68.20      0.00
    2    0    2    -23.34      0.00
    6    0    2     10.59      0.00
   -3    1    2     39.91      0.00
    1    1    2     26.58      0.00
   21    1    2      0.57      0.00
   -2    2    2    -21.89      0.00
    0    2    2    -17.88      0.00
   20    4    2     -0.02      0.00
  -21    5    2     -0.26      0.00
  -20    6    2      0.33      0.00
  -19    7    2      0.06      0.00
   16    8    2      0.80      0.00
  -14   10    2      0.50      0.00
   12   10    2      0.43      0.00
  -11   11    2     -0.29      0.00
    9   11    2     -0.08      0.00
   -6   12    2     -0.10      0.00
    4   12    2     -0.09      0.00
  -23    1    3      0.00      0.00
  -21    5    3      0.65      0.00
   19    5    3      0.29      0.00
  -20    6    3     -0.16      0.00
   18    6    3     -0.13      0.00
  -19    7    3     -0.63      0.00
   17    7    3      1.10      0.00
  -18    8    3      0.65      0.00
  -14   10    3      0.94      0.00
   12   10    3      0.14      0.00
  -11   11    3      0.54      0.00
    9   11    3      0.15      0.00
   -6   12    3     -0.56      0.00
    4   12    3      0.15      0.00
   -4    0    4     45.03      0.00
   -2    0    4     58.90      0.00
    0    0    4     22.67      0.00
    6    0    4    -13.19      0.00
   20    0    4      0.21      0.00
  -23    1    4     -0.18      0.00
   -5    1    4    -23.67      0.00
   20    2    4      0.53      0.00
  -22    4    4     -0.44      0.00
   -3    5    4      4.29      0.00
  -18    8    4      0.59      0.00
   13    9    4      0.31      0.00
  -14   10    4     -0.94      0.00
  -11   11    4      0.16      0.00
   -6   12    4      0.03      0.00
    4   12    4      0.34      0.00
   19    3    5      0.02      0.00
  -22    4    5      0.76      0.00
  -18    8    5     -1.03      0.00
   13    9    5     -0.01      0.00
  -14   10    5     -1.15      0.00
  -11   11    5     -1.09      0.00
    7   11    5      0.07      0.00
   -6   12    5      0.58      0.00
    2   12    5     -0.02      0.00
   -6    0    6    -20.33      0.00
   -4    0    6    -34.77      0.00
   -2    0    6    -22.16      0.00
    6    0    6      6.83      0.00
    3    1    6    -13.31      0.00
   19    1    6      0.01      0.00
    2    2    6     16.77      0.00
  -23    3    6      0.31      0.00
   18    4    6      0.00      0.00
   17    5    6     -0.52      0.00
   15    7    6      0.15      0.00
   14    8    6      0.51      0.00
  -14   10    6      1.02      0.00
   10   10    6     -0.05      0.00
  -11   11    6      0.14      0.00
    7   11    6     -0.28      0.00
   -6   12    6     -0.15      0.00
   -4   12    6     -0.30      0.00
   -2   12    6     -0.40      0.00
    0   12    6      0.10      0.00
    2   12    6      0.08      0.00
  -23    3    7      0.03      0.00
  -14   10    7      0.78      0.00
  -11   11    7      0.96      0.00
   -4   12    7      1.04      0.00
   -2   12    7      0.46      0.00
    0   12    7     -0.10      0.00
    0    0    8     -7.06      0.00
   18    0    8     -0.27      0.00
  -14   10    8     -0.53      0.00
    8   10    8      0.10      0.00
  -11   11    8      0.23      0.00
    5   11    8      0.44      0.00
   16    4    9      0.20      0.00
   13    7    9      0.48      0.00
   12    8    9     -0.21      0.00
  -14   10    9      0.02      0.00
  -11   11    9      0.10      0.00
    9    9   10      0.15      0.00
  -14   10   10      0.29      0.00
    6   10   10     -0.04      0.00
    3   11   10     -0.45      0.00
   15    3   11      0.02      0.00
  -18    8   11      0.95      0.00
   10    8   11      0.19      0.00
  -14   10   11     -0.16      0.00
   -9   11   11     -0.78      0.00
    1   11   11     -0.50      0.00
   15    1   12      0.43      0.00
   14    4   12      0.09      0.00
   13    5   12     -0.01      0.00
   12    6   12      0.41      0.00
   11    7   12     -0.38      0.00
  -18    8   12     -0.56      0.00
    7    9   12     -0.34      0.00
    4   10   12     -0.01      0.00
   -7   11   12     -0.11      0.00
   -5   11   12     -0.08      0.00
   -3   11   12      0.07      0.00
   -1   11   12     -0.40      0.00
   14    2   13     -0.14      0.00
  -18    8   13     -0.52      0.00
    8    8   13     -0.10      0.00
  -12   10   13     -0.47      0.00
   -5   11   13     -0.17      0.00
  -23    3   14     -0.14      0.00
   12    4   14     -0.31      0.00
   10    6   14     -0.24      0.00
    9    7   14      0.30      0.00
  -15    9   14      0.21      0.00
    5    9   14      0.25      0.00
  -12   10   14     -0.11      0.00
  -23    3   15     -0.19      0.00
  -19    7   15     -0.04      0.00
    6    8   15      0.13      0.00
  -15    9   15     -0.04      0.00
    3    9   15      0.74      0.00
  -10   10   15      0.06      0.00
   -2   10   15     -0.14      0.00
  -23    3   16      0.33      0.00
   11    3   16     -0.07      0.00
  -22    4   16     -0.18      0.00
   10    4   16      0.52      0.00
  -20    6   16     -0.08      0.00
    8    6   16      0.08      0.00
   -8   10   16      0.34      0.00
   -6   10   16     -0.05      0.00
   -4   10   16      0.63      0.00
  -23    1   17     -0.20      0.00
  -22    4   17     -0.41      0.00
  -21    5   17     -0.33      0.00
  -20    6   17     -0.03      0.00
    5    7   17     -0.09      0.00
  -16    8   17     -0.62      0.00
  -13    9   17     -0.23      0.00
   -1    9   17      0.45      0.00
  -23    1   18     -0.08      0.00
    8    4   18     -0.51      0.00
    7    5   18     -0.33      0.00
    6    6   18      0.00      0.00
  -11    9   18      0.82      0.00
   -9    9   18      1.01      0.00
   -3    9   18      0.59      0.00
    8    2   19      0.33      0.00
    4    6   19      0.35      0.00
  -17    7   19     -0.10      0.00
  -14    8   19     -0.07      0.00
    0    8   19     -0.67      0.00
  -22    0   20     -0.64      0.00
    7    1   20     -0.02      0.00
  -22    2   20      0.03      0.00
  -21    3   20      0.04      0.00
  -19    5   20      0.03      0.00
  -18    6   20     -0.32      0.00
  -15    7   20      0.00      0.00
  -12    8   20      0.47      0.00
   -4    8   20     -0.01      0.00
    5    3   21     -0.22      0.00
  -20    4   21     -0.37      0.00
    4    4   21      0.19      0.00
    3    5   21     -0.35      0.00
  -21    1   22     -0.46      0.00
    4    2   22     -0.24      0.00
    3    3   22      0.03      0.00
    2    4   22      0.31      0.00
  -17    5   22     -0.86      0.00
    1    5   22     -0.63      0.00
   -2    6   22      0.24      0.00
  -11    7   22      0.17      0.00
   -9    7   22      0.86      0.00
   -7    7   22     -0.02      0.00
   -5    7   22      0.11      0.00
    3    1   23     -0.40      0.00
    2    2   23      0.69      0.00
  -19    3   23     -0.46      0.00
  -18    4   23      0.74      0.00
    0    4   23     -0.19      0.00
   -1    5   23      0.39      0.00
  -12    6   23     -0.68      0.00
   -4    6   23      0.58      0.00
  -19    1   24      0.62      0.00
    1    1   24      0.47      0.00
  -18    2   24     -0.60      0.00
    0    2   24      0.17      0.00
  -17    3   24      0.33      0.00
   -1    3   24      0.08      0.00
  -16    4   24     -0.24      0.00
   -2    4   24     -0.23      0.00
  -13    5   24      0.42      0.00
   -5    5   24      0.01      0.00
  -17    1   25     -0.39      0.00
   -1    1   25      0.50      0.00
   -2    2   25     -0.76      0.00
  -15    3   25     -0.12      0.00
   -3    3   25      0.35      0.00
  -14    4   25     -0.54      0.00
   -6    4   25     -0.83      0.00
  -16    0   26     -1.17      0.00
   -4    0   26     -0.56      0.00
  -15    1   26     -0.34      0.00
   -5    1   26      0.01      0.00
  -14    2   26      1.57      0.00
   -6    2   26     -0.27      0.00
  -13    3   26     -1.32      0.00
  -11    3   26     -0.95      0.00
   -9    3   26     -0.89      0.00
   -7    3   26     -0.19      0.00
    0    0    0      0.00      0.00
loop_
  _platon_squeeze_void_nr
  _platon_squeeze_void_average_x
  _platon_squeeze_void_average_y
  _platon_squeeze_void_average_z
  _platon_squeeze_void_volume
  _platon_squeeze_void_count_electrons
  _platon_squeeze_void_content
   1  0.000  0.392  0.250       223        23 ' '
   2  0.000 -0.392  0.750       223        23 ' '
   3  0.500 -0.108  0.250       223        23 ' '
   4  0.500  0.108  0.750       223        23 ' '
_platon_squeeze_details
(replace by semicolon in column 1 when used as .sqf)
TITL ups2160mscC 1 2/c 1    R = 0.08
CELL   20.8440   10.7320   23.2200     90.00    114.68     90.00
SPGR C2/c
C101 0.434 0.037 0.195 !       1.77 eA-3
C102 0.944 0.421 0.195 !       1.62 eA-3
C103 0.475 0.143 0.743 !       1.32 eA-3
C104 0.487 0.101 0.248 !       0.91 eA-3
C105 0.500 0.469 0.752 !       0.65 eA-3
(replace by semicolon in column 1 when used as .sqf)
;
_shelx_shelxl_version_number     2014/7
_olex2_submission_special_instructions 'No special instructions were received'
loop_
_space_group_symop_operation_xyz
'x, y, z'
'-x, y, -z+1/2'
'x+1/2, y+1/2, z'
'-x+1/2, y+1/2, -z+1/2'
'-x, -y, -z'
'x, -y, z-1/2'
'-x+1/2, -y+1/2, -z'
'x+1/2, -y+1/2, z-1/2'
loop_
_atom_site_label
_atom_site_type_symbol
_atom_site_fract_x
_atom_site_fract_y
_atom_site_fract_z
_atom_site_U_iso_or_equiv
_atom_site_adp_type
_atom_site_occupancy
_atom_site_site_symmetry_order
_atom_site_calc_flag
_atom_site_refinement_flags_posn
_atom_site_refinement_flags_adp
_atom_site_refinement_flags_occupancy
Ni1 Ni 0.0000 0.5000 0.0000 0.0336(3) Uani 1 2 d S T P
N1 N -0.09100(15) 0.4124(3) -0.04424(14) 0.0365(7) Uani 1 1 d . . .
N2 N 0.03319(16) 0.3670(3) 0.06276(14) 0.0407(8) Uani 1 1 d . . .
O0AA O -0.16097(17) -0.2492(3) 0.06287(16) 0.0654(9) Uani 1 1 d . . .
C2 C -0.20643(19) 0.3660(3) -0.11208(17) 0.0394(9) Uani 1 1 d . . .
C9 C 0.0972(2) 0.3573(4) 0.11406(18) 0.0439(10) Uani 1 1 d . . .
C1 C -0.1483(2) 0.4505(4) -0.09801(18) 0.0391(9) Uani 1 1 d . . .
C19 C 0.2180(2) 0.4150(4) 0.19077(18) 0.0462(10) Uani 1 1 d . . .
C0AA C -0.18362(19) 0.2756(3) -0.06683(18) 0.0411(9) Uani 1 1 d . . .
C4 C -0.1121(2) 0.3011(3) -0.02592(18) 0.0399(9) Uani 1 1 d . . .
C14 C -0.1000(2) 0.0035(3) -0.0088(2) 0.0456(10) Uani 1 1 d . . .
H14 H -0.0860 0.0169 -0.0416 0.056 Uiso 1 1 d . . .
C16 C -0.1398(2) -0.1369(4) 0.0494(2) 0.0497(11) Uani 1 1 d . . .
C6 C -0.0015(2) 0.2576(3) 0.06472(18) 0.0426(9) Uani 1 1 d . . .
C13 C -0.09591(19) 0.0994(3) 0.03220(18) 0.0410(9) Uani 1 1 d . . .
C10 C 0.15253(19) 0.4420(4) 0.13278(17) 0.0404(9) Uani 1 1 d . . .
C5 C -0.06931(19) 0.2254(3) 0.02334(18) 0.0405(9) Uani 1 1 d . . .
N3 N -0.3316(2) 0.3569(4) -0.19965(18) 0.0637(11) Uani 1 1 d . . .
C8 C 0.1018(2) 0.2432(4) 0.1475(2) 0.0556(12) Uani 1 1 d . . .
H8 H 0.1400 0.2174 0.1846 0.068 Uiso 1 1 d . . .
C21 C 0.3312(2) 0.3174(4) 0.2434(2) 0.0565(12) Uani 1 1 d . . .
H21 H 0.3660 0.2653 0.2409 0.070 Uiso 1 1 d . . .
C15 C -0.1216(2) -0.1138(4) -0.0002(2) 0.0482(10) Uani 1 1 d . . .
H15 H -0.1247 -0.1785 -0.0281 0.060 Uiso 1 1 d . . .
C18 C -0.1141(2) 0.0758(4) 0.0815(2) 0.0514(11) Uani 1 1 d . . .
H18 H -0.1125 0.1411 0.1091 0.060 Uiso 1 1 d . . .
C17 C -0.1362(2) -0.0393(4) 0.0911(2) 0.0542(11) Uani 1 1 d . . .
H17 H -0.1473 -0.0555 0.1245 0.069 Uiso 1 1 d . . .
C12 C -0.2300(2) 0.1801(4) -0.0625(2) 0.0554(11) Uani 1 1 d . . .
O1AA O 0.39969(18) 0.3596(4) 0.35432(15) 0.0844(12) Uani 1 1 d . . .
C11 C -0.2758(2) 0.3664(4) -0.16269(19) 0.0449(10) Uani 1 1 d . . .
C7 C 0.0425(2) 0.1809(4) 0.1165(2) 0.0550(12) Uani 1 1 d . . .
H7 H 0.0315 0.1030 0.1271 0.068 Uiso 1 1 d . . .
N4 N -0.2715(2) 0.1137(4) -0.0623(2) 0.0855(15) Uani 1 1 d . . .
C20 C 0.2698(2) 0.3386(4) 0.1888(2) 0.0500(11) Uani 1 1 d . . .
H20 H 0.2625 0.2977 0.1517 0.062 Uiso 1 1 d . . .
C23 C 0.2890(3) 0.4470(5) 0.3023(2) 0.0647(13) Uani 1 1 d . . .
H23 H 0.2948 0.4863 0.3402 0.077 Uiso 1 1 d . . .
C24 C 0.2279(2) 0.4698(5) 0.2490(2) 0.0570(12) Uani 1 1 d . . .
H24 H 0.1932 0.5206 0.2513 0.067 Uiso 1 1 d . . .
C22 C 0.3406(2) 0.3730(4) 0.2992(2) 0.0570(12) Uani 1 1 d . . .
C25 C -0.1624(3) -0.3510(4) 0.0241(3) 0.0787(16) Uani 1 1 d . . .
H25A H -0.1919 -0.3302 -0.0193 0.125 Uiso 1 1 d . . .
H25B H -0.1809 -0.4228 0.0362 0.125 Uiso 1 1 d . . .
H25C H -0.1154 -0.3681 0.0283 0.125 Uiso 1 1 d . . .
C26 C 0.4548(3) 0.2871(7) 0.3548(3) 0.098(2) Uani 1 1 d . . .
H26A H 0.4402 0.2011 0.3448 0.149 Uiso 1 1 d . . .
H26B H 0.4949 0.2886 0.3959 0.149 Uiso 1 1 d . . .
H26C H 0.4713 0.3163 0.3236 0.149 Uiso 1 1 d . . .
loop_
_atom_site_aniso_label
_atom_site_aniso_U_11
_atom_site_aniso_U_22
_atom_site_aniso_U_33
_atom_site_aniso_U_23
_atom_site_aniso_U_13
_atom_site_aniso_U_12
Ni1 0.0371(4) 0.0261(4) 0.0331(4) 0.0040(2) 0.0103(3) -0.0059(2)
N1 0.0446(17) 0.0285(16) 0.0343(16) 0.0041(12) 0.0144(14) -0.0058(13)
N2 0.0417(17) 0.0345(17) 0.0384(17) 0.0066(13) 0.0093(14) -0.0076(14)
O0AA 0.084(2) 0.0375(16) 0.087(2) 0.0060(15) 0.0473(19) -0.0169(15)
C2 0.038(2) 0.033(2) 0.041(2) -0.0032(16) 0.0115(17) -0.0103(16)
C9 0.045(2) 0.039(2) 0.041(2) 0.0078(17) 0.0112(18) -0.0050(18)
C1 0.042(2) 0.0308(19) 0.041(2) 0.0019(17) 0.0145(17) -0.0073(17)
C19 0.052(2) 0.042(2) 0.038(2) 0.0088(17) 0.0111(18) -0.0101(19)
C0AA 0.042(2) 0.0307(19) 0.047(2) 0.0030(17) 0.0156(18) -0.0086(17)
C4 0.046(2) 0.031(2) 0.041(2) 0.0026(16) 0.0165(17) -0.0113(17)
C14 0.056(3) 0.040(2) 0.042(2) 0.0051(16) 0.021(2) -0.0053(17)
C16 0.053(2) 0.030(2) 0.062(3) 0.0076(19) 0.020(2) -0.0071(18)
C6 0.047(2) 0.032(2) 0.044(2) 0.0080(16) 0.0141(18) -0.0072(17)
C13 0.038(2) 0.032(2) 0.047(2) 0.0064(17) 0.0120(18) -0.0073(16)
C10 0.040(2) 0.037(2) 0.037(2) 0.0031(17) 0.0090(17) -0.0060(17)
C5 0.046(2) 0.0271(19) 0.047(2) 0.0034(16) 0.0177(18) -0.0085(16)
N3 0.056(2) 0.069(3) 0.053(2) -0.0052(19) 0.009(2) -0.011(2)
C8 0.052(2) 0.052(3) 0.046(2) 0.020(2) 0.0043(19) -0.009(2)
C21 0.050(2) 0.053(3) 0.057(3) 0.011(2) 0.014(2) -0.003(2)
C15 0.056(2) 0.035(2) 0.055(2) -0.0020(19) 0.025(2) -0.0091(19)
C18 0.067(3) 0.031(2) 0.060(3) 0.0008(19) 0.031(2) -0.006(2)
C17 0.067(3) 0.043(2) 0.064(3) 0.007(2) 0.039(2) -0.014(2)
C12 0.047(2) 0.046(2) 0.062(3) 0.011(2) 0.011(2) -0.013(2)
O1AA 0.053(2) 0.118(3) 0.055(2) 0.011(2) -0.0046(16) -0.003(2)
C11 0.046(2) 0.038(2) 0.045(2) 0.0040(17) 0.014(2) -0.0066(18)
C7 0.052(2) 0.039(2) 0.060(3) 0.020(2) 0.010(2) -0.0109(19)
N4 0.058(3) 0.072(3) 0.105(4) 0.032(3) 0.013(2) -0.022(2)
C20 0.049(2) 0.045(2) 0.048(2) 0.0052(18) 0.012(2) -0.0046(19)
C23 0.067(3) 0.077(3) 0.039(2) -0.005(2) 0.012(2) -0.013(3)
C24 0.052(3) 0.061(3) 0.048(3) 0.005(2) 0.011(2) -0.004(2)
C22 0.055(3) 0.062(3) 0.040(2) 0.008(2) 0.006(2) -0.010(2)
C25 0.098(4) 0.036(3) 0.109(4) -0.005(3) 0.051(4) -0.027(3)
C26 0.057(3) 0.130(6) 0.082(4) 0.023(4) 0.002(3) 0.003(4)
loop_
_atom_type_symbol
_atom_type_description
_atom_type_scat_dispersion_real
_atom_type_scat_dispersion_imag
_atom_type_scat_source
C C 0.0030 0.0020 'International Tables Vol C Tables 4.2.6.8 and 6.1.1.4'
H H 0.0000 0.0000 'International Tables Vol C Tables 4.2.6.8 and 6.1.1.4'
N N 0.0060 0.0030 'International Tables Vol C Tables 4.2.6.8 and 6.1.1.4'
Ni Ni 0.3390 1.1120 'International Tables Vol C Tables 4.2.6.8 and 6.1.1.4'
O O 0.0110 0.0060 'International Tables Vol C Tables 4.2.6.8 and 6.1.1.4'
loop_
_geom_angle_atom_site_label_1
_geom_angle_atom_site_label_2
_geom_angle_atom_site_label_3
_geom_angle
_geom_angle_site_symmetry_1
_geom_angle_site_symmetry_3
N1 Ni1 N1 180.0 . 5_565
N2 Ni1 N1 89.77(12) 5_565 .
N2 Ni1 N1 90.23(12) . .
N2 Ni1 N1 90.23(12) 5_565 5_565
N2 Ni1 N1 89.76(12) . 5_565
N2 Ni1 N2 180.0 5_565 .
C1 N1 Ni1 127.5(2) . .
C1 N1 C4 105.4(3) . .
C4 N1 Ni1 127.1(2) . .
C9 N2 Ni1 128.1(2) . .
C9 N2 C6 103.8(3) . .
C6 N2 Ni1 128.0(2) . .
C16 O0AA C25 117.4(4) . .
C0AA C2 C1 106.5(3) . .
C0AA C2 C11 122.9(3) . .
C11 C2 C1 130.6(3) . .
N2 C9 C10 127.0(3) . .
N2 C9 C8 110.9(3) . .
C10 C9 C8 122.1(4) . .
N1 C1 C2 110.3(3) . .
N1 C1 C10 126.3(3) . 5_565
C10 C1 C2 123.3(3) 5_565 .
C20 C19 C10 121.4(4) . .
C20 C19 C24 118.7(4) . .
C24 C19 C10 119.9(4) . .
C2 C0AA C4 108.0(3) . .
C2 C0AA C12 122.2(3) . .
C4 C0AA C12 129.6(3) . .
N1 C4 C0AA 109.7(3) . .
C5 C4 N1 125.3(3) . .
C5 C4 C0AA 125.0(3) . .
C13 C14 H14 119.8(4) . .
C13 C14 C15 120.8(4) . .
C15 C14 H14 119.3(4) . .
O0AA C16 C15 125.5(4) . .
O0AA C16 C17 115.4(4) . .
C15 C16 C17 119.1(4) . .
N2 C6 C7 110.7(3) . .
C5 C6 N2 125.7(3) . .
C5 C6 C7 123.5(3) . .
C14 C13 C5 119.7(3) . .
C18 C13 C14 118.6(3) . .
C18 C13 C5 121.6(4) . .
C9 C10 C1 121.2(3) . 5_565
C9 C10 C19 118.8(3) . .
C1 C10 C19 119.9(3) 5_565 .
C4 C5 C13 119.6(3) . .
C6 C5 C4 123.2(3) . .
C6 C5 C13 117.2(3) . .
C9 C8 H8 126.1(4) . .
C7 C8 C9 107.6(4) . .
C7 C8 H8 126.3(4) . .
C20 C21 H21 118.7(5) . .
C22 C21 H21 120.8(4) . .
C22 C21 C20 120.5(4) . .
C14 C15 H15 120.7(4) . .
C16 C15 C14 120.4(4) . .
C16 C15 H15 118.9(4) . .
C13 C18 H18 119.2(4) . .
C17 C18 C13 122.0(4) . .
C17 C18 H18 118.8(4) . .
C16 C17 H17 118.9(4) . .
C18 C17 C16 119.1(4) . .
C18 C17 H17 122.0(5) . .
N4 C12 C0AA 173.0(5) . .
C22 O1AA C26 119.3(5) . .
N3 C11 C2 173.2(4) . .
C6 C7 H7 126.8(4) . .
C8 C7 C6 107.0(3) . .
C8 C7 H7 126.2(4) . .
C19 C20 C21 120.1(4) . .
C19 C20 H20 119.4(4) . .
C21 C20 H20 120.3(4) . .
C24 C23 H23 118.2(6) . .
C22 C23 H23 121.0(5) . .
C22 C23 C24 120.7(4) . .
C19 C24 H24 119.8(4) . .
C23 C24 C19 120.0(5) . .
C23 C24 H24 120.3(5) . .
C21 C22 C23 120.0(4) . .
O1AA C22 C21 124.2(5) . .
O1AA C22 C23 115.9(4) . .
O0AA C25 H25A 108.9(5) . .
O0AA C25 H25B 109.9(5) . .
O0AA C25 H25C 109.5(5) . .
H25A C25 H25B 109.6(5) . .
H25A C25 H25C 109.3(6) . .
H25B C25 H25C 109.6(5) . .
O1AA C26 H26A 110.9(5) . .
O1AA C26 H26B 111.8(7) . .
O1AA C26 H26C 111.3(6) . .
H26A C26 H26B 107.8(6) . .
H26A C26 H26C 107.5(7) . .
H26B C26 H26C 107.4(6) . .
loop_
_geom_bond_atom_site_label_1
_geom_bond_atom_site_label_2
_geom_bond_distance
_geom_bond_site_symmetry_2
Ni1 N1 1.977(3) 5_565
Ni1 N1 1.977(3) .
Ni1 N2 1.949(3) 5_565
Ni1 N2 1.949(3) .
N1 C1 1.381(5) .
N1 C4 1.398(4) .
N2 C9 1.372(5) .
N2 C6 1.390(4) .
O0AA C16 1.365(5) .
O0AA C25 1.408(6) .
C2 C1 1.438(5) .
C2 C0AA 1.362(5) .
C2 C11 1.433(5) .
C9 C10 1.388(5) .
C9 C8 1.431(6) .
C1 C10 1.390(6) 5_565
C19 C10 1.491(5) .
C19 C20 1.373(6) .
C19 C24 1.408(6) .
C0AA C4 1.421(5) .
C0AA C12 1.441(5) .
C4 C5 1.383(5) .
C14 H14 0.935(4) .
C14 C13 1.379(6) .
C14 C15 1.379(5) .
C16 C15 1.376(6) .
C16 C17 1.407(6) .
C6 C5 1.380(5) .
C6 C7 1.429(5) .
C13 C5 1.508(5) .
C13 C18 1.372(6) .
C10 C1 1.390(6) 5_565
N3 C11 1.126(5) .
C8 H8 0.939(4) .
C8 C7 1.323(6) .
C21 H21 0.938(5) .
C21 C20 1.394(6) .
C21 C22 1.364(6) .
C15 H15 0.934(4) .
C18 H18 0.940(4) .
C18 C17 1.368(6) .
C17 H17 0.915(4) .
C12 N4 1.123(5) .
O1AA C22 1.363(5) .
O1AA C26 1.383(7) .
C7 H7 0.927(4) .
C20 H20 0.920(4) .
C23 H23 0.937(5) .
C23 C24 1.377(6) .
C23 C22 1.364(7) .
C24 H24 0.925(5) .
C25 H25A 0.962(6) .
C25 H25B 0.955(5) .
C25 H25C 0.961(6) .
C26 H26A 0.970(8) .
C26 H26B 0.971(6) .
C26 H26C 0.975(7) .
loop_
_geom_torsion_atom_site_label_1
_geom_torsion_atom_site_label_2
_geom_torsion_atom_site_label_3
_geom_torsion_atom_site_label_4
_geom_torsion
_geom_torsion_site_symmetry_4
Ni1 N1 C1 C2 -175.1(2) .
Ni1 N1 C1 C10 1.6(6) 5_565
Ni1 N1 C4 C0AA 174.3(3) .
Ni1 N1 C4 C5 -7.4(5) .
Ni1 N2 C9 C10 0.6(6) .
Ni1 N2 C9 C8 -178.2(3) .
Ni1 N2 C6 C5 -3.9(6) .
Ni1 N2 C6 C7 176.6(3) .
N1 C4 C5 C6 6.5(6) .
N1 C4 C5 C13 -171.6(3) .
N2 C9 C10 C1 -1.7(7) 5_565
N2 C9 C10 C19 179.3(4) .
N2 C9 C8 C7 1.8(5) .
N2 C6 C5 C4 -0.7(6) .
N2 C6 C5 C13 177.5(4) .
N2 C6 C7 C8 2.5(5) .
O0AA C16 C15 C14 -179.1(4) .
O0AA C16 C17 C18 178.8(4) .
C2 C0AA C4 N1 2.8(4) .
C2 C0AA C4 C5 -175.5(4) .
C9 N2 C6 C5 178.1(4) .
C9 N2 C6 C7 -1.4(5) .
C9 C8 C7 C6 -2.6(5) .
C1 N1 C4 C0AA -3.2(4) .
C1 N1 C4 C5 175.1(4) .
C1 C2 C0AA C4 -1.3(4) .
C1 C2 C0AA C12 174.5(4) .
C0AA C2 C1 N1 -0.7(4) .
C0AA C2 C1 C10 -177.5(4) 5_565
C0AA C4 C5 C6 -175.4(4) .
C0AA C4 C5 C13 6.5(6) .
C4 N1 C1 C2 2.4(4) .
C4 N1 C1 C10 179.0(4) 5_565
C14 C13 C5 C4 73.9(5) .
C14 C13 C5 C6 -104.3(5) .
C14 C13 C18 C17 -0.1(6) .
C6 N2 C9 C10 178.6(4) .
C6 N2 C9 C8 -0.2(4) .
C13 C14 C15 C16 0.4(7) .
C13 C18 C17 C16 0.6(7) .
C10 C9 C8 C7 -177.0(4) .
C10 C19 C20 C21 178.5(4) .
C10 C19 C24 C23 -178.7(4) .
C5 C6 C7 C8 -177.0(4) .
C5 C13 C18 C17 -177.9(4) .
C8 C9 C10 C1 177.0(4) 5_565
C8 C9 C10 C19 -2.0(6) .
C15 C14 C13 C5 177.5(4) .
C15 C14 C13 C18 -0.3(6) .
C15 C16 C17 C18 -0.5(6) .
C18 C13 C5 C4 -108.3(5) .
C18 C13 C5 C6 73.5(5) .
C17 C16 C15 C14 0.1(6) .
C12 C0AA C4 N1 -172.5(4) .
C12 C0AA C4 C5 9.2(7) .
C11 C2 C1 N1 -179.5(4) .
C11 C2 C1 C10 3.7(7) 5_565
C11 C2 C0AA C4 177.6(4) .
C11 C2 C0AA C12 -6.6(6) .
C7 C6 C5 C4 178.7(4) .
C7 C6 C5 C13 -3.1(6) .
C20 C19 C10 C9 83.1(5) .
C20 C19 C10 C1 -95.9(5) 5_565
C20 C19 C24 C23 0.4(7) .
C20 C21 C22 O1AA -178.3(4) .
C20 C21 C22 C23 2.0(7) .
C24 C19 C10 C9 -97.9(5) .
C24 C19 C10 C1 83.2(5) 5_565
C24 C19 C20 C21 -0.6(6) .
C24 C23 C22 C21 -2.2(7) .
C24 C23 C22 O1AA 178.1(4) .
C22 C21 C20 C19 -0.6(6) .
C22 C23 C24 C19 1.0(8) .
C25 O0AA C16 C15 2.0(7) .
C25 O0AA C16 C17 -177.3(4) .
C26 O1AA C22 C21 1.1(7) .
C26 O1AA C22 C23 -179.2(5) .
