#------------------------------------------------------------------------------
#$Date: 2015-10-09 13:28:20 +0300 (Fri, 09 Oct 2015) $
#$Revision: 161632 $
#$URL: svn://www.crystallography.net/cod/cif/7/03/58/7035866.cif $
#------------------------------------------------------------------------------
#
# This file is available in the Crystallography Open Database (COD),
# http://www.crystallography.net/
#
# All data on this site have been placed in the public domain by the
# contributors.
#
data_7035866
loop_
_publ_author_name
'Pushkarev, Victor E.'
'Kalashnikov, Valery V.'
'Tolbin, Alexander Yu'
'Trashin, Stanislav A.'
'Borisova, Nataliya E.'
'Simonov, Sergey V.'
'Rybakov, Victor B.'
'Tomilova, Larisa G.'
'Zefirov, Nikolay S.'
_publ_section_title
;
 meso-Phenyltetrabenzotriazaporphyrin based double-decker lanthanide(iii)
 complexes: synthesis, structure, spectral properties and
 electrochemistry.
;
_journal_issue                   37
_journal_name_full
'Dalton transactions (Cambridge, England : 2003)'
_journal_page_first              16553
_journal_page_last               16564
_journal_paper_doi               10.1039/c5dt01933h
_journal_volume                  44
_journal_year                    2015
_chemical_formula_moiety         'C78 H42 Eu N14'
_chemical_formula_sum            'C78 H42 Eu N14'
_chemical_formula_weight         1327.21
_chemical_name_systematic
; 
 Bis[27--phenyltetrabenzo[b,g,l,q][5,10,15]triazaporphyrinato] europium(III)
;
_space_group_crystal_system      monoclinic
_space_group_IT_number           14
_space_group_name_Hall           '-P 2ybc'
_space_group_name_H-M_alt        'P 1 21/c 1'
_symmetry_space_group_name_Hall  '-P 2ybc'
_symmetry_space_group_name_H-M   'P 1 21/c 1'
_atom_sites_solution_hydrogens   geom
_audit_creation_method           SHELXL-2014/7
_audit_update_record
;
2015-06-16 deposited with the CCDC.
2015-07-16 downloaded from the CCDC.
;
_cell_angle_alpha                90
_cell_angle_beta                 122.4170(10)
_cell_angle_gamma                90
_cell_formula_units_Z            8
_cell_length_a                   32.7080(6)
_cell_length_b                   13.4864(2)
_cell_length_c                   36.4446(7)
_cell_measurement_reflns_used    31462
_cell_measurement_temperature    293(2)
_cell_measurement_theta_max      69.32
_cell_measurement_theta_min      3.58
_cell_volume                     13571.0(4)
_computing_cell_refinement       'X-AREA (STOE & CIE, 2012)'
_computing_data_collection       'X-AREA (STOE & CIE, 2012)'
_computing_data_reduction        'X-AREA (STOE & CIE, 2012)'
_computing_structure_refinement  'SHELXL-2014/7 (Sheldrick, 2014)'
_computing_structure_solution    'SHELXS-97 (Sheldrick, 2008)'
_diffrn_ambient_temperature      293(2)
_diffrn_detector                 Pilatus100K
_diffrn_detector_area_resol_mean 5.81
_diffrn_detector_type            STOE
_diffrn_measured_fraction_theta_full 0.937
_diffrn_measured_fraction_theta_max 0.931
_diffrn_measurement_details      '3691 frames, detector distance = 60 mm'
_diffrn_measurement_device_type  'Stoe STADI VARI'
_diffrn_measurement_method       'rotation method'
_diffrn_radiation_collimation    'focusing mirrors'
_diffrn_radiation_monochromator  none
_diffrn_radiation_polarisn_norm  0
_diffrn_radiation_type           'Cu K\a'
_diffrn_radiation_wavelength     1.54186
_diffrn_reflns_av_unetI/netI     0.3656
_diffrn_reflns_laue_measured_fraction_max 0.931
_diffrn_reflns_number            23609
_diffrn_reflns_point_group_measured_fraction_max 0.931
_diffrn_reflns_theta_full        67.686
_diffrn_reflns_theta_max         69.255
_diffrn_reflns_theta_min         3.592
_diffrn_source                   'Cu GeniX 3D'
_diffrn_source_current           0.600
_diffrn_source_power             0.030
_diffrn_source_voltage           50
_exptl_absorpt_coefficient_mu    7.042
_exptl_absorpt_correction_T_max  0.4945
_exptl_absorpt_correction_T_min  0.0334
_exptl_absorpt_correction_type   refdelf
_exptl_absorpt_process_details
;
 Walker & Stuart (1983). Acta. Cryst. A<b>39</b>, 158--166.
;
_exptl_crystal_colour            'Dark green'
_exptl_crystal_density_diffrn    1.299
_exptl_crystal_description       Prism
_exptl_crystal_F_000             5368
_exptl_crystal_preparation       'diethyl ether--THF (9:1)'
_exptl_crystal_size_max          0.10
_exptl_crystal_size_mid          0.10
_exptl_crystal_size_min          0.10
_refine_diff_density_max         0.547
_refine_diff_density_min         -0.768
_refine_diff_density_rms         0.069
_refine_ls_extinction_method     none
_refine_ls_goodness_of_fit_ref   0.585
_refine_ls_hydrogen_treatment    constr
_refine_ls_matrix_type           full
_refine_ls_number_parameters     1627
_refine_ls_number_reflns         23609
_refine_ls_number_restraints     1314
_refine_ls_restrained_S_all      0.583
_refine_ls_R_factor_all          0.2168
_refine_ls_R_factor_gt           0.0546
_refine_ls_shift/su_max          0.006
_refine_ls_shift/su_mean         0.001
_refine_ls_structure_factor_coef Fsqd
_refine_ls_weighting_details
'w=1/[\s^2^(Fo^2^)+(0.0025P)^2^] where P=(Fo^2^+2Fc^2^)/3'
_refine_ls_weighting_scheme      calc
_refine_ls_wR_factor_gt          0.0252
_refine_ls_wR_factor_ref         0.0360
_reflns_Friedel_coverage         0.000
_reflns_number_gt                6142
_reflns_number_total             23609
_reflns_threshold_expression     'I > 2\s(I)'
_cod_data_source_file            c5dt01933h2.cif
_cod_data_source_block           lt56313_symm
_cod_depositor_comments          'Adding full bibliography for 7035866.cif.'
_cod_database_code               7035866
_shelx_space_group_comment
;
The symmetry employed for this shelxl refinement is uniquely defined
by the following loop, which should always be used as a source of
symmetry information in preference to the above space-group names.
They are only intended as comments.
;
_shelx_res_file
;

    shelx.res created by SHELXL-2014/7

TITL lt56313 in P21/C
CELL  1.54186  32.7080  13.4864  36.4446   90.000  122.417   90.000
ZERR     8.00   0.0006   0.0002   0.0007    0.000    0.001    0.000
LATT   1
SYMM  - X, 1/2 + Y, 1/2 - Z
SFAC  C    H    EU   N
UNIT  624  336  8    112
MERG   2
OMIT     0.00 180.00
OMIT     4   0   2
OMIT     8   7   1
OMIT     8   6   6
OMIT     8   4  10
OMIT     2   5  11
OMIT     2   0  10
OMIT    -4   0   6
OMIT    -2   0  12
OMIT     2   0  14
OMIT    12   3   5
OMIT     6   4  10
OMIT    -8   7   9
OMIT    -8   4  18
OMIT    -8   6  14
OMIT    -2   0  16
OMIT    -6   0   4
OMIT    11   4   2
OMIT    -6   0   2
OMIT    -4   3   8
OMIT   -12   4   1
OMIT    -4   1   9
OMIT    10   4   9
OMIT    -5   3   8
OMIT   -12   9  17
OMIT    -1   1   5
OMIT     0   0   4
SIMU     0.010 N1 C1A C1B C1C C1D C1E C1F C1G C1H =
  N51 C2A C2B C2C C2D C2E C2F C2G C2H N2 N52 =
  N3 C3A C3B C3C C3D C3E C3F C3G C3H =
  C53 C101 C102 C103 C104 C105 C106 =
  N4 C4A C4B C4C C4D C4E C4F C4G C4H N54
SIMU     0.010 N5 C5A C5B C5C C5D C5E C5F C5G C5H =
  N55 C6A C6B C6C C6D C6E C6F C6G C6H N6 N56 =
  C7A C7B C7C C7D C7E C7F C7G C7H N7 C57 =
  C201 C202 C203 C204 C205 C206 C8A C8B C8C C8D =
  C8E C8F C8G C8H N8 N58
SIMU     0.010 N9 C9A C9B C9C C9D C9E C9F C9G C9H N59 =
  C10A C10B C10C C10D C10E C10F C10G C10H N10 N60 =
  C11A C11B C11C C11D C11E C11F C11G C11H N11 =
  C61 C301 C302 C303 C304 C305 C306 =
  N12 C12A C12B C12C C12D C12E C12F C12G C12H N62
SIMU     0.010 N13 C13A C13B C13C C13D C13E C13F C13G C13H =
  N63 C14A C14B C14C C14D C14E C14F C14G C14H =
  N64 C15A C15B C15C C15D C15E C15F C15G C15H N15 =
  C65 C401 C402 C403 C404 C405 C406 N16 =
  C16A C16B C16C C16D C16E C16F C16G C16H N66
ISOR    0.005  N14

FMAP   2
PLAN   10
ACTA
BOND   $H
CONF
L.S.   20
WGHT    0.002500
FVAR       1.00873
MOLE    1
EU1   3    0.000433   -0.005548    0.386402    11.00000    0.04605    0.04256 =
         0.03720   -0.00035    0.02897   -0.00058
N1    4   -0.023404   -0.179431    0.370919    11.00000    0.06198    0.03218 =
         0.04734   -0.00165    0.03791   -0.00702
N2    4    0.070088   -0.116284    0.417281    11.00000    0.05252    0.04836 =
         0.03529    0.00907    0.03075    0.00542
N3    4    0.049638    0.032476    0.355818    11.00000    0.05265    0.05894 =
         0.03972    0.00829    0.03173   -0.00079
N4    4   -0.049208   -0.032879    0.307912    11.00000    0.05135    0.05661 =
         0.03091   -0.00320    0.02450   -0.00749
N5    4   -0.078681    0.003937    0.377087    11.00000    0.05783    0.05500 =
         0.04804   -0.01054    0.03596   -0.00897
N6    4    0.004197   -0.049062    0.453235    11.00000    0.06462    0.04934 =
         0.03344    0.00208    0.03940   -0.00139
N7    4    0.055835    0.105836    0.444726    11.00000    0.05296    0.03244 =
         0.03678   -0.00956    0.02395   -0.00039
N8    4   -0.027175    0.165660    0.366291    11.00000    0.04686    0.04533 =
         0.04058    0.00683    0.02953    0.00415
N51   4    0.040961   -0.262375    0.435692    11.00000    0.06166    0.04613 =
         0.05312    0.00170    0.04277    0.00873
N52   4    0.130071   -0.008508    0.419155    11.00000    0.05202    0.06138 =
         0.04382    0.01360    0.03319    0.01088
N54   4   -0.102344   -0.163340    0.303450    11.00000    0.05324    0.05552 =
         0.04777    0.00088    0.02970   -0.00623
N55   4   -0.074555   -0.126185    0.424547    11.00000    0.06929    0.06111 =
         0.06367   -0.00260    0.05231   -0.00721
N56   4    0.087377   -0.006451    0.507197    11.00000    0.06620    0.05580 =
         0.03835    0.00147    0.03369    0.00409
N58   4   -0.115032    0.135212    0.322197    11.00000    0.05293    0.06066 =
         0.06330   -0.01163    0.03793   -0.00564
C1A   1   -0.071439   -0.206052    0.340256    11.00000    0.06009    0.05750 =
         0.05122   -0.00859    0.04372   -0.00907
C1B   1   -0.082769   -0.298043    0.354299    11.00000    0.07056    0.07183 =
         0.05822   -0.00457    0.04856   -0.00709
C1C   1   -0.124688   -0.355223    0.336659    11.00000    0.08583    0.08111 =
         0.08125   -0.00492    0.05168   -0.01526
AFIX  43
H1C   2   -0.153036   -0.335617    0.311304    11.00000   -1.20000
AFIX   0
C1D   1   -0.123168   -0.442403    0.357864    11.00000    0.09214    0.09079 =
         0.09079    0.00020    0.03855   -0.00894
AFIX  43
H1D   2   -0.150134   -0.483708    0.345278    11.00000   -1.20000
AFIX   0
C1E   1   -0.081905   -0.469126    0.397711    11.00000    0.10513    0.08734 =
         0.09129    0.00530    0.03774   -0.00930
AFIX  43
H1E   2   -0.082438   -0.524029    0.412889    11.00000   -1.20000
AFIX   0
C1F   1   -0.039928   -0.412188    0.414354    11.00000    0.09157    0.07544 =
         0.07633    0.00013    0.05057   -0.00558
AFIX  43
H1F   2   -0.011625   -0.430963    0.439933    11.00000   -1.20000
AFIX   0
C1G   1   -0.040798   -0.328349    0.392656    11.00000    0.07410    0.05805 =
         0.05308   -0.00211    0.04641   -0.00548
C1H   1   -0.004622   -0.254057    0.402090    11.00000    0.06724    0.04888 =
         0.05432    0.00248    0.04362   -0.00445
C2A   1    0.075376   -0.196407    0.442263    11.00000    0.05976    0.05181 =
         0.04252   -0.00116    0.03200   -0.00169
C2B   1    0.125642   -0.207037    0.479259    11.00000    0.06792    0.05999 =
         0.04011   -0.00036    0.03214    0.01349
C2C   1    0.147452   -0.274944    0.512792    11.00000    0.07755    0.06462 =
         0.06078    0.00404    0.02930    0.01592
AFIX  43
H2C   2    0.129635   -0.325180    0.515327    11.00000   -1.20000
AFIX   0
C2D   1    0.196917   -0.265648    0.542608    11.00000    0.08035    0.07863 =
         0.06540   -0.00022    0.02170    0.01396
AFIX  43
H2D   2    0.212675   -0.311030    0.565243    11.00000   -1.20000
AFIX   0
C2E   1    0.223834   -0.187386    0.538942    11.00000    0.07444    0.07797 =
         0.06416    0.00628    0.02984    0.01105
AFIX  43
H2E   2    0.256734   -0.180188    0.559545    11.00000   -1.20000
AFIX   0
C2F   1    0.200472   -0.122702    0.504520    11.00000    0.06946    0.07888 =
         0.05154    0.00830    0.03071   -0.00350
AFIX  43
H2F   2    0.217864   -0.072387    0.501447    11.00000   -1.20000
AFIX   0
C2G   1    0.151797   -0.131794    0.474730    11.00000    0.06510    0.06194 =
         0.03719    0.00325    0.03561    0.01102
C2H   1    0.116386   -0.076187    0.436361    11.00000    0.05546    0.06081 =
         0.04041    0.00103    0.03509    0.00925
C3A   1    0.100129    0.035004    0.381279    11.00000    0.05123    0.06950 =
         0.04947    0.01238    0.03350    0.00380
C3B   1    0.116031    0.094256    0.358348    11.00000    0.04914    0.08777 =
         0.06282    0.00932    0.03703   -0.00234
C3C   1    0.162830    0.119740    0.371062    11.00000    0.07049    0.13276 =
         0.08755    0.03010    0.02882   -0.01474
AFIX  43
H3C   2    0.189056    0.099535    0.397838    11.00000   -1.20000
AFIX   0
C3D   1    0.169936    0.177539    0.342262    11.00000    0.07563    0.14900 =
         0.07864    0.01698    0.03516   -0.02285
AFIX  43
H3D   2    0.200975    0.194820    0.349624    11.00000   -1.20000
AFIX   0
C3E   1    0.129367    0.207897    0.302662    11.00000    0.06822    0.12814 =
         0.07228    0.00345    0.03677   -0.01883
AFIX  43
H3E   2    0.133733    0.247160    0.284046    11.00000   -1.20000
AFIX   0
C3F   1    0.083707    0.181424    0.290710    11.00000    0.06010    0.10342 =
         0.06795   -0.00254    0.04207   -0.01619
AFIX  43
H3F   2    0.057177    0.200879    0.263970    11.00000   -1.20000
AFIX   0
C3G   1    0.077317    0.123860    0.319643    11.00000    0.04601    0.07484 =
         0.05147    0.00718    0.03558   -0.00584
C3H   1    0.035568    0.084373    0.318275    11.00000    0.04796    0.06869 =
         0.03449    0.00991    0.02751   -0.00086
C4A   1   -0.053703    0.039627    0.279128    11.00000    0.04627    0.06063 =
         0.03993    0.00301    0.02637   -0.00624
C4B   1   -0.104272    0.038792    0.241256    11.00000    0.04657    0.07107 =
         0.05382    0.00190    0.03044    0.00647
C4C   1   -0.129306    0.098206    0.203756    11.00000    0.05150    0.08884 =
         0.06938    0.00502    0.03682    0.00655
AFIX  43
H4C   2   -0.114061    0.150240    0.198965    11.00000   -1.20000
AFIX   0
C4D   1   -0.178229    0.075700    0.173880    11.00000    0.05300    0.10285 =
         0.08839    0.00245    0.03195    0.00520
AFIX  43
H4D   2   -0.195867    0.113818    0.148853    11.00000   -1.20000
AFIX   0
C4E   1   -0.200986   -0.003236    0.181099    11.00000    0.05081    0.09462 =
         0.07572   -0.00048    0.02582    0.00168
AFIX  43
H4E   2   -0.233430   -0.017414    0.161076    11.00000   -1.20000
AFIX   0
C4F   1   -0.174713   -0.059508    0.218194    11.00000    0.05379    0.08794 =
         0.06922   -0.00557    0.03780   -0.00152
AFIX  43
H4F   2   -0.189354   -0.113059    0.222788    11.00000   -1.20000
AFIX   0
C4G   1   -0.127563   -0.037667    0.248217    11.00000    0.04863    0.07589 =
         0.04633    0.00142    0.03468   -0.00371
C4H   1   -0.091184   -0.083623    0.289211    11.00000    0.04694    0.05559 =
         0.04444   -0.00754    0.02663   -0.00371
C5A   1   -0.116494    0.053115    0.341261    11.00000    0.05037    0.06793 =
         0.05659   -0.01985    0.03816   -0.00880
C5B   1   -0.162366    0.003814    0.329655    11.00000    0.05753    0.07652 =
         0.06622   -0.01812    0.04104   -0.00350
C5C   1   -0.209596    0.020203    0.297016    11.00000    0.06258    0.09463 =
         0.08368   -0.01064    0.03640   -0.00222
AFIX  43
H5C   2   -0.217178    0.071394    0.277264    11.00000   -1.20000
AFIX   0
C5D   1   -0.246351   -0.040046    0.293433    11.00000    0.05946    0.11200 =
         0.10621   -0.02165    0.03898   -0.00355
AFIX  43
H5D   2   -0.278407   -0.029028    0.271322    11.00000   -1.20000
AFIX   0
C5E   1   -0.235012   -0.115235    0.322549    11.00000    0.07444    0.12172 =
         0.10588   -0.01564    0.05268   -0.00480
AFIX  43
H5E   2   -0.259493   -0.155833    0.319798    11.00000   -1.20000
AFIX   0
C5F   1   -0.186863   -0.131991    0.356574    11.00000    0.07979    0.10166 =
         0.08215   -0.01067    0.05679   -0.01407
AFIX  43
H5F   2   -0.179322   -0.182233    0.376721    11.00000   -1.20000
AFIX   0
C5G   1   -0.151231   -0.072552    0.359401    11.00000    0.06969    0.08243 =
         0.07556   -0.00476    0.04916   -0.00984
C5H   1   -0.098441   -0.069030    0.390201    11.00000    0.06079    0.06380 =
         0.06230   -0.01127    0.04647   -0.00328
C6A   1   -0.027395   -0.116526    0.453269    11.00000    0.06381    0.05258 =
         0.04140    0.00031    0.03999   -0.00010
C6B   1   -0.002722   -0.175813    0.492343    11.00000    0.07508    0.06052 =
         0.04848    0.00500    0.04874    0.00097
C6C   1   -0.015705   -0.254772    0.508325    11.00000    0.08065    0.06863 =
         0.07230    0.00602    0.04939    0.00105
AFIX  43
H6C   2   -0.047167   -0.279230    0.492144    11.00000   -1.20000
AFIX   0
C6D   1    0.016499   -0.296978    0.547012    11.00000    0.10022    0.07480 =
         0.09124    0.00963    0.04712    0.00938
AFIX  43
H6D   2    0.007493   -0.349320    0.557827    11.00000   -1.20000
AFIX   0
C6E   1    0.063849   -0.259519    0.570332    11.00000    0.10600    0.07640 =
         0.07920    0.01077    0.05377    0.01837
AFIX  43
H6E   2    0.086144   -0.290498    0.596370    11.00000   -1.20000
AFIX   0
C6F   1    0.079780   -0.179973    0.557443    11.00000    0.09459    0.07641 =
         0.07196    0.01668    0.05845    0.01970
AFIX  43
H6F   2    0.111043   -0.154814    0.574351    11.00000   -1.20000
AFIX   0
C6G   1    0.045251   -0.140293    0.517026    11.00000    0.07173    0.06011 =
         0.04521    0.00606    0.04472    0.01276
C6H   1    0.048642   -0.062513    0.492193    11.00000    0.06696    0.04721 =
         0.04141    0.00069    0.03845   -0.00455
C7A   1    0.090134    0.069615    0.485105    11.00000    0.06102    0.04866 =
         0.03758   -0.00065    0.02963   -0.00156
C7B   1    0.135027    0.126657    0.503806    11.00000    0.06414    0.06274 =
         0.04116   -0.00085    0.02921   -0.00398
C7C   1    0.178972    0.113420    0.542640    11.00000    0.07332    0.07670 =
         0.06042   -0.00897    0.03081   -0.00564
AFIX  43
H7C   2    0.183739    0.062625    0.561810    11.00000   -1.20000
AFIX   0
C7D   1    0.215131    0.179326    0.551321    11.00000    0.06347    0.08757 =
         0.08022   -0.00903    0.01535    0.00698
AFIX  43
H7D   2    0.244666    0.174343    0.577659    11.00000   -1.20000
AFIX   0
C7E   1    0.209266    0.253436    0.522161    11.00000    0.05947    0.10106 =
         0.08678   -0.00415    0.03052   -0.00726
AFIX  43
H7E   2    0.235125    0.294664    0.528722    11.00000   -1.20000
AFIX   0
C7F   1    0.163944    0.266214    0.482469    11.00000    0.05734    0.08853 =
         0.06622   -0.00545    0.03334   -0.00848
AFIX  43
H7F   2    0.158774    0.317719    0.463472    11.00000   -1.20000
AFIX   0
C7G   1    0.127422    0.197756    0.473252    11.00000    0.05394    0.07149 =
         0.04071   -0.01001    0.02890   -0.00322
C7H   1    0.076890    0.189060    0.437640    11.00000    0.04684    0.05470 =
         0.03805   -0.00316    0.02484   -0.00700
C8A   1   -0.000843    0.249997    0.370062    11.00000    0.04904    0.04913 =
         0.04306    0.00454    0.03034   -0.00046
C8B   1   -0.032111    0.327172    0.340959    11.00000    0.06176    0.05186 =
         0.05227    0.00346    0.04083   -0.00025
C8C   1   -0.026335    0.422120    0.331412    11.00000    0.06640    0.07123 =
         0.07165    0.00639    0.03854   -0.00643
AFIX  43
H8C   2    0.004342    0.450580    0.346517    11.00000   -1.20000
AFIX   0
C8D   1   -0.065391    0.477315    0.299535    11.00000    0.07605    0.07755 =
         0.08159    0.01139    0.04080    0.00647
AFIX  43
H8D   2   -0.060403    0.541729    0.293645    11.00000   -1.20000
AFIX   0
C8E   1   -0.110480    0.438044    0.277089    11.00000    0.07858    0.08811 =
         0.07103    0.01057    0.03521    0.01922
AFIX  43
H8E   2   -0.136186    0.475076    0.255551    11.00000   -1.20000
AFIX   0
C8F   1   -0.118592    0.340502    0.286360    11.00000    0.06439    0.07557 =
         0.07382   -0.00554    0.02313    0.00386
AFIX  43
H8F   2   -0.149521    0.313194    0.271449    11.00000   -1.20000
AFIX   0
C8G   1   -0.078974    0.286367    0.318458    11.00000    0.05806    0.05978 =
         0.05561   -0.00572    0.03363    0.00823
C8H   1   -0.075259    0.188866    0.335446    11.00000    0.05126    0.05254 =
         0.05032   -0.00851    0.03215    0.00542
C53   1   -0.013822    0.092977    0.282433    11.00000    0.05830    0.05758 =
         0.03073    0.00551    0.02863   -0.00119
C57   1    0.049922    0.259696    0.403748    11.00000    0.05803    0.05396 =
         0.04022   -0.00316    0.03594   -0.00661
AFIX  66
C101  1   -0.024576    0.157793    0.245803    11.00000    0.07370    0.06807 =
         0.04801   -0.00628    0.04009   -0.00152
C102  1   -0.028244    0.259628    0.249219    11.00000    0.08699    0.06677 =
         0.05917   -0.00904    0.05528   -0.00836
AFIX  43
H102  2   -0.025424    0.286240    0.274020    11.00000   -1.20000
AFIX  65
C103  1   -0.036126    0.321688    0.215567    11.00000    0.08950    0.06896 =
         0.05798   -0.00264    0.05193   -0.00956
AFIX  43
H103  2   -0.038580    0.389822    0.217853    11.00000   -1.20000
AFIX  65
C104  1   -0.040340    0.281913    0.178499    11.00000    0.09081    0.07200 =
         0.06901   -0.00540    0.05591   -0.00693
AFIX  43
H104  2   -0.045614    0.323436    0.155984    11.00000   -1.20000
AFIX  65
C105  1   -0.036673    0.180079    0.175083    11.00000    0.09183    0.08756 =
         0.05876   -0.01730    0.05517   -0.00590
AFIX  43
H105  2   -0.039493    0.153467    0.150282    11.00000   -1.20000
AFIX  65
C106  1   -0.028791    0.118018    0.208734    11.00000    0.08074    0.07396 =
         0.05312   -0.00507    0.04067    0.00237
AFIX  43
H106  2   -0.026337    0.049884    0.206448    11.00000   -1.20000
AFIX  66
C201  1    0.075187    0.350799    0.403989    11.00000    0.06620    0.06323 =
         0.06770   -0.00489    0.04326   -0.01473
C202  1    0.081300    0.429991    0.430897    11.00000    0.07979    0.07414 =
         0.07519   -0.01379    0.04933   -0.01305
AFIX  43
H202  2    0.068411    0.426989    0.448246    11.00000   -1.20000
AFIX  65
C203  1    0.106678    0.513670    0.431876    11.00000    0.09379    0.07005 =
         0.08778   -0.00305    0.05379   -0.00507
AFIX  43
H203  2    0.110768    0.566655    0.449880    11.00000   -1.20000
AFIX  65
C204  1    0.125942    0.518158    0.405946    11.00000    0.11348    0.06683 =
         0.09803    0.00194    0.05029   -0.02049
AFIX  43
H204  2    0.142921    0.574145    0.406601    11.00000   -1.20000
AFIX  65
C205  1    0.119828    0.438967    0.379038    11.00000    0.11015    0.08412 =
         0.09543   -0.00066    0.06615   -0.02644
AFIX  43
H205  2    0.132717    0.441970    0.361689    11.00000   -1.20000
AFIX  65
C206  1    0.094451    0.355287    0.378059    11.00000    0.09563    0.06447 =
         0.08307   -0.00314    0.05844   -0.01991
AFIX  43
H206  2    0.090361    0.302303    0.360055    11.00000   -1.20000
AFIX   0
MOLE    2
EU2   3    0.481355    0.003401    0.377232    11.00000    0.04874    0.04704 =
         0.03734   -0.00529    0.03026   -0.00472
N9    4    0.557256    0.015857    0.447093    11.00000    0.04981    0.05788 =
         0.03482   -0.01120    0.02507   -0.00036
N10   4    0.470455   -0.035222    0.437129    11.00000    0.06304    0.06030 =
         0.04861   -0.00331    0.04484   -0.00525
N11   4    0.422617    0.116337    0.375933    11.00000    0.05190    0.06014 =
         0.04514   -0.01538    0.03596    0.00164
N12   4    0.512721    0.170348    0.386051    11.00000    0.04316    0.05345 =
         0.04764    0.00282    0.02969   -0.00056
N13   4    0.506331   -0.172121    0.386701    11.00000    0.06467    0.05250 =
         0.04171   -0.01126    0.03867   -0.00947
N14   4    0.412009   -0.107967    0.339115    11.00000    0.04499    0.05107 =
         0.03039    0.00088    0.02958   -0.00160
N15   4    0.436543    0.038470    0.298887    11.00000    0.05289    0.06173 =
         0.02984    0.00129    0.02726    0.00242
N16   4    0.533279   -0.028364    0.349034    11.00000    0.04400    0.05124 =
         0.04247    0.00783    0.03205    0.00311
N59   4    0.549113   -0.110422    0.489404    11.00000    0.06193    0.06336 =
         0.04624   -0.00260    0.03578   -0.00102
N60   4    0.385192    0.002901    0.403022    11.00000    0.07046    0.06849 =
         0.04744   -0.00563    0.04474   -0.01040
N62   4    0.597891    0.138225    0.429523    11.00000    0.05367    0.06183 =
         0.05560    0.00140    0.02420    0.00059
N63   4    0.439881   -0.252977    0.386788    11.00000    0.06650    0.07874 =
         0.05334   -0.00857    0.04647   -0.01315
N64   4    0.354293   -0.003696    0.279448    11.00000    0.05043    0.08260 =
         0.04714   -0.01608    0.03535   -0.00596
N66   4    0.586606   -0.157035    0.399541    11.00000    0.05316    0.06053 =
         0.04950   -0.00242    0.03310   -0.00022
C9A   1    0.597857    0.057974    0.448489    11.00000    0.05791    0.05355 =
         0.03826   -0.00429    0.03244   -0.00185
C9B   1    0.640875    0.003406    0.481515    11.00000    0.06151    0.06920 =
         0.04589    0.00727    0.03498    0.00192
C9C   1    0.688628    0.013122    0.494918    11.00000    0.05733    0.11362 =
         0.08140    0.03616    0.03596    0.00937
AFIX  43
H9C   2    0.698391    0.060252    0.482518    11.00000   -1.20000
AFIX   0
C9D   1    0.722904   -0.051165    0.528437    11.00000    0.05759    0.14315 =
         0.10788    0.04800    0.02772    0.00726
AFIX  43
H9D   2    0.755460   -0.048506    0.537632    11.00000   -1.20000
AFIX   0
C9E   1    0.707031   -0.117322    0.547000    11.00000    0.05931    0.13517 =
         0.10878    0.04226    0.01138    0.00594
AFIX  43
H9E   2    0.730167   -0.154765    0.570458    11.00000   -1.20000
AFIX   0
C9F   1    0.658943   -0.131607    0.532999    11.00000    0.06995    0.11404 =
         0.07625    0.01714    0.02205    0.00423
AFIX  43
H9F   2    0.648672   -0.181199    0.543989    11.00000   -1.20000
AFIX   0
C9G   1    0.626374   -0.063516    0.500153    11.00000    0.06073    0.07656 =
         0.05489   -0.00480    0.03094    0.00001
C9H   1    0.573446   -0.055723    0.477984    11.00000    0.05757    0.06190 =
         0.03642   -0.00530    0.03074   -0.00935
C10A  1    0.501381   -0.100494    0.469920    11.00000    0.07597    0.05799 =
         0.04329   -0.00364    0.03893   -0.00608
C10B  1    0.472749   -0.157578    0.482728    11.00000    0.09883    0.06601 =
         0.04106   -0.00811    0.05299   -0.01564
C10C  1    0.488865   -0.231601    0.515075    11.00000    0.11680    0.08240 =
         0.07295   -0.01589    0.06385   -0.02492
AFIX  43
H10C  2    0.521156   -0.250147    0.532968    11.00000   -1.20000
AFIX   0
C10D  1    0.450436   -0.275192    0.517521    11.00000    0.12177    0.08826 =
         0.07842   -0.01107    0.05923   -0.02557
AFIX  43
H10D  2    0.457716   -0.326309    0.537239    11.00000   -1.20000
AFIX   0
C10E  1    0.402941   -0.243950    0.491612    11.00000    0.11371    0.09142 =
         0.07277   -0.00799    0.06736   -0.02753
AFIX  43
H10E  2    0.379265   -0.272717    0.494922    11.00000   -1.20000
AFIX   0
C10F  1    0.390161   -0.170533    0.460851    11.00000    0.09899    0.07392 =
         0.06420   -0.00887    0.05119   -0.02161
AFIX  43
H10F  2    0.358045   -0.150528    0.443322    11.00000   -1.20000
AFIX   0
C10G  1    0.425572   -0.127007    0.456347    11.00000    0.08733    0.06657 =
         0.05215   -0.01116    0.05289   -0.01674
C10H  1    0.424341   -0.049017    0.429653    11.00000    0.07590    0.06810 =
         0.04230   -0.01034    0.04594   -0.01248
C11A  1    0.385134    0.077337    0.378974    11.00000    0.06066    0.07143 =
         0.05383   -0.00895    0.03924   -0.00251
C11B  1    0.340449    0.129257    0.349883    11.00000    0.05968    0.08228 =
         0.06084   -0.00901    0.04534   -0.00033
C11C  1    0.294878    0.115090    0.340073    11.00000    0.06840    0.10880 =
         0.07593   -0.01101    0.04756   -0.00120
AFIX  43
H11C  2    0.287064    0.067944    0.353970    11.00000   -1.20000
AFIX   0
C11D  1    0.259707    0.178020    0.306767    11.00000    0.06466    0.10991 =
         0.10408    0.00059    0.05134    0.00445
AFIX  43
H11D  2    0.227909    0.169803    0.299315    11.00000   -1.20000
AFIX   0
C11E  1    0.267465    0.249431    0.284430    11.00000    0.06854    0.09761 =
         0.10130    0.00876    0.03233    0.01089
AFIX  43
H11E  2    0.242372    0.286624    0.262340    11.00000   -1.20000
AFIX   0
C11F  1    0.317565    0.262987    0.297643    11.00000    0.06161    0.08770 =
         0.07193    0.00157    0.04041    0.00877
AFIX  43
H11F  2    0.325693    0.312611    0.284939    11.00000   -1.20000
AFIX   0
C11G  1    0.352834    0.203008    0.328711    11.00000    0.06450    0.07765 =
         0.05525   -0.00229    0.03762    0.00433
C11H  1    0.403485    0.195009    0.346415    11.00000    0.05557    0.06728 =
         0.04309    0.00211    0.03127   -0.00105
C12A  1    0.486216    0.256857    0.364959    11.00000    0.05903    0.05508 =
         0.05035   -0.00004    0.03719    0.00119
C12B  1    0.519333    0.334211    0.368153    11.00000    0.06283    0.06069 =
         0.05464   -0.00060    0.04349    0.00061
C12C  1    0.515202    0.436077    0.354282    11.00000    0.07477    0.07686 =
         0.07277    0.00699    0.04228    0.00772
AFIX  43
H12C  2    0.485207    0.467450    0.339866    11.00000   -1.20000
AFIX   0
C12D  1    0.554904    0.485204    0.362317    11.00000    0.07648    0.07167 =
         0.09889    0.00434    0.04366   -0.00028
AFIX  43
H12D  2    0.551954    0.550253    0.352728    11.00000   -1.20000
AFIX   0
C12E  1    0.600257    0.440823    0.384650    11.00000    0.07232    0.07847 =
         0.09831    0.00802    0.04213   -0.00589
AFIX  43
H12E  2    0.627039    0.475766    0.389035    11.00000   -1.20000
AFIX   0
C12F  1    0.606201    0.343021    0.400820    11.00000    0.06467    0.07188 =
         0.07958    0.00523    0.03767   -0.00327
AFIX  43
H12F  2    0.636836    0.314733    0.417261    11.00000   -1.20000
AFIX   0
C12G  1    0.566854    0.292188    0.391958    11.00000    0.06191    0.05817 =
         0.05096   -0.00054    0.04086    0.00241
C12H  1    0.560601    0.192757    0.402334    11.00000    0.05321    0.05291 =
         0.04793    0.00192    0.02819    0.00053
C13A  1    0.554841   -0.197645    0.405170    11.00000    0.06770    0.06072 =
         0.04259   -0.00454    0.03851   -0.00010
C13B  1    0.564746   -0.289873    0.430330    11.00000    0.08233    0.06932 =
         0.04685    0.00626    0.03742    0.00515
C13C  1    0.609111   -0.339627    0.455508    11.00000    0.09411    0.08108 =
         0.07773    0.01979    0.04358    0.01758
AFIX  43
H13C  2    0.637753   -0.319590    0.458094    11.00000   -1.20000
AFIX   0
C13D  1    0.604884   -0.427628    0.477414    11.00000    0.10210    0.08863 =
         0.10194    0.01915    0.02565    0.01340
AFIX  43
H13D  2    0.631923   -0.467147    0.494627    11.00000   -1.20000
AFIX   0
C13E  1    0.562347   -0.451270    0.472749    11.00000    0.09890    0.08652 =
         0.08456    0.01727    0.03831   -0.00338
AFIX  43
H13E  2    0.561586   -0.508270    0.486732    11.00000   -1.20000
AFIX   0
C13F  1    0.519078   -0.397499    0.448653    11.00000    0.09069    0.09183 =
         0.06904    0.00956    0.04119    0.00191
AFIX  43
H13F  2    0.490776   -0.413966    0.447457    11.00000   -1.20000
AFIX   0
C13G  1    0.522802   -0.316994    0.426714    11.00000    0.07579    0.06705 =
         0.05534    0.00415    0.04609    0.00000
C13H  1    0.485760   -0.243573    0.399306    11.00000    0.07241    0.06065 =
         0.04042   -0.01301    0.03795   -0.01419
C14A  1    0.406692   -0.190004    0.358660    11.00000    0.06489    0.08336 =
         0.05621   -0.01268    0.05220   -0.01938
C14B  1    0.355429   -0.205795    0.341482    11.00000    0.07147    0.09433 =
         0.06036   -0.00967    0.05167   -0.02256
C14C  1    0.332637   -0.273853    0.353659    11.00000    0.07893    0.11182 =
         0.09023   -0.01707    0.05712   -0.02611
AFIX  43
H14C  2    0.349766   -0.321358    0.375080    11.00000   -1.20000
AFIX   0
C14D  1    0.281819   -0.265425    0.331170    11.00000    0.08713    0.12380 =
         0.11891   -0.01752    0.05663   -0.03522
AFIX  43
H14D  2    0.265185   -0.312253    0.337026    11.00000   -1.20000
AFIX   0
C14E  1    0.254436   -0.191125    0.300458    11.00000    0.08604    0.12726 =
         0.11617   -0.01410    0.04638   -0.02929
AFIX  43
H14E  2    0.221117   -0.184965    0.287392    11.00000   -1.20000
AFIX   0
C14F  1    0.282598   -0.124912    0.290899    11.00000    0.07474    0.11023 =
         0.08637   -0.01576    0.05089   -0.01337
AFIX  43
H14F  2    0.266462   -0.076023    0.269928    11.00000   -1.20000
AFIX   0
C14G  1    0.329997   -0.131266    0.310691    11.00000    0.06283    0.09431 =
         0.06010   -0.01451    0.04028   -0.01932
C14H  1    0.366389   -0.071755    0.309996    11.00000    0.06037    0.07866 =
         0.04159   -0.01398    0.04042   -0.01229
C15A  1    0.386585    0.041965    0.274170    11.00000    0.04682    0.06901 =
         0.04691   -0.00992    0.03556   -0.00118
C15B  1    0.369188    0.101186    0.235038    11.00000    0.05562    0.07263 =
         0.04728   -0.00092    0.03173    0.00554
C15C  1    0.323230    0.125593    0.200543    11.00000    0.06478    0.09600 =
         0.06354   -0.00086    0.02697    0.01010
AFIX  43
H15C  2    0.295731    0.104544    0.199822    11.00000   -1.20000
AFIX   0
C15D  1    0.319397    0.184104    0.166113    11.00000    0.07184    0.10401 =
         0.07400    0.00366    0.02322    0.01460
AFIX  43
H15D  2    0.289272    0.203651    0.142790    11.00000   -1.20000
AFIX   0
C15E  1    0.362100    0.211501    0.168229    11.00000    0.07909    0.08920 =
         0.06254    0.01292    0.02456    0.01168
AFIX  43
H15E  2    0.359508    0.247973    0.145415    11.00000   -1.20000
AFIX   0
C15F  1    0.407762    0.186591    0.202738    11.00000    0.07086    0.07150 =
         0.05083    0.01464    0.02862    0.01295
AFIX  43
H15F  2    0.434900    0.208050    0.202933    11.00000   -1.20000
AFIX   0
C15G  1    0.413618    0.130894    0.236573    11.00000    0.06102    0.05531 =
         0.04544    0.00553    0.03122    0.00730
C15H  1    0.453177    0.093998    0.276718    11.00000    0.04913    0.04711 =
         0.04444    0.00042    0.03121    0.00491
C16A  1    0.541487    0.046613    0.327122    11.00000    0.05115    0.05828 =
         0.03680    0.00688    0.03250    0.00787
C16B  1    0.591402    0.049544    0.340905    11.00000    0.05246    0.06294 =
         0.03806    0.00108    0.02961   -0.00010
C16C  1    0.620282    0.110649    0.330358    11.00000    0.05078    0.07744 =
         0.06028    0.00669    0.02487   -0.00334
AFIX  43
H16C  2    0.606626    0.163158    0.310883    11.00000   -1.20000
AFIX   0
C16D  1    0.670058    0.087131    0.350896    11.00000    0.05557    0.09277 =
         0.07493    0.00490    0.02367   -0.00672
AFIX  43
H16D  2    0.689221    0.124327    0.344276    11.00000   -1.20000
AFIX   0
C16E  1    0.690865    0.010833    0.380360    11.00000    0.05499    0.08758 =
         0.08010   -0.00375    0.01815   -0.00029
AFIX  43
H16E  2    0.723962   -0.000723    0.394254    11.00000   -1.20000
AFIX   0
C16F  1    0.662366   -0.050409    0.389774    11.00000    0.05576    0.07489 =
         0.05646   -0.00290    0.02852   -0.00069
AFIX  43
H16F  2    0.676461   -0.103087    0.409091    11.00000   -1.20000
AFIX   0
C16G  1    0.612805   -0.030824    0.369714    11.00000    0.04107    0.06107 =
         0.04891   -0.00355    0.02905   -0.00103
C16H  1    0.576154   -0.077159    0.374326    11.00000    0.04543    0.04362 =
         0.05316    0.00222    0.03262   -0.00177
C61   1    0.434484    0.267951    0.345214    11.00000    0.06091    0.06134 =
         0.04841   -0.00412    0.03772    0.00340
C65   1    0.504627    0.101023    0.291034    11.00000    0.06216    0.05765 =
         0.03873    0.00712    0.03599    0.00712
AFIX  66
C301  1    0.413635    0.361372    0.323513    11.00000    0.06682    0.06430 =
         0.08626    0.00370    0.05228    0.00313
C302  1    0.405712    0.435686    0.345437    11.00000    0.08402    0.08278 =
         0.12039   -0.00943    0.06193    0.00609
AFIX  43
H302  2    0.413250    0.424805    0.373607    11.00000   -1.20000
AFIX  65
C303  1    0.386522    0.526264    0.325260    11.00000    0.08782    0.09322 =
         0.15672   -0.01032    0.04873    0.00971
AFIX  43
H303  2    0.381221    0.575985    0.339929    11.00000   -1.20000
AFIX  65
C304  1    0.375256    0.542528    0.283157    11.00000    0.08335    0.07263 =
         0.15740    0.00940    0.04636    0.01357
AFIX  43
H304  2    0.362417    0.603131    0.269657    11.00000   -1.20000
AFIX  65
C305  1    0.383179    0.468215    0.261232    11.00000    0.09362    0.06486 =
         0.12007    0.03297    0.06162    0.00782
AFIX  43
H305  2    0.375640    0.479097    0.233062    11.00000   -1.20000
AFIX  65
C306  1    0.402368    0.377637    0.281409    11.00000    0.08314    0.06166 =
         0.10065    0.01832    0.06251    0.00535
AFIX  43
H306  2    0.407669    0.327916    0.266740    11.00000   -1.20000
AFIX  66
C401  1    0.517069    0.167612    0.267933    11.00000    0.07345    0.06173 =
         0.05901    0.01378    0.04903    0.00793
C402  1    0.522860    0.130669    0.235384    11.00000    0.07665    0.07294 =
         0.06667    0.00327    0.06014    0.00055
AFIX  43
H402  2    0.519435    0.063118    0.229314    11.00000   -1.20000
AFIX  65
C403  1    0.533770    0.194690    0.211909    11.00000    0.07959    0.07683 =
         0.06949   -0.00105    0.05205   -0.00364
AFIX  43
H403  2    0.537645    0.169973    0.190133    11.00000   -1.20000
AFIX  65
C404  1    0.538889    0.295655    0.220982    11.00000    0.08730    0.06724 =
         0.07360    0.01148    0.05425   -0.00629
AFIX  43
H404  2    0.546188    0.338489    0.205276    11.00000   -1.20000
AFIX  65
C405  1    0.533098    0.332598    0.253530    11.00000    0.08814    0.07494 =
         0.07532    0.00666    0.05348   -0.00125
AFIX  43
H405  2    0.536523    0.400150    0.259601    11.00000   -1.20000
AFIX  65
C406  1    0.522188    0.268579    0.277006    11.00000    0.07671    0.06557 =
         0.07043    0.00791    0.05187    0.00160
AFIX  43
H406  2    0.518313    0.293297    0.298783    11.00000   -1.20000
AFIX   0
HKLF    4

REM  lt56313 in P21/C
REM R1 =  0.0546 for    6142 Fo > 4sig(Fo)  and  0.2168 for all   23609 data
REM   1627 parameters refined using   1314 restraints

END

WGHT      0.0000      0.0029

REM Highest difference peak  0.547,  deepest hole -0.768,  1-sigma level  0.069
Q1    1   0.4700 -0.0443  0.3571  11.00000  0.05    0.55
Q2    1   0.4911 -0.0493  0.3985  11.00000  0.05    0.54
Q3    1   0.4900  0.0486  0.3983  11.00000  0.05    0.49
Q4    1   0.0318 -0.0942  0.3865  11.00000  0.05    0.48
Q5    1  -0.0105  0.0464  0.3657  11.00000  0.05    0.46
Q6    1   0.0101  0.0385  0.4029  11.00000  0.05    0.45
Q7    1   0.7293  0.3017  0.3436  11.00000  0.05    0.44
Q8    1  -0.0297  0.0671  0.3908  11.00000  0.05    0.44
Q9    1   0.5186 -0.0848  0.3936  11.00000  0.05    0.44
Q10   1   0.5187  0.0874  0.3935  11.00000  0.05    0.43
;
_shelx_res_checksum              99905
loop_
_space_group_symop_operation_xyz
'x, y, z'
'-x, y+1/2, -z+1/2'
'-x, -y, -z'
'x, -y-1/2, z-1/2'
loop_
_atom_site_label
_atom_site_type_symbol
_atom_site_fract_x
_atom_site_fract_y
_atom_site_fract_z
_atom_site_U_iso_or_equiv
_atom_site_adp_type
_atom_site_occupancy
_atom_site_site_symmetry_order
_atom_site_calc_flag
_atom_site_refinement_flags_posn
_atom_site_refinement_flags_adp
Eu1 Eu 0.00043(2) -0.00555(5) 0.38640(2) 0.03860(13) Uani 1 1 d . .
N1 N -0.0234(3) -0.1794(5) 0.3709(2) 0.0429(18) Uani 1 1 d . U
N2 N 0.0701(2) -0.1163(5) 0.41728(17) 0.0418(17) Uani 1 1 d . U
N3 N 0.0496(2) 0.0325(4) 0.35582(17) 0.0469(18) Uani 1 1 d . U
N4 N -0.0492(2) -0.0329(5) 0.30791(17) 0.0451(18) Uani 1 1 d . U
N5 N -0.07868(19) 0.0039(6) 0.37709(16) 0.0498(15) Uani 1 1 d . U
N6 N 0.0042(2) -0.0491(5) 0.45324(17) 0.0426(17) Uani 1 1 d . U
N7 N 0.0558(2) 0.1058(5) 0.44473(17) 0.0408(16) Uani 1 1 d . U
N8 N -0.0272(2) 0.1657(5) 0.36629(19) 0.0412(18) Uani 1 1 d . U
N51 N 0.0410(2) -0.2624(5) 0.43569(19) 0.0476(17) Uani 1 1 d . U
N52 N 0.13007(19) -0.0085(6) 0.41916(17) 0.0486(15) Uani 1 1 d . U
N54 N -0.1023(2) -0.1633(5) 0.3035(2) 0.0509(18) Uani 1 1 d . U
N55 N -0.0746(3) -0.1262(5) 0.4245(2) 0.0563(18) Uani 1 1 d . U
N56 N 0.0874(2) -0.0065(6) 0.50720(15) 0.0506(15) Uani 1 1 d . U
N58 N -0.1150(2) 0.1352(6) 0.3222(2) 0.0556(19) Uani 1 1 d . U
C1A C -0.0714(3) -0.2061(7) 0.3403(3) 0.049(2) Uani 1 1 d . U
C1B C -0.0828(3) -0.2980(7) 0.3543(3) 0.060(2) Uani 1 1 d . U
C1C C -0.1247(3) -0.3552(8) 0.3367(3) 0.079(3) Uani 1 1 d . U
H1C H -0.1530 -0.3356 0.3113 0.095 Uiso 1 1 calc R U
C1D C -0.1232(4) -0.4424(8) 0.3579(3) 0.096(3) Uani 1 1 d . U
H1D H -0.1501 -0.4837 0.3453 0.116 Uiso 1 1 calc R U
C1E C -0.0819(4) -0.4691(8) 0.3977(3) 0.102(3) Uani 1 1 d . U
H1E H -0.0824 -0.5240 0.4129 0.122 Uiso 1 1 calc R U
C1F C -0.0399(4) -0.4122(7) 0.4144(3) 0.078(3) Uani 1 1 d . U
H1F H -0.0116 -0.4310 0.4399 0.094 Uiso 1 1 calc R U
C1G C -0.0408(3) -0.3283(7) 0.3927(3) 0.056(2) Uani 1 1 d . U
C1H C -0.0046(3) -0.2541(7) 0.4021(3) 0.051(2) Uani 1 1 d . U
C2A C 0.0754(3) -0.1964(7) 0.4423(3) 0.049(2) Uani 1 1 d . U
C2B C 0.1256(3) -0.2070(7) 0.4793(3) 0.054(2) Uani 1 1 d . U
C2C C 0.1475(3) -0.2749(7) 0.5128(2) 0.072(2) Uani 1 1 d . U
H2C H 0.1296 -0.3252 0.5153 0.086 Uiso 1 1 calc R U
C2D C 0.1969(3) -0.2656(8) 0.5426(3) 0.084(3) Uani 1 1 d . U
H2D H 0.2127 -0.3110 0.5652 0.100 Uiso 1 1 calc R U
C2E C 0.2238(4) -0.1874(8) 0.5389(3) 0.076(3) Uani 1 1 d . U
H2E H 0.2567 -0.1802 0.5595 0.091 Uiso 1 1 calc R U
C2F C 0.2005(3) -0.1227(7) 0.5045(2) 0.067(2) Uani 1 1 d . U
H2F H 0.2179 -0.0724 0.5014 0.081 Uiso 1 1 calc R U
C2G C 0.1518(3) -0.1318(7) 0.4747(2) 0.051(2) Uani 1 1 d . U
C2H C 0.1164(3) -0.0762(6) 0.4364(2) 0.0475(19) Uani 1 1 d . U
C3A C 0.1001(3) 0.0350(6) 0.3813(2) 0.053(2) Uani 1 1 d . U
C3B C 0.1160(3) 0.0943(7) 0.3583(3) 0.063(2) Uani 1 1 d . U
C3C C 0.1628(3) 0.1197(8) 0.3711(3) 0.104(3) Uani 1 1 d . U
H3C H 0.1891 0.0995 0.3978 0.124 Uiso 1 1 calc R U
C3D C 0.1699(3) 0.1775(8) 0.3423(3) 0.104(3) Uani 1 1 d . U
H3D H 0.2010 0.1948 0.3496 0.125 Uiso 1 1 calc R U
C3E C 0.1294(3) 0.2079(7) 0.3027(3) 0.090(3) Uani 1 1 d . U
H3E H 0.1337 0.2472 0.2840 0.108 Uiso 1 1 calc R U
C3F C 0.0837(3) 0.1814(7) 0.2907(3) 0.073(2) Uani 1 1 d . U
H3F H 0.0572 0.2009 0.2640 0.088 Uiso 1 1 calc R U
C3G C 0.0773(3) 0.1239(7) 0.3196(2) 0.053(2) Uani 1 1 d . U
C3H C 0.0356(3) 0.0844(6) 0.3183(2) 0.0477(19) Uani 1 1 d . U
C4A C -0.0537(3) 0.0396(6) 0.2791(2) 0.047(2) Uani 1 1 d . U
C4B C -0.1043(3) 0.0388(6) 0.2413(3) 0.055(2) Uani 1 1 d . U
C4C C -0.1293(3) 0.0982(7) 0.2038(2) 0.068(2) Uani 1 1 d . U
H4C H -0.1141 0.1502 0.1990 0.081 Uiso 1 1 calc R U
C4D C -0.1782(3) 0.0757(8) 0.1739(3) 0.084(3) Uani 1 1 d . U
H4D H -0.1959 0.1138 0.1489 0.101 Uiso 1 1 calc R U
C4E C -0.2010(3) -0.0032(9) 0.1811(2) 0.078(2) Uani 1 1 d . U
H4E H -0.2334 -0.0174 0.1611 0.093 Uiso 1 1 calc R U
C4F C -0.1747(3) -0.0595(7) 0.2182(3) 0.068(2) Uani 1 1 d . U
H4F H -0.1894 -0.1131 0.2228 0.081 Uiso 1 1 calc R U
C4G C -0.1276(3) -0.0377(6) 0.2482(2) 0.052(2) Uani 1 1 d . U
C4H C -0.0912(3) -0.0836(7) 0.2892(2) 0.048(2) Uani 1 1 d . U
C5A C -0.1165(3) 0.0531(7) 0.3413(3) 0.054(2) Uani 1 1 d . U
C5B C -0.1624(3) 0.0038(9) 0.3297(2) 0.0628(19) Uani 1 1 d . U
C5C C -0.2096(3) 0.0202(8) 0.2970(2) 0.082(3) Uani 1 1 d . U
H5C H -0.2172 0.0714 0.2773 0.098 Uiso 1 1 calc R U
C5D C -0.2464(4) -0.0400(8) 0.2934(3) 0.095(3) Uani 1 1 d . U
H5D H -0.2784 -0.0290 0.2713 0.114 Uiso 1 1 calc R U
C5E C -0.2350(4) -0.1152(8) 0.3225(3) 0.099(3) Uani 1 1 d . U
H5E H -0.2595 -0.1558 0.3198 0.118 Uiso 1 1 calc R U
C5F C -0.1869(3) -0.1320(8) 0.3566(3) 0.081(3) Uani 1 1 d . U
H5F H -0.1793 -0.1822 0.3767 0.097 Uiso 1 1 calc R U
C5G C -0.1512(4) -0.0726(8) 0.3594(3) 0.071(2) Uani 1 1 d . U
C5H C -0.0984(3) -0.0690(7) 0.3902(3) 0.056(2) Uani 1 1 d . U
C6A C -0.0274(3) -0.1165(7) 0.4533(2) 0.0467(19) Uani 1 1 d . U
C6B C -0.0027(4) -0.1758(7) 0.4923(3) 0.054(2) Uani 1 1 d . U
C6C C -0.0157(3) -0.2548(7) 0.5083(3) 0.070(2) Uani 1 1 d . U
H6C H -0.0472 -0.2792 0.4921 0.084 Uiso 1 1 calc R U
C6D C 0.0165(4) -0.2970(8) 0.5470(3) 0.091(3) Uani 1 1 d . U
H6D H 0.0075 -0.3493 0.5578 0.109 Uiso 1 1 calc R U
C6E C 0.0638(4) -0.2595(8) 0.5703(3) 0.085(3) Uani 1 1 d . U
H6E H 0.0861 -0.2905 0.5964 0.102 Uiso 1 1 calc R U
C6F C 0.0798(3) -0.1800(7) 0.5574(3) 0.074(3) Uani 1 1 d . U
H6F H 0.1110 -0.1548 0.5744 0.089 Uiso 1 1 calc R U
C6G C 0.0453(3) -0.1403(7) 0.5170(2) 0.052(2) Uani 1 1 d . U
C6H C 0.0486(3) -0.0625(6) 0.4922(3) 0.047(2) Uani 1 1 d . U
C7A C 0.0901(3) 0.0696(6) 0.4851(2) 0.047(2) Uani 1 1 d . U
C7B C 0.1350(3) 0.1267(7) 0.5038(2) 0.056(2) Uani 1 1 d . U
C7C C 0.1790(3) 0.1134(7) 0.5426(3) 0.073(3) Uani 1 1 d . U
H7C H 0.1837 0.0626 0.5618 0.087 Uiso 1 1 calc R U
C7D C 0.2151(4) 0.1793(8) 0.5513(3) 0.089(3) Uani 1 1 d . U
H7D H 0.2447 0.1743 0.5777 0.106 Uiso 1 1 calc R U
C7E C 0.2093(3) 0.2534(8) 0.5222(3) 0.087(3) Uani 1 1 d . U
H7E H 0.2351 0.2947 0.5287 0.104 Uiso 1 1 calc R U
C7F C 0.1639(3) 0.2662(7) 0.4825(2) 0.071(2) Uani 1 1 d . U
H7F H 0.1588 0.3177 0.4635 0.085 Uiso 1 1 calc R U
C7G C 0.1274(3) 0.1978(7) 0.4733(3) 0.054(2) Uani 1 1 d . U
C7H C 0.0769(3) 0.1891(7) 0.4376(3) 0.045(2) Uani 1 1 d . U
C8A C -0.0008(3) 0.2500(7) 0.3701(2) 0.0442(19) Uani 1 1 d . U
C8B C -0.0321(3) 0.3272(7) 0.3410(2) 0.050(2) Uani 1 1 d . U
C8C C -0.0263(3) 0.4221(7) 0.3314(3) 0.069(2) Uani 1 1 d . U
H8C H 0.0043 0.4506 0.3465 0.083 Uiso 1 1 calc R U
C8D C -0.0654(3) 0.4773(8) 0.2995(3) 0.079(3) Uani 1 1 d . U
H8D H -0.0604 0.5417 0.2936 0.095 Uiso 1 1 calc R U
C8E C -0.1105(4) 0.4380(8) 0.2771(3) 0.082(3) Uani 1 1 d . U
H8E H -0.1362 0.4751 0.2556 0.098 Uiso 1 1 calc R U
C8F C -0.1186(3) 0.3405(8) 0.2864(3) 0.078(3) Uani 1 1 d . U
H8F H -0.1495 0.3132 0.2714 0.094 Uiso 1 1 calc R U
C8G C -0.0790(3) 0.2864(7) 0.3185(3) 0.056(2) Uani 1 1 d . U
C8H C -0.0753(3) 0.1889(7) 0.3354(3) 0.049(2) Uani 1 1 d . U
C53 C -0.0138(3) 0.0930(6) 0.2824(2) 0.046(2) Uani 1 1 d . U
C57 C 0.0499(3) 0.2597(6) 0.4037(2) 0.0459(19) Uani 1 1 d . U
C101 C -0.02458(19) 0.1578(4) 0.24580(15) 0.060(2) Uani 1 1 d G U
C102 C -0.02824(19) 0.2596(4) 0.24922(13) 0.063(2) Uani 1 1 d G U
H102 H -0.0254 0.2862 0.2740 0.075 Uiso 1 1 calc R U
C103 C -0.0361(2) 0.3217(3) 0.21557(19) 0.066(2) Uani 1 1 d G U
H103 H -0.0386 0.3898 0.2179 0.079 Uiso 1 1 calc R U
C104 C -0.04034(19) 0.2819(4) 0.17850(15) 0.071(2) Uani 1 1 d G U
H104 H -0.0456 0.3234 0.1560 0.085 Uiso 1 1 calc R U
C105 C -0.03667(19) 0.1801(5) 0.17508(14) 0.072(2) Uani 1 1 d G U
H105 H -0.0395 0.1535 0.1503 0.086 Uiso 1 1 calc R U
C106 C -0.0288(2) 0.1180(3) 0.20873(19) 0.067(2) Uani 1 1 d G U
H106 H -0.0263 0.0499 0.2064 0.080 Uiso 1 1 calc R U
C201 C 0.07519(19) 0.3508(4) 0.40399(19) 0.062(2) Uani 1 1 d G U
C202 C 0.08130(19) 0.4300(5) 0.43090(15) 0.072(2) Uani 1 1 d G U
H202 H 0.0684 0.4270 0.4482 0.087 Uiso 1 1 calc R U
C203 C 0.1067(2) 0.5137(4) 0.43188(15) 0.081(2) Uani 1 1 d G U
H203 H 0.1108 0.5667 0.4499 0.098 Uiso 1 1 calc R U
C204 C 0.12594(19) 0.5182(4) 0.40595(19) 0.096(3) Uani 1 1 d G U
H204 H 0.1429 0.5741 0.4066 0.115 Uiso 1 1 calc R U
C205 C 0.11983(19) 0.4390(5) 0.37904(16) 0.091(3) Uani 1 1 d G U
H205 H 0.1327 0.4420 0.3617 0.109 Uiso 1 1 calc R U
C206 C 0.0945(2) 0.3553(4) 0.37806(16) 0.076(2) Uani 1 1 d G U
H206 H 0.0904 0.3023 0.3601 0.091 Uiso 1 1 calc R U
Eu2 Eu 0.48136(2) 0.00340(5) 0.37723(2) 0.04077(14) Uani 1 1 d . .
N9 N 0.5573(2) 0.0159(6) 0.44709(16) 0.0463(16) Uani 1 1 d . U
N10 N 0.4705(2) -0.0352(5) 0.43713(18) 0.0498(18) Uani 1 1 d . U
N11 N 0.4226(2) 0.1163(5) 0.37593(18) 0.0474(17) Uani 1 1 d . U
N12 N 0.5127(2) 0.1703(5) 0.3861(2) 0.0454(19) Uani 1 1 d . U
N13 N 0.5063(3) -0.1721(5) 0.38670(19) 0.0479(19) Uani 1 1 d . U
N14 N 0.4120(2) -0.1080(5) 0.33912(18) 0.0374(17) Uani 1 1 d . U
N15 N 0.4365(2) 0.0385(5) 0.29889(16) 0.0456(18) Uani 1 1 d . U
N16 N 0.5333(2) -0.0284(5) 0.34903(17) 0.0415(17) Uani 1 1 d . U
N59 N 0.5491(3) -0.1104(5) 0.48940(19) 0.0538(18) Uani 1 1 d . U
N60 N 0.3852(2) 0.0029(7) 0.40302(18) 0.0555(16) Uani 1 1 d . U
N62 N 0.5979(2) 0.1382(6) 0.4295(2) 0.060(2) Uani 1 1 d . U
N63 N 0.4399(3) -0.2530(5) 0.3868(2) 0.0590(19) Uani 1 1 d . U
N64 N 0.35429(19) -0.0037(7) 0.27945(16) 0.0554(15) Uani 1 1 d . U
N66 N 0.5866(2) -0.1570(5) 0.39954(19) 0.0516(18) Uani 1 1 d . U
C9A C 0.5979(3) 0.0580(7) 0.4485(2) 0.0466(19) Uani 1 1 d . U
C9B C 0.6409(3) 0.0034(9) 0.4815(2) 0.0558(18) Uani 1 1 d . U
C9C C 0.6886(3) 0.0131(9) 0.4949(2) 0.085(2) Uani 1 1 d . U
H9C H 0.6984 0.0603 0.4825 0.102 Uiso 1 1 calc R U
C9D C 0.7229(4) -0.0512(8) 0.5284(3) 0.111(3) Uani 1 1 d . U
H9D H 0.7555 -0.0485 0.5376 0.133 Uiso 1 1 calc R U
C9E C 0.7070(4) -0.1173(9) 0.5470(3) 0.118(3) Uani 1 1 d . U
H9E H 0.7302 -0.1548 0.5705 0.142 Uiso 1 1 calc R U
C9F C 0.6589(3) -0.1316(8) 0.5330(3) 0.095(3) Uani 1 1 d . U
H9F H 0.6487 -0.1812 0.5440 0.114 Uiso 1 1 calc R U
C9G C 0.6264(3) -0.0635(7) 0.5002(3) 0.064(2) Uani 1 1 d . U
C9H C 0.5734(3) -0.0557(7) 0.4780(2) 0.049(2) Uani 1 1 d . U
C10A C 0.5014(3) -0.1005(7) 0.4699(3) 0.056(2) Uani 1 1 d . U
C10B C 0.4727(4) -0.1576(7) 0.4827(3) 0.061(2) Uani 1 1 d . U
C10C C 0.4889(4) -0.2316(7) 0.5151(3) 0.084(3) Uani 1 1 d . U
H10C H 0.5212 -0.2501 0.5330 0.101 Uiso 1 1 calc R U
C10D C 0.4504(4) -0.2752(8) 0.5175(3) 0.093(3) Uani 1 1 d . U
H10D H 0.4577 -0.3263 0.5372 0.112 Uiso 1 1 calc R U
C10E C 0.4029(4) -0.2439(7) 0.4916(3) 0.084(3) Uani 1 1 d . U
H10E H 0.3793 -0.2727 0.4949 0.101 Uiso 1 1 calc R U
C10F C 0.3902(3) -0.1705(7) 0.4609(3) 0.075(2) Uani 1 1 d . U
H10F H 0.3580 -0.1505 0.4433 0.090 Uiso 1 1 calc R U
C10G C 0.4256(3) -0.1270(7) 0.4563(3) 0.061(2) Uani 1 1 d . U
C10H C 0.4243(3) -0.0490(6) 0.4297(2) 0.055(2) Uani 1 1 d . U
C11A C 0.3851(3) 0.0773(7) 0.3790(3) 0.058(2) Uani 1 1 d . U
C11B C 0.3404(3) 0.1293(7) 0.3499(3) 0.061(2) Uani 1 1 d . U
C11C C 0.2949(3) 0.1151(8) 0.3401(3) 0.080(3) Uani 1 1 d . U
H11C H 0.2871 0.0679 0.3540 0.096 Uiso 1 1 calc R U
C11D C 0.2597(4) 0.1780(8) 0.3068(3) 0.090(3) Uani 1 1 d . U
H11D H 0.2279 0.1698 0.2993 0.108 Uiso 1 1 calc R U
C11E C 0.2675(3) 0.2494(8) 0.2844(3) 0.096(3) Uani 1 1 d . U
H11E H 0.2424 0.2866 0.2623 0.115 Uiso 1 1 calc R U
C11F C 0.3176(3) 0.2630(7) 0.2976(3) 0.071(2) Uani 1 1 d . U
H11F H 0.3257 0.3126 0.2849 0.086 Uiso 1 1 calc R U
C11G C 0.3528(4) 0.2030(8) 0.3287(3) 0.063(2) Uani 1 1 d . U
C11H C 0.4035(3) 0.1950(7) 0.3464(3) 0.053(2) Uani 1 1 d . U
C12A C 0.4862(3) 0.2569(7) 0.3650(2) 0.051(2) Uani 1 1 d . U
C12B C 0.5193(3) 0.3342(7) 0.3682(2) 0.053(2) Uani 1 1 d . U
C12C C 0.5152(3) 0.4361(7) 0.3543(3) 0.073(3) Uani 1 1 d . U
H12C H 0.4852 0.4674 0.3399 0.088 Uiso 1 1 calc R U
C12D C 0.5549(3) 0.4852(9) 0.3623(3) 0.084(3) Uani 1 1 d . U
H12D H 0.5520 0.5503 0.3527 0.101 Uiso 1 1 calc R U
C12E C 0.6003(4) 0.4408(7) 0.3847(3) 0.085(3) Uani 1 1 d . U
H12E H 0.6270 0.4758 0.3890 0.102 Uiso 1 1 calc R U
C12F C 0.6062(3) 0.3430(7) 0.4008(3) 0.073(3) Uani 1 1 d . U
H12F H 0.6368 0.3147 0.4173 0.087 Uiso 1 1 calc R U
C12G C 0.5669(3) 0.2922(7) 0.3920(2) 0.052(2) Uani 1 1 d . U
C12H C 0.5606(4) 0.1928(7) 0.4023(3) 0.051(2) Uani 1 1 d . U
C13A C 0.5548(4) -0.1976(8) 0.4052(3) 0.053(2) Uani 1 1 d . U
C13B C 0.5647(4) -0.2899(7) 0.4303(3) 0.065(2) Uani 1 1 d . U
C13C C 0.6091(4) -0.3396(8) 0.4555(3) 0.086(3) Uani 1 1 d . U
H13C H 0.6378 -0.3196 0.4581 0.103 Uiso 1 1 calc R U
C13D C 0.6049(4) -0.4276(8) 0.4774(3) 0.112(3) Uani 1 1 d . U
H13D H 0.6319 -0.4671 0.4946 0.135 Uiso 1 1 calc R U
C13E C 0.5623(4) -0.4513(8) 0.4727(3) 0.095(3) Uani 1 1 d . U
H13E H 0.5616 -0.5083 0.4867 0.115 Uiso 1 1 calc R U
C13F C 0.5191(4) -0.3975(8) 0.4487(3) 0.085(3) Uani 1 1 d . U
H13F H 0.4908 -0.4140 0.4475 0.102 Uiso 1 1 calc R U
C13G C 0.5228(3) -0.3170(8) 0.4267(3) 0.061(2) Uani 1 1 d . U
C13H C 0.4858(3) -0.2436(7) 0.3993(2) 0.054(2) Uani 1 1 d . U
C14A C 0.4067(4) -0.1900(8) 0.3587(3) 0.058(2) Uani 1 1 d . U
C14B C 0.3554(4) -0.2058(8) 0.3415(3) 0.067(2) Uani 1 1 d . U
C14C C 0.3326(3) -0.2739(8) 0.3537(3) 0.088(3) Uani 1 1 d . U
H14C H 0.3498 -0.3214 0.3751 0.105 Uiso 1 1 calc R U
C14D C 0.2818(4) -0.2654(9) 0.3312(3) 0.109(3) Uani 1 1 d . U
H14D H 0.2652 -0.3123 0.3370 0.131 Uiso 1 1 calc R U
C14E C 0.2544(4) -0.1911(9) 0.3005(3) 0.114(3) Uani 1 1 d . U
H14E H 0.2211 -0.1850 0.2874 0.136 Uiso 1 1 calc R U
C14F C 0.2826(4) -0.1249(8) 0.2909(3) 0.087(3) Uani 1 1 d . U
H14F H 0.2665 -0.0760 0.2699 0.104 Uiso 1 1 calc R U
C14G C 0.3300(4) -0.1313(8) 0.3107(3) 0.069(2) Uani 1 1 d . U
C14H C 0.3664(3) -0.0718(7) 0.3100(3) 0.054(2) Uani 1 1 d . U
C15A C 0.3866(3) 0.0420(6) 0.2742(2) 0.049(2) Uani 1 1 d . U
C15B C 0.3692(3) 0.1012(7) 0.2350(2) 0.056(2) Uani 1 1 d . U
C15C C 0.3232(3) 0.1256(7) 0.2005(3) 0.078(3) Uani 1 1 d . U
H15C H 0.2957 0.1045 0.1998 0.094 Uiso 1 1 calc R U
C15D C 0.3194(4) 0.1841(8) 0.1661(3) 0.091(3) Uani 1 1 d . U
H15D H 0.2893 0.2037 0.1428 0.109 Uiso 1 1 calc R U
C15E C 0.3621(3) 0.2115(7) 0.1682(3) 0.084(3) Uani 1 1 d . U
H15E H 0.3595 0.2480 0.1454 0.100 Uiso 1 1 calc R U
C15F C 0.4078(3) 0.1866(6) 0.2027(2) 0.066(2) Uani 1 1 d . U
H15F H 0.4349 0.2081 0.2029 0.080 Uiso 1 1 calc R U
C15G C 0.4136(3) 0.1309(6) 0.2366(2) 0.053(2) Uani 1 1 d . U
C15H C 0.4532(3) 0.0940(6) 0.2767(2) 0.0438(19) Uani 1 1 d . U
C16A C 0.5415(3) 0.0466(6) 0.3271(2) 0.0443(19) Uani 1 1 d . U
C16B C 0.5914(3) 0.0495(6) 0.3409(2) 0.048(2) Uani 1 1 d . U
C16C C 0.6203(3) 0.1106(7) 0.3304(2) 0.065(2) Uani 1 1 d . U
H16C H 0.6066 0.1632 0.3109 0.078 Uiso 1 1 calc R U
C16D C 0.6701(3) 0.0871(7) 0.3509(3) 0.080(3) Uani 1 1 d . U
H16D H 0.6892 0.1243 0.3443 0.096 Uiso 1 1 calc R U
C16E C 0.6909(3) 0.0108(9) 0.3804(2) 0.083(2) Uani 1 1 d . U
H16E H 0.7240 -0.0007 0.3943 0.100 Uiso 1 1 calc R U
C16F C 0.6624(3) -0.0504(6) 0.3898(2) 0.063(2) Uani 1 1 d . U
H16F H 0.6765 -0.1031 0.4091 0.076 Uiso 1 1 calc R U
C16G C 0.6128(3) -0.0308(6) 0.3697(2) 0.048(2) Uani 1 1 d . U
C16H C 0.5762(3) -0.0772(6) 0.3743(3) 0.0443(19) Uani 1 1 d . U
C61 C 0.4345(3) 0.2680(7) 0.3452(2) 0.053(2) Uani 1 1 d . U
C65 C 0.5046(3) 0.1010(6) 0.2910(2) 0.048(2) Uani 1 1 d . U
C301 C 0.4136(2) 0.3614(4) 0.3235(2) 0.067(2) Uani 1 1 d G U
C302 C 0.4057(2) 0.4357(6) 0.34544(15) 0.092(3) Uani 1 1 d G U
H302 H 0.4133 0.4248 0.3736 0.111 Uiso 1 1 calc R U
C303 C 0.3865(2) 0.5263(5) 0.3253(2) 0.121(4) Uani 1 1 d G U
H303 H 0.3812 0.5760 0.3399 0.145 Uiso 1 1 calc R U
C304 C 0.3753(2) 0.5425(4) 0.2832(2) 0.114(4) Uani 1 1 d G U
H304 H 0.3624 0.6031 0.2697 0.136 Uiso 1 1 calc R U
C305 C 0.3832(2) 0.4682(5) 0.26123(15) 0.091(3) Uani 1 1 d G U
H305 H 0.3756 0.4791 0.2331 0.109 Uiso 1 1 calc R U
C306 C 0.4024(2) 0.3776(4) 0.2814(2) 0.075(2) Uani 1 1 d G U
H306 H 0.4077 0.3279 0.2667 0.090 Uiso 1 1 calc R U
C401 C 0.51707(18) 0.1676(4) 0.26793(16) 0.058(2) Uani 1 1 d G U
C402 C 0.52286(19) 0.1307(3) 0.23538(17) 0.061(2) Uani 1 1 d G U
H402 H 0.5194 0.0631 0.2293 0.073 Uiso 1 1 calc R U
C403 C 0.53377(18) 0.1947(5) 0.21191(14) 0.069(2) Uani 1 1 d G U
H403 H 0.5376 0.1700 0.1901 0.083 Uiso 1 1 calc R U
C404 C 0.53889(19) 0.2957(4) 0.22098(17) 0.070(2) Uani 1 1 d G U
H404 H 0.5462 0.3385 0.2053 0.085 Uiso 1 1 calc R U
C405 C 0.53310(19) 0.3326(3) 0.25353(19) 0.075(2) Uani 1 1 d G U
H405 H 0.5365 0.4002 0.2596 0.090 Uiso 1 1 calc R U
C406 C 0.52219(18) 0.2686(4) 0.27701(14) 0.065(2) Uani 1 1 d G U
H406 H 0.5183 0.2933 0.2988 0.078 Uiso 1 1 calc R U
loop_
_atom_site_aniso_label
_atom_site_aniso_U_11
_atom_site_aniso_U_22
_atom_site_aniso_U_33
_atom_site_aniso_U_23
_atom_site_aniso_U_13
_atom_site_aniso_U_12
Eu1 0.0460(3) 0.0426(4) 0.0372(3) -0.0004(4) 0.0290(2) -0.0006(4)
N1 0.062(4) 0.032(5) 0.047(4) -0.002(3) 0.038(4) -0.007(4)
N2 0.053(4) 0.048(5) 0.035(4) 0.009(3) 0.031(3) 0.005(3)
N3 0.053(4) 0.059(5) 0.040(3) 0.008(3) 0.032(3) -0.001(3)
N4 0.051(4) 0.057(5) 0.031(3) -0.003(3) 0.024(3) -0.007(3)
N5 0.058(4) 0.055(4) 0.048(3) -0.011(4) 0.036(3) -0.009(4)
N6 0.065(4) 0.049(4) 0.033(3) 0.002(3) 0.039(3) -0.001(3)
N7 0.053(4) 0.032(4) 0.037(3) -0.010(3) 0.024(3) 0.000(3)
N8 0.047(4) 0.045(5) 0.041(4) 0.007(3) 0.030(3) 0.004(4)
N51 0.062(4) 0.046(5) 0.053(4) 0.002(3) 0.043(3) 0.009(4)
N52 0.052(3) 0.061(4) 0.044(3) 0.014(4) 0.033(3) 0.011(4)
N54 0.053(4) 0.056(5) 0.048(4) 0.001(3) 0.030(3) -0.006(4)
N55 0.069(4) 0.061(5) 0.064(4) -0.003(4) 0.052(4) -0.007(4)
N56 0.066(4) 0.056(5) 0.038(3) 0.001(4) 0.034(3) 0.004(4)
N58 0.053(4) 0.061(5) 0.063(4) -0.012(4) 0.038(3) -0.006(4)
C1A 0.060(5) 0.057(5) 0.051(4) -0.009(4) 0.044(4) -0.009(4)
C1B 0.071(5) 0.072(6) 0.058(4) -0.005(4) 0.049(4) -0.007(4)
C1C 0.086(6) 0.081(7) 0.081(5) -0.005(5) 0.052(5) -0.015(5)
C1D 0.092(6) 0.091(7) 0.091(6) 0.000(5) 0.039(5) -0.009(6)
C1E 0.105(7) 0.087(7) 0.091(6) 0.005(5) 0.038(5) -0.009(6)
C1F 0.092(6) 0.075(7) 0.076(5) 0.000(5) 0.051(5) -0.006(5)
C1G 0.074(5) 0.058(5) 0.053(4) -0.002(4) 0.046(4) -0.005(4)
C1H 0.067(5) 0.049(5) 0.054(4) 0.002(4) 0.044(4) -0.004(4)
C2A 0.060(5) 0.052(5) 0.043(4) -0.001(4) 0.032(4) -0.002(4)
C2B 0.068(5) 0.060(5) 0.040(4) 0.000(4) 0.032(4) 0.013(4)
C2C 0.078(6) 0.065(6) 0.061(5) 0.004(4) 0.029(4) 0.016(5)
C2D 0.080(6) 0.079(7) 0.065(5) 0.000(5) 0.022(5) 0.014(5)
C2E 0.074(6) 0.078(7) 0.064(5) 0.006(5) 0.030(5) 0.011(5)
C2F 0.069(5) 0.079(6) 0.052(5) 0.008(4) 0.031(4) -0.003(5)
C2G 0.065(5) 0.062(5) 0.037(4) 0.003(4) 0.036(4) 0.011(4)
C2H 0.055(4) 0.061(5) 0.040(4) 0.001(4) 0.035(3) 0.009(4)
C3A 0.051(4) 0.070(5) 0.049(4) 0.012(4) 0.033(3) 0.004(4)
C3B 0.049(5) 0.088(5) 0.063(5) 0.009(4) 0.037(4) -0.002(4)
C3C 0.070(6) 0.133(7) 0.088(6) 0.030(5) 0.029(5) -0.015(6)
C3D 0.076(6) 0.149(7) 0.079(6) 0.017(5) 0.035(5) -0.023(6)
C3E 0.068(6) 0.128(7) 0.072(5) 0.003(5) 0.037(5) -0.019(5)
C3F 0.060(5) 0.103(6) 0.068(5) -0.003(5) 0.042(4) -0.016(5)
C3G 0.046(4) 0.075(5) 0.051(4) 0.007(4) 0.036(4) -0.006(4)
C3H 0.048(4) 0.069(5) 0.034(4) 0.010(4) 0.028(3) -0.001(4)
C4A 0.046(4) 0.061(5) 0.040(4) 0.003(3) 0.026(3) -0.006(3)
C4B 0.047(4) 0.071(6) 0.054(4) 0.002(4) 0.030(3) 0.006(4)
C4C 0.052(5) 0.089(6) 0.069(5) 0.005(4) 0.037(4) 0.007(5)
C4D 0.053(5) 0.103(7) 0.088(5) 0.002(5) 0.032(4) 0.005(5)
C4E 0.051(5) 0.095(6) 0.076(5) 0.000(6) 0.026(4) 0.002(6)
C4F 0.054(5) 0.088(6) 0.069(5) -0.006(4) 0.038(4) -0.002(4)
C4G 0.049(5) 0.076(5) 0.046(4) 0.001(4) 0.035(3) -0.004(4)
C4H 0.047(4) 0.056(5) 0.044(4) -0.008(4) 0.027(3) -0.004(4)
C5A 0.050(4) 0.068(5) 0.057(4) -0.020(4) 0.038(4) -0.009(4)
C5B 0.058(4) 0.077(5) 0.066(4) -0.018(5) 0.041(3) -0.004(5)
C5C 0.063(5) 0.095(7) 0.084(5) -0.011(5) 0.036(4) -0.002(5)
C5D 0.059(5) 0.112(8) 0.106(6) -0.022(5) 0.039(5) -0.004(5)
C5E 0.074(6) 0.122(8) 0.106(6) -0.016(5) 0.053(5) -0.005(6)
C5F 0.080(6) 0.102(7) 0.082(5) -0.011(5) 0.057(5) -0.014(5)
C5G 0.070(5) 0.082(6) 0.076(5) -0.005(4) 0.049(4) -0.010(4)
C5H 0.061(5) 0.064(5) 0.062(5) -0.011(4) 0.046(4) -0.003(4)
C6A 0.064(5) 0.053(5) 0.041(4) 0.000(4) 0.040(4) 0.000(4)
C6B 0.075(5) 0.061(5) 0.048(5) 0.005(4) 0.049(4) 0.001(4)
C6C 0.081(6) 0.069(6) 0.072(5) 0.006(5) 0.049(4) 0.001(5)
C6D 0.100(6) 0.075(6) 0.091(6) 0.010(5) 0.047(5) 0.009(6)
C6E 0.106(6) 0.076(7) 0.079(6) 0.011(5) 0.054(5) 0.018(6)
C6F 0.095(6) 0.076(6) 0.072(5) 0.017(5) 0.058(4) 0.020(5)
C6G 0.072(5) 0.060(5) 0.045(4) 0.006(4) 0.045(4) 0.013(4)
C6H 0.067(5) 0.047(5) 0.041(4) 0.001(4) 0.038(4) -0.005(4)
C7A 0.061(5) 0.049(5) 0.038(4) -0.001(4) 0.030(4) -0.002(4)
C7B 0.064(5) 0.063(5) 0.041(4) -0.001(4) 0.029(4) -0.004(4)
C7C 0.073(6) 0.077(6) 0.060(5) -0.009(5) 0.031(4) -0.006(5)
C7D 0.063(6) 0.088(7) 0.080(6) -0.009(5) 0.015(5) 0.007(5)
C7E 0.059(5) 0.101(7) 0.087(6) -0.004(5) 0.031(5) -0.007(5)
C7F 0.057(5) 0.089(6) 0.066(5) -0.005(5) 0.033(4) -0.008(5)
C7G 0.054(5) 0.071(5) 0.041(4) -0.010(4) 0.029(4) -0.003(4)
C7H 0.047(4) 0.055(5) 0.038(4) -0.003(4) 0.025(3) -0.007(4)
C8A 0.049(4) 0.049(5) 0.043(4) 0.005(4) 0.030(3) 0.000(4)
C8B 0.062(5) 0.052(5) 0.052(4) 0.003(4) 0.041(4) 0.000(4)
C8C 0.066(5) 0.071(6) 0.072(5) 0.006(5) 0.039(4) -0.006(5)
C8D 0.076(6) 0.078(7) 0.082(5) 0.011(5) 0.041(5) 0.006(5)
C8E 0.079(6) 0.088(7) 0.071(5) 0.011(5) 0.035(5) 0.019(6)
C8F 0.064(5) 0.076(6) 0.074(5) -0.006(5) 0.023(4) 0.004(5)
C8G 0.058(5) 0.060(5) 0.056(4) -0.006(4) 0.034(4) 0.008(4)
C8H 0.051(5) 0.053(5) 0.050(4) -0.009(4) 0.032(4) 0.005(4)
C53 0.058(4) 0.058(5) 0.031(4) 0.006(3) 0.029(3) -0.001(4)
C57 0.058(4) 0.054(5) 0.040(4) -0.003(4) 0.036(3) -0.007(4)
C101 0.074(4) 0.068(5) 0.048(4) -0.006(4) 0.040(4) -0.002(4)
C102 0.087(5) 0.067(6) 0.059(4) -0.009(4) 0.055(4) -0.008(5)
C103 0.089(5) 0.069(6) 0.058(5) -0.003(4) 0.052(4) -0.010(5)
C104 0.091(5) 0.072(6) 0.069(5) -0.005(5) 0.056(4) -0.007(5)
C105 0.092(5) 0.088(6) 0.059(5) -0.017(5) 0.055(4) -0.006(5)
C106 0.081(5) 0.074(6) 0.053(5) -0.005(4) 0.041(4) 0.002(5)
C201 0.066(5) 0.063(5) 0.068(5) -0.005(4) 0.043(4) -0.015(4)
C202 0.080(6) 0.074(7) 0.075(5) -0.014(5) 0.049(4) -0.013(5)
C203 0.094(6) 0.070(6) 0.088(5) -0.003(5) 0.054(4) -0.005(5)
C204 0.113(6) 0.067(7) 0.098(6) 0.002(5) 0.050(5) -0.020(6)
C205 0.110(6) 0.084(7) 0.095(6) -0.001(5) 0.066(5) -0.026(5)
C206 0.096(6) 0.064(6) 0.083(5) -0.003(5) 0.058(4) -0.020(5)
Eu2 0.0487(3) 0.0470(4) 0.0373(3) -0.0053(4) 0.0303(2) -0.0047(4)
N9 0.050(4) 0.058(5) 0.035(3) -0.011(3) 0.025(3) 0.000(4)
N10 0.063(4) 0.060(5) 0.049(4) -0.003(3) 0.045(3) -0.005(3)
N11 0.052(4) 0.060(5) 0.045(4) -0.015(3) 0.036(3) 0.002(3)
N12 0.043(4) 0.053(5) 0.048(4) 0.003(3) 0.030(4) -0.001(4)
N13 0.065(5) 0.052(5) 0.042(4) -0.011(3) 0.039(4) -0.009(4)
N14 0.045(3) 0.051(4) 0.030(3) 0.001(3) 0.030(3) -0.002(3)
N15 0.053(4) 0.062(5) 0.030(3) 0.001(3) 0.027(3) 0.002(3)
N16 0.044(4) 0.051(5) 0.042(3) 0.008(3) 0.032(3) 0.003(3)
N59 0.062(4) 0.063(5) 0.046(4) -0.003(3) 0.036(3) -0.001(4)
N60 0.070(4) 0.068(5) 0.047(3) -0.006(4) 0.045(3) -0.010(5)
N62 0.054(4) 0.062(5) 0.056(4) 0.001(4) 0.024(4) 0.001(4)
N63 0.066(5) 0.079(5) 0.053(4) -0.009(4) 0.046(4) -0.013(4)
N64 0.050(4) 0.083(5) 0.047(3) -0.016(4) 0.035(3) -0.006(5)
N66 0.053(4) 0.061(5) 0.049(4) -0.002(3) 0.033(3) 0.000(4)
C9A 0.058(4) 0.054(5) 0.038(4) -0.004(4) 0.032(3) -0.002(4)
C9B 0.062(4) 0.069(5) 0.046(4) 0.007(4) 0.035(3) 0.002(5)
C9C 0.057(5) 0.114(7) 0.081(5) 0.036(5) 0.036(4) 0.009(6)
C9D 0.058(6) 0.143(8) 0.108(6) 0.048(5) 0.028(5) 0.007(5)
C9E 0.059(6) 0.135(8) 0.109(6) 0.042(5) 0.011(5) 0.006(6)
C9F 0.070(6) 0.114(7) 0.076(5) 0.017(5) 0.022(5) 0.004(6)
C9G 0.061(5) 0.077(5) 0.055(5) -0.005(4) 0.031(4) 0.000(4)
C9H 0.058(4) 0.062(5) 0.036(4) -0.005(4) 0.031(4) -0.009(4)
C10A 0.076(5) 0.058(5) 0.043(4) -0.004(4) 0.039(4) -0.006(4)
C10B 0.099(5) 0.066(5) 0.041(4) -0.008(4) 0.053(4) -0.016(4)
C10C 0.117(6) 0.082(7) 0.073(5) -0.016(5) 0.064(5) -0.025(5)
C10D 0.122(7) 0.088(7) 0.078(6) -0.011(5) 0.059(5) -0.026(6)
C10E 0.114(6) 0.091(7) 0.073(6) -0.008(5) 0.067(5) -0.028(6)
C10F 0.099(6) 0.074(6) 0.064(5) -0.009(4) 0.051(4) -0.022(5)
C10G 0.087(5) 0.067(5) 0.052(4) -0.011(4) 0.053(4) -0.017(4)
C10H 0.076(5) 0.068(5) 0.042(4) -0.010(4) 0.046(4) -0.012(4)
C11A 0.061(5) 0.071(5) 0.054(4) -0.009(4) 0.039(4) -0.003(4)
C11B 0.060(5) 0.082(5) 0.061(4) -0.009(4) 0.045(4) 0.000(4)
C11C 0.068(6) 0.109(7) 0.076(5) -0.011(5) 0.048(5) -0.001(5)
C11D 0.065(6) 0.110(7) 0.104(6) 0.001(5) 0.051(5) 0.004(5)
C11E 0.069(6) 0.098(7) 0.101(6) 0.009(5) 0.032(5) 0.011(5)
C11F 0.062(5) 0.088(6) 0.072(5) 0.002(4) 0.040(4) 0.009(5)
C11G 0.064(5) 0.078(6) 0.055(5) -0.002(4) 0.038(4) 0.004(4)
C11H 0.056(5) 0.067(5) 0.043(4) 0.002(4) 0.031(4) -0.001(4)
C12A 0.059(5) 0.055(5) 0.050(4) 0.000(4) 0.037(4) 0.001(4)
C12B 0.063(5) 0.061(5) 0.055(4) -0.001(4) 0.043(4) 0.001(4)
C12C 0.075(6) 0.077(6) 0.073(5) 0.007(5) 0.042(5) 0.008(5)
C12D 0.076(6) 0.072(6) 0.099(5) 0.004(5) 0.044(5) 0.000(6)
C12E 0.072(6) 0.078(7) 0.098(6) 0.008(5) 0.042(5) -0.006(5)
C12F 0.065(5) 0.072(6) 0.080(5) 0.005(5) 0.038(4) -0.003(5)
C12G 0.062(5) 0.058(5) 0.051(4) -0.001(4) 0.041(4) 0.002(4)
C12H 0.053(5) 0.053(5) 0.048(4) 0.002(4) 0.028(4) 0.001(4)
C13A 0.068(5) 0.061(5) 0.043(4) -0.005(4) 0.039(4) 0.000(4)
C13B 0.082(5) 0.069(6) 0.047(4) 0.006(4) 0.037(4) 0.005(4)
C13C 0.094(6) 0.081(7) 0.078(5) 0.020(5) 0.044(5) 0.018(5)
C13D 0.102(7) 0.089(7) 0.102(6) 0.019(5) 0.026(6) 0.013(6)
C13E 0.099(7) 0.087(7) 0.085(5) 0.017(5) 0.038(6) -0.003(6)
C13F 0.091(6) 0.092(7) 0.069(5) 0.010(5) 0.041(5) 0.002(5)
C13G 0.076(5) 0.067(6) 0.055(4) 0.004(4) 0.046(4) 0.000(4)
C13H 0.072(5) 0.061(5) 0.040(4) -0.013(4) 0.038(4) -0.014(4)
C14A 0.065(6) 0.083(6) 0.056(5) -0.013(4) 0.052(4) -0.019(5)
C14B 0.071(5) 0.094(6) 0.060(5) -0.010(4) 0.052(4) -0.023(5)
C14C 0.079(6) 0.112(7) 0.090(5) -0.017(5) 0.057(5) -0.026(5)
C14D 0.087(6) 0.124(8) 0.119(7) -0.018(5) 0.057(6) -0.035(6)
C14E 0.086(7) 0.127(8) 0.116(7) -0.014(6) 0.046(5) -0.029(6)
C14F 0.075(6) 0.110(7) 0.086(5) -0.016(5) 0.051(5) -0.013(5)
C14G 0.063(5) 0.094(6) 0.060(5) -0.015(4) 0.040(4) -0.019(5)
C14H 0.060(5) 0.079(6) 0.042(4) -0.014(4) 0.040(4) -0.012(4)
C15A 0.047(4) 0.069(5) 0.047(4) -0.010(3) 0.036(3) -0.001(4)
C15B 0.056(5) 0.073(5) 0.047(4) -0.001(4) 0.032(4) 0.006(4)
C15C 0.065(5) 0.096(6) 0.064(5) -0.001(5) 0.027(4) 0.010(5)
C15D 0.072(6) 0.104(7) 0.074(5) 0.004(5) 0.023(5) 0.015(5)
C15E 0.079(6) 0.089(6) 0.063(5) 0.013(5) 0.025(5) 0.012(5)
C15F 0.071(5) 0.071(6) 0.051(5) 0.015(4) 0.029(4) 0.013(5)
C15G 0.061(5) 0.055(5) 0.045(4) 0.006(4) 0.031(4) 0.007(4)
C15H 0.049(4) 0.047(5) 0.044(4) 0.000(3) 0.031(3) 0.005(4)
C16A 0.051(4) 0.058(5) 0.037(4) 0.007(3) 0.033(3) 0.008(4)
C16B 0.052(5) 0.063(5) 0.038(4) 0.001(3) 0.030(4) 0.000(4)
C16C 0.051(5) 0.077(6) 0.060(5) 0.007(4) 0.025(4) -0.003(4)
C16D 0.056(5) 0.093(6) 0.075(5) 0.005(5) 0.024(5) -0.007(5)
C16E 0.055(5) 0.088(7) 0.080(5) -0.004(5) 0.018(4) 0.000(5)
C16F 0.056(5) 0.075(6) 0.056(4) -0.003(4) 0.029(4) -0.001(4)
C16G 0.041(4) 0.061(5) 0.049(4) -0.004(3) 0.029(4) -0.001(4)
C16H 0.045(4) 0.044(5) 0.053(4) 0.002(4) 0.033(3) -0.002(4)
C61 0.061(4) 0.061(5) 0.048(4) -0.004(4) 0.038(4) 0.003(4)
C65 0.062(4) 0.058(5) 0.039(4) 0.007(3) 0.036(4) 0.007(4)
C301 0.067(5) 0.064(6) 0.086(5) 0.004(4) 0.052(4) 0.003(4)
C302 0.084(6) 0.083(7) 0.120(6) -0.009(5) 0.062(5) 0.006(5)
C303 0.088(6) 0.093(8) 0.157(7) -0.010(6) 0.049(6) 0.010(5)
C304 0.083(6) 0.073(7) 0.157(7) 0.009(6) 0.046(6) 0.014(5)
C305 0.094(5) 0.065(7) 0.120(6) 0.033(5) 0.062(5) 0.008(5)
C306 0.083(5) 0.062(6) 0.101(6) 0.018(5) 0.063(5) 0.005(5)
C401 0.073(4) 0.062(5) 0.059(4) 0.014(4) 0.049(4) 0.008(4)
C402 0.077(5) 0.073(6) 0.067(5) 0.003(4) 0.060(4) 0.001(4)
C403 0.080(5) 0.077(6) 0.069(5) -0.001(5) 0.052(4) -0.004(5)
C404 0.087(5) 0.067(6) 0.074(5) 0.011(5) 0.054(4) -0.006(5)
C405 0.088(5) 0.075(6) 0.075(5) 0.007(5) 0.053(4) -0.001(5)
C406 0.077(5) 0.066(6) 0.070(5) 0.008(4) 0.052(4) 0.002(5)
loop_
_atom_type_symbol
_atom_type_description
_atom_type_scat_dispersion_real
_atom_type_scat_dispersion_imag
_atom_type_scat_source
C C 0.0181 0.0091 'International Tables Vol C Tables 4.2.6.8 and 6.1.1.4'
H H 0.0000 0.0000 'International Tables Vol C Tables 4.2.6.8 and 6.1.1.4'
Eu Eu -8.9294 11.1857 'International Tables Vol C Tables 4.2.6.8 and 6.1.1.4'
N N 0.0311 0.0180 'International Tables Vol C Tables 4.2.6.8 and 6.1.1.4'
loop_
_geom_angle_atom_site_label_1
_geom_angle_atom_site_label_2
_geom_angle_atom_site_label_3
_geom_angle
N5 Eu1 N7 109.2(2)
N5 Eu1 N2 139.5(2)
N7 Eu1 N2 84.3(2)
N5 Eu1 N1 80.4(2)
N7 Eu1 N1 142.3(2)
N2 Eu1 N1 67.8(2)
N5 Eu1 N6 68.42(19)
N7 Eu1 N6 70.2(2)
N2 Eu1 N6 81.80(19)
N1 Eu1 N6 80.7(2)
N5 Eu1 N8 73.3(2)
N7 Eu1 N8 70.2(2)
N2 Eu1 N8 145.2(2)
N1 Eu1 N8 144.85(19)
N6 Eu1 N8 109.81(19)
N5 Eu1 N4 81.64(18)
N7 Eu1 N4 146.2(2)
N2 Eu1 N4 108.55(19)
N1 Eu1 N4 69.8(2)
N6 Eu1 N4 141.0(2)
N8 Eu1 N4 83.4(2)
N5 Eu1 N3 146.7(2)
N7 Eu1 N3 84.56(19)
N2 Eu1 N3 70.08(19)
N1 Eu1 N3 107.6(2)
N6 Eu1 N3 143.9(2)
N8 Eu1 N3 83.9(2)
N4 Eu1 N3 71.69(19)
C1H N1 C1A 106.4(7)
C1H N1 Eu1 124.1(6)
C1A N1 Eu1 120.9(6)
C2A N2 C2H 105.0(7)
C2A N2 Eu1 123.1(5)
C2H N2 Eu1 119.3(5)
C3H N3 C3A 107.1(6)
C3H N3 Eu1 127.3(5)
C3A N3 Eu1 122.3(4)
C4H N4 C4A 108.1(6)
C4H N4 Eu1 121.7(5)
C4A N4 Eu1 121.0(5)
C5A N5 C5H 108.4(7)
C5A N5 Eu1 120.0(5)
C5H N5 Eu1 124.8(6)
C6A N6 C6H 106.6(7)
C6A N6 Eu1 121.5(5)
C6H N6 Eu1 120.9(5)
C7A N7 C7H 106.3(7)
C7A N7 Eu1 120.9(5)
C7H N7 Eu1 122.6(5)
C8A N8 C8H 105.5(7)
C8A N8 Eu1 129.4(6)
C8H N8 Eu1 122.0(6)
C1H N51 C2A 121.5(8)
C2H N52 C3A 123.6(7)
C1A N54 C4H 122.4(8)
C5H N55 C6A 122.7(8)
C6H N56 C7A 123.5(7)
C5A N58 C8H 124.6(8)
N54 C1A N1 128.8(9)
N54 C1A C1B 122.2(9)
N1 C1A C1B 108.9(8)
C1C C1B C1G 119.7(9)
C1C C1B C1A 132.7(9)
C1G C1B C1A 107.5(9)
C1D C1C C1B 118.5(10)
C1D C1C H1C 120.7
C1B C1C H1C 120.7
C1C C1D C1E 121.4(11)
C1C C1D H1D 119.3
C1E C1D H1D 119.3
C1F C1E C1D 119.1(10)
C1F C1E H1E 120.5
C1D C1E H1E 120.5
C1G C1F C1E 119.4(10)
C1G C1F H1F 120.3
C1E C1F H1F 120.3
C1F C1G C1B 121.6(9)
C1F C1G C1H 132.3(9)
C1B C1G C1H 106.0(9)
N51 C1H N1 126.7(8)
N51 C1H C1G 122.0(9)
N1 C1H C1G 111.2(8)
N51 C2A N2 127.5(9)
N51 C2A C2B 120.9(9)
N2 C2A C2B 111.6(8)
C2C C2B C2G 122.0(9)
C2C C2B C2A 132.0(10)
C2G C2B C2A 106.0(8)
C2B C2C C2D 117.7(10)
C2B C2C H2C 121.1
C2D C2C H2C 121.1
C2C C2D C2E 120.8(10)
C2C C2D H2D 119.6
C2E C2D H2D 119.6
C2F C2E C2D 119.1(10)
C2F C2E H2E 120.5
C2D C2E H2E 120.5
C2G C2F C2E 120.5(9)
C2G C2F H2F 119.7
C2E C2F H2F 119.7
C2F C2G C2B 119.9(8)
C2F C2G C2H 134.7(9)
C2B C2G C2H 105.4(8)
N52 C2H N2 126.1(7)
N52 C2H C2G 121.1(8)
N2 C2H C2G 111.8(8)
N52 C3A N3 129.2(7)
N52 C3A C3B 123.7(8)
N3 C3A C3B 107.1(7)
C3G C3B C3C 121.6(8)
C3G C3B C3A 109.9(8)
C3C C3B C3A 128.5(9)
C3B C3C C3D 118.5(9)
C3B C3C H3C 120.7
C3D C3C H3C 120.7
C3E C3D C3C 118.8(9)
C3E C3D H3D 120.6
C3C C3D H3D 120.6
C3F C3E C3D 121.7(9)
C3F C3E H3E 119.2
C3D C3E H3E 119.2
C3E C3F C3G 118.8(8)
C3E C3F H3F 120.6
C3G C3F H3F 120.6
C3B C3G C3F 120.6(8)
C3B C3G C3H 105.4(7)
C3F C3G C3H 133.9(8)
N3 C3H C53 123.9(7)
N3 C3H C3G 110.3(7)
C53 C3H C3G 125.7(7)
N4 C4A C53 124.6(7)
N4 C4A C4B 108.2(7)
C53 C4A C4B 126.3(7)
C4G C4B C4C 120.8(8)
C4G C4B C4A 106.5(8)
C4C C4B C4A 132.7(8)
C4D C4C C4B 117.3(9)
C4D C4C H4C 121.4
C4B C4C H4C 121.4
C4E C4D C4C 121.2(9)
C4E C4D H4D 119.4
C4C C4D H4D 119.4
C4F C4E C4D 119.2(8)
C4F C4E H4E 120.4
C4D C4E H4E 120.4
C4G C4F C4E 120.8(9)
C4G C4F H4F 119.6
C4E C4F H4F 119.6
C4F C4G C4B 120.8(8)
C4F C4G C4H 133.0(9)
C4B C4G C4H 106.1(8)
N54 C4H N4 129.3(8)
N54 C4H C4G 120.0(8)
N4 C4H C4G 110.7(8)
N58 C5A N5 128.8(8)
N58 C5A C5B 122.9(9)
N5 C5A C5B 108.0(8)
C5C C5B C5G 119.8(10)
C5C C5B C5A 132.3(11)
C5G C5B C5A 107.9(8)
C5B C5C C5D 120.0(10)
C5B C5C H5C 120.0
C5D C5C H5C 120.0
C5E C5D C5C 119.8(10)
C5E C5D H5D 120.1
C5C C5D H5D 120.1
C5D C5E C5F 120.9(11)
C5D C5E H5E 119.6
C5F C5E H5E 119.6
C5G C5F C5E 118.5(10)
C5G C5F H5F 120.7
C5E C5F H5F 120.7
C5F C5G C5B 121.0(10)
C5F C5G C5H 132.7(10)
C5B C5G C5H 106.2(8)
N55 C5H N5 126.4(8)
N55 C5H C5G 124.3(9)
N5 C5H C5G 109.3(8)
N55 C6A N6 128.3(8)
N55 C6A C6B 121.5(8)
N6 C6A C6B 110.1(8)
C6C C6B C6G 118.7(9)
C6C C6B C6A 134.8(10)
C6G C6B C6A 106.5(8)
C6D C6C C6B 121.3(10)
C6D C6C H6C 119.4
C6B C6C H6C 119.4
C6C C6D C6E 118.1(10)
C6C C6D H6D 121.0
C6E C6D H6D 121.0
C6F C6E C6D 124.7(10)
C6F C6E H6E 117.6
C6D C6E H6E 117.6
C6E C6F C6G 114.7(10)
C6E C6F H6F 122.7
C6G C6F H6F 122.7
C6F C6G C6B 122.5(9)
C6F C6G C6H 131.0(9)
C6B C6G C6H 106.5(8)
N56 C6H N6 126.4(7)
N56 C6H C6G 122.9(8)
N6 C6H C6G 110.3(8)
N56 C7A N7 129.6(8)
N56 C7A C7B 119.9(8)
N7 C7A C7B 110.5(7)
C7C C7B C7G 123.4(9)
C7C C7B C7A 129.8(9)
C7G C7B C7A 106.6(8)
C7D C7C C7B 116.5(10)
C7D C7C H7C 121.8
C7B C7C H7C 121.8
C7C C7D C7E 122.6(10)
C7C C7D H7D 118.7
C7E C7D H7D 118.7
C7D C7E C7F 120.3(10)
C7D C7E H7E 119.8
C7F C7E H7E 119.8
C7G C7F C7E 117.0(9)
C7G C7F H7F 121.5
C7E C7F H7F 121.5
C7B C7G C7F 120.0(9)
C7B C7G C7H 106.8(9)
C7F C7G C7H 132.8(9)
N7 C7H C57 123.5(8)
N7 C7H C7G 109.4(8)
C57 C7H C7G 126.5(9)
N8 C8A C8B 111.1(8)
N8 C8A C57 121.8(8)
C8B C8A C57 126.6(8)
C8C C8B C8G 118.3(9)
C8C C8B C8A 136.2(9)
C8G C8B C8A 105.5(8)
C8B C8C C8D 121.5(10)
C8B C8C H8C 119.3
C8D C8C H8C 119.3
C8E C8D C8C 120.6(11)
C8E C8D H8D 119.7
C8C C8D H8D 119.7
C8D C8E C8F 120.1(10)
C8D C8E H8E 120.0
C8F C8E H8E 120.0
C8G C8F C8E 118.4(10)
C8G C8F H8F 120.8
C8E C8F H8F 120.8
C8F C8G C8B 121.0(10)
C8F C8G C8H 131.9(10)
C8B C8G C8H 107.1(8)
N58 C8H N8 129.1(9)
N58 C8H C8G 120.2(9)
N8 C8H C8G 110.7(9)
C4A C53 C3H 124.3(7)
C4A C53 C101 117.2(7)
C3H C53 C101 118.5(7)
C7H C57 C8A 124.6(8)
C7H C57 C201 117.7(7)
C8A C57 C201 117.6(7)
C102 C101 C106 120.0
C102 C101 C53 119.7(5)
C106 C101 C53 120.2(5)
C101 C102 C103 120.0
C101 C102 H102 120.0
C103 C102 H102 120.0
C104 C103 C102 120.0
C104 C103 H103 120.0
C102 C103 H103 120.0
C103 C104 C105 120.0
C103 C104 H104 120.0
C105 C104 H104 120.0
C104 C105 C106 120.0
C104 C105 H105 120.0
C106 C105 H105 120.0
C105 C106 C101 120.0
C105 C106 H106 120.0
C101 C106 H106 120.0
C202 C201 C206 120.0
C202 C201 C57 120.8(5)
C206 C201 C57 119.2(5)
C201 C202 C203 120.0
C201 C202 H202 120.0
C203 C202 H202 120.0
C204 C203 C202 120.0
C204 C203 H203 120.0
C202 C203 H203 120.0
C203 C204 C205 120.0
C203 C204 H204 120.0
C205 C204 H204 120.0
C206 C205 C204 120.0
C206 C205 H205 120.0
C204 C205 H205 120.0
C205 C206 C201 120.0
C205 C206 H206 120.0
C201 C206 H206 120.0
N12 Eu2 N9 71.0(2)
N12 Eu2 N11 72.2(2)
N9 Eu2 N11 109.3(2)
N12 Eu2 N14 147.8(2)
N9 Eu2 N14 139.1(2)
N11 Eu2 N14 83.7(2)
N12 Eu2 N16 83.0(2)
N9 Eu2 N16 84.43(18)
N11 Eu2 N16 145.1(2)
N14 Eu2 N16 107.19(18)
N12 Eu2 N10 109.4(2)
N9 Eu2 N10 68.6(2)
N11 Eu2 N10 70.1(2)
N14 Eu2 N10 80.88(19)
N16 Eu2 N10 143.3(2)
N12 Eu2 N15 85.5(2)
N9 Eu2 N15 147.4(2)
N11 Eu2 N15 83.33(19)
N14 Eu2 N15 70.34(19)
N16 Eu2 N15 70.24(19)
N10 Eu2 N15 142.7(2)
N12 Eu2 N13 142.0(2)
N9 Eu2 N13 81.0(2)
N11 Eu2 N13 143.4(2)
N14 Eu2 N13 68.0(2)
N16 Eu2 N13 68.8(2)
N10 Eu2 N13 82.3(2)
N15 Eu2 N13 107.1(2)
C9H N9 C9A 108.3(7)
C9H N9 Eu2 123.1(6)
C9A N9 Eu2 118.4(5)
C10A N10 C10H 107.2(7)
C10A N10 Eu2 121.0(5)
C10H N10 Eu2 120.9(5)
C11A N11 C11H 107.3(7)
C11A N11 Eu2 118.8(6)
C11H N11 Eu2 120.9(5)
C12H N12 C12A 106.1(8)
C12H N12 Eu2 124.3(6)
C12A N12 Eu2 127.1(6)
C13H N13 C13A 107.3(8)
C13H N13 Eu2 122.0(6)
C13A N13 Eu2 120.7(6)
C14H N14 C14A 107.4(7)
C14H N14 Eu2 120.9(6)
C14A N14 Eu2 122.5(5)
C15A N15 C15H 107.1(6)
C15A N15 Eu2 121.7(4)
C15H N15 Eu2 126.6(5)
C16H N16 C16A 106.9(6)
C16H N16 Eu2 119.6(4)
C16A N16 Eu2 120.1(5)
C9H N59 C10A 120.9(8)
C10H N60 C11A 122.9(7)
C9A N62 C12H 127.7(9)
C13H N63 C14A 120.9(8)
C15A N64 C14H 122.8(7)
C13A N66 C16H 121.5(8)
N62 C9A N9 126.0(8)
N62 C9A C9B 125.9(9)
N9 C9A C9B 107.2(7)
C9G C9B C9C 121.5(9)
C9G C9B C9A 107.8(8)
C9C C9B C9A 130.8(9)
C9B C9C C9D 118.0(9)
C9B C9C H9C 121.0
C9D C9C H9C 121.0
C9E C9D C9C 119.0(10)
C9E C9D H9D 120.5
C9C C9D H9D 120.5
C9D C9E C9F 124.2(10)
C9D C9E H9E 117.9
C9F C9E H9E 117.9
C9E C9F C9G 114.2(10)
C9E C9F H9F 122.9
C9G C9F H9F 122.9
C9B C9G C9F 122.8(9)
C9B C9G C9H 107.6(8)
C9F C9G C9H 129.5(9)
N59 C9H N9 129.3(8)
N59 C9H C9G 121.6(9)
N9 C9H C9G 109.1(7)
N59 C10A N10 128.9(8)
N59 C10A C10B 122.9(9)
N10 C10A C10B 108.1(8)
C10G C10B C10C 124.9(9)
C10G C10B C10A 106.8(9)
C10C C10B C10A 128.3(10)
C10B C10C C10D 113.2(10)
C10B C10C H10C 123.4
C10D C10C H10C 123.4
C10E C10D C10C 122.3(11)
C10E C10D H10D 118.8
C10C C10D H10D 118.8
C10F C10E C10D 120.9(10)
C10F C10E H10E 119.6
C10D C10E H10E 119.6
C10E C10F C10G 119.4(10)
C10E C10F H10F 120.3
C10G C10F H10F 120.3
C10B C10G C10F 119.2(9)
C10B C10G C10H 108.1(9)
C10F C10G C10H 132.7(10)
N60 C10H N10 126.5(8)
N60 C10H C10G 123.9(9)
N10 C10H C10G 109.6(8)
N60 C11A N11 130.3(8)
N60 C11A C11B 119.5(8)
N11 C11A C11B 110.2(8)
C11C C11B C11G 122.9(10)
C11C C11B C11A 131.7(10)
C11G C11B C11A 105.2(8)
C11B C11C C11D 114.6(10)
C11B C11C H11C 122.7
C11D C11C H11C 122.7
C11E C11D C11C 127.2(10)
C11E C11D H11D 116.4
C11C C11D H11D 116.4
C11D C11E C11F 115.3(9)
C11D C11E H11E 122.3
C11F C11E H11E 122.3
C11G C11F C11E 120.1(9)
C11G C11F H11F 119.9
C11E C11F H11F 119.9
C11F C11G C11H 132.9(10)
C11F C11G C11B 119.8(9)
C11H C11G C11B 107.3(9)
N11 C11H C11G 109.8(8)
N11 C11H C61 120.9(9)
C11G C11H C61 127.3(9)
N12 C12A C61 124.7(8)
N12 C12A C12B 109.5(8)
C61 C12A C12B 125.7(9)
C12G C12B C12C 117.2(9)
C12G C12B C12A 106.5(9)
C12C C12B C12A 136.4(9)
C12D C12C C12B 119.6(10)
C12D C12C H12C 120.2
C12B C12C H12C 120.2
C12C C12D C12E 121.3(11)
C12C C12D H12D 119.3
C12E C12D H12D 119.3
C12D C12E C12F 120.7(10)
C12D C12E H12E 119.6
C12F C12E H12E 119.6
C12G C12F C12E 118.6(10)
C12G C12F H12F 120.7
C12E C12F H12F 120.7
C12F C12G C12B 122.4(10)
C12F C12G C12H 132.0(10)
C12B C12G C12H 105.5(9)
N62 C12H N12 125.8(9)
N62 C12H C12G 121.1(9)
N12 C12H C12G 112.4(9)
N66 C13A N13 128.8(9)
N66 C13A C13B 122.1(10)
N13 C13A C13B 108.8(9)
C13G C13B C13C 124.9(10)
C13G C13B C13A 107.1(9)
C13C C13B C13A 128.0(10)
C13B C13C C13D 111.9(10)
C13B C13C H13C 124.0
C13D C13C H13C 124.0
C13E C13D C13C 120.8(11)
C13E C13D H13D 119.6
C13C C13D H13D 119.6
C13D C13E C13F 125.7(11)
C13D C13E H13E 117.1
C13F C13E H13E 117.1
C13G C13F C13E 113.2(10)
C13G C13F H13F 123.4
C13E C13F H13F 123.4
C13B C13G C13F 123.4(10)
C13B C13G C13H 107.9(9)
C13F C13G C13H 128.6(9)
N63 C13H N13 128.0(9)
N63 C13H C13G 122.8(9)
N13 C13H C13G 108.9(8)
N63 C14A N14 129.6(9)
N63 C14A C14B 121.0(9)
N14 C14A C14B 109.3(9)
C14C C14B C14G 122.5(10)
C14C C14B C14A 130.3(10)
C14G C14B C14A 107.0(9)
C14B C14C C14D 115.2(10)
C14B C14C H14C 122.4
C14D C14C H14C 122.4
C14E C14D C14C 124.7(11)
C14E C14D H14D 117.7
C14C C14D H14D 117.7
C14D C14E C14F 114.4(11)
C14D C14E H14E 122.8
C14F C14E H14E 122.8
C14G C14F C14E 122.7(11)
C14G C14F H14F 118.6
C14E C14F H14F 118.6
C14F C14G C14B 120.3(10)
C14F C14G C14H 133.8(11)
C14B C14G C14H 105.7(9)
N64 C14H N14 127.2(7)
N64 C14H C14G 121.3(9)
N14 C14H C14G 110.6(8)
N64 C15A N15 130.3(7)
N64 C15A C15B 118.3(8)
N15 C15A C15B 111.2(7)
C15C C15B C15A 133.0(9)
C15C C15B C15G 122.4(8)
C15A C15B C15G 104.5(7)
C15B C15C C15D 118.0(9)
C15B C15C H15C 121.0
C15D C15C H15C 121.0
C15E C15D C15C 118.7(9)
C15E C15D H15D 120.7
C15C C15D H15D 120.7
C15F C15E C15D 122.9(9)
C15F C15E H15E 118.6
C15D C15E H15E 118.6
C15G C15F C15E 121.0(9)
C15G C15F H15F 119.5
C15E C15F H15F 119.5
C15F C15G C15H 136.8(8)
C15F C15G C15B 117.1(8)
C15H C15G C15B 106.1(7)
N15 C15H C15G 110.9(7)
N15 C15H C65 123.4(7)
C15G C15H C65 125.2(7)
N16 C16A C65 125.0(7)
N16 C16A C16B 110.6(7)
C65 C16A C16B 123.6(7)
C16G C16B C16A 105.0(7)
C16G C16B C16C 120.1(8)
C16A C16B C16C 134.9(8)
C16D C16C C16B 117.4(8)
C16D C16C H16C 121.3
C16B C16C H16C 121.3
C16E C16D C16C 121.9(9)
C16E C16D H16D 119.1
C16C C16D H16D 119.1
C16D C16E C16F 120.7(9)
C16D C16E H16E 119.7
C16F C16E H16E 119.7
C16G C16F C16E 119.4(8)
C16G C16F H16F 120.3
C16E C16F H16F 120.3
C16F C16G C16B 120.6(8)
C16F C16G C16H 131.3(8)
C16B C16G C16H 108.0(8)
N66 C16H N16 130.1(8)
N66 C16H C16G 120.6(8)
N16 C16H C16G 109.3(7)
C11H C61 C12A 124.9(9)
C11H C61 C301 118.7(8)
C12A C61 C301 116.3(8)
C16A C65 C401 120.0(7)
C16A C65 C15H 122.4(7)
C401 C65 C15H 117.6(7)
C302 C301 C306 120.0
C302 C301 C61 119.4(6)
C306 C301 C61 120.6(6)
C303 C302 C301 120.0
C303 C302 H302 120.0
C301 C302 H302 120.0
C302 C303 C304 120.0
C302 C303 H303 120.0
C304 C303 H303 120.0
C305 C304 C303 120.0
C305 C304 H304 120.0
C303 C304 H304 120.0
C304 C305 C306 120.0
C304 C305 H305 120.0
C306 C305 H305 120.0
C305 C306 C301 120.0
C305 C306 H306 120.0
C301 C306 H306 120.0
C402 C401 C406 120.0
C402 C401 C65 119.3(5)
C406 C401 C65 120.7(5)
C403 C402 C401 120.0
C403 C402 H402 120.0
C401 C402 H402 120.0
C404 C403 C402 120.0
C404 C403 H403 120.0
C402 C403 H403 120.0
C403 C404 C405 120.0
C403 C404 H404 120.0
C405 C404 H404 120.0
C404 C405 C406 120.0
C404 C405 H405 120.0
C406 C405 H405 120.0
C405 C406 C401 120.0
C405 C406 H406 120.0
C401 C406 H406 120.0
loop_
_geom_bond_atom_site_label_1
_geom_bond_atom_site_label_2
_geom_bond_distance
Eu1 N5 2.426(5)
Eu1 N7 2.435(6)
Eu1 N2 2.437(6)
Eu1 N1 2.440(7)
Eu1 N6 2.443(5)
Eu1 N8 2.444(7)
Eu1 N4 2.444(5)
Eu1 N3 2.453(5)
N1 C1H 1.390(9)
N1 C1A 1.401(10)
N2 C2A 1.363(10)
N2 C2H 1.393(9)
N3 C3H 1.378(8)
N3 C3A 1.395(8)
N4 C4H 1.347(9)
N4 C4A 1.383(8)
N5 C5A 1.394(9)
N5 C5H 1.395(10)
N6 C6A 1.377(9)
N6 C6H 1.396(9)
N7 C7A 1.376(9)
N7 C7H 1.411(9)
N8 C8A 1.388(9)
N8 C8H 1.393(10)
N51 C1H 1.333(9)
N51 C2A 1.352(10)
N52 C2H 1.314(9)
N52 C3A 1.326(8)
N54 C1A 1.304(9)
N54 C4H 1.327(9)
N55 C5H 1.313(9)
N55 C6A 1.327(9)
N56 C6H 1.316(9)
N56 C7A 1.337(10)
N58 C5A 1.322(10)
N58 C8H 1.333(10)
C1A C1B 1.464(11)
C1B C1C 1.394(11)
C1B C1G 1.396(10)
C1C C1D 1.393(11)
C1C H1C 0.9300
C1D C1E 1.400(11)
C1D H1D 0.9300
C1E C1F 1.396(11)
C1E H1E 0.9300
C1F C1G 1.371(11)
C1F H1F 0.9300
C1G C1H 1.444(11)
C2A C2B 1.471(11)
C2B C2C 1.381(10)
C2B C2G 1.393(11)
C2C C2D 1.389(11)
C2C H2C 0.9300
C2D C2E 1.426(12)
C2D H2D 0.9300
C2E C2F 1.375(10)
C2E H2E 0.9300
C2F C2G 1.369(10)
C2F H2F 0.9300
C2G C2H 1.457(10)
C3A C3B 1.440(10)
C3B C3G 1.356(10)
C3B C3C 1.384(11)
C3C C3D 1.423(11)
C3C H3C 0.9300
C3D C3E 1.399(11)
C3D H3D 0.9300
C3E C3F 1.360(10)
C3E H3E 0.9300
C3F C3G 1.412(10)
C3F H3F 0.9300
C3G C3H 1.441(10)
C3H C53 1.438(9)
C4A C53 1.437(10)
C4A C4B 1.481(10)
C4B C4G 1.384(10)
C4B C4C 1.407(10)
C4C C4D 1.404(10)
C4C H4C 0.9300
C4D C4E 1.402(12)
C4D H4D 0.9300
C4E C4F 1.377(10)
C4E H4E 0.9300
C4F C4G 1.361(10)
C4F H4F 0.9300
C4G C4H 1.458(10)
C5A C5B 1.480(11)
C5B C5C 1.371(10)
C5B C5G 1.395(12)
C5C C5D 1.398(12)
C5C H5C 0.9300
C5D C5E 1.367(12)
C5D H5D 0.9300
C5E C5F 1.405(11)
C5E H5E 0.9300
C5F C5G 1.372(11)
C5F H5F 0.9300
C5G C5H 1.472(11)
C6A C6B 1.444(10)
C6B C6C 1.385(10)
C6B C6G 1.410(11)
C6C C6D 1.352(11)
C6C H6C 0.9300
C6D C6E 1.402(12)
C6D H6D 0.9300
C6E C6F 1.380(12)
C6E H6E 0.9300
C6F C6G 1.396(10)
C6F H6F 0.9300
C6G C6H 1.428(10)
C7A C7B 1.463(10)
C7B C7C 1.386(10)
C7B C7G 1.387(11)
C7C C7D 1.374(12)
C7C H7C 0.9300
C7D C7E 1.395(12)
C7D H7D 0.9300
C7E C7F 1.421(10)
C7E H7E 0.9300
C7F C7G 1.401(11)
C7F H7F 0.9300
C7G C7H 1.459(11)
C7H C57 1.429(10)
C8A C8B 1.446(11)
C8A C57 1.448(10)
C8B C8C 1.366(11)
C8B C8G 1.406(10)
C8C C8D 1.394(10)
C8C H8C 0.9300
C8D C8E 1.353(11)
C8D H8D 0.9300
C8E C8F 1.418(11)
C8E H8E 0.9300
C8F C8G 1.398(11)
C8F H8F 0.9300
C8G C8H 1.431(11)
C53 C101 1.472(7)
C57 C201 1.478(8)
C101 C102 1.3900
C101 C106 1.3900
C102 C103 1.3900
C102 H102 0.9300
C103 C104 1.3900
C103 H103 0.9300
C104 C105 1.3900
C104 H104 0.9300
C105 C106 1.3900
C105 H105 0.9300
C106 H106 0.9300
C201 C202 1.3900
C201 C206 1.3900
C202 C203 1.3900
C202 H202 0.9300
C203 C204 1.3900
C203 H203 0.9300
C204 C205 1.3900
C204 H204 0.9300
C205 C206 1.3900
C205 H205 0.9300
C206 H206 0.9300
Eu2 N12 2.423(7)
Eu2 N9 2.428(5)
Eu2 N11 2.432(6)
Eu2 N14 2.440(6)
Eu2 N16 2.449(5)
Eu2 N10 2.449(5)
Eu2 N15 2.457(5)
Eu2 N13 2.467(7)
N9 C9H 1.357(9)
N9 C9A 1.420(9)
N10 C10A 1.389(10)
N10 C10H 1.394(9)
N11 C11A 1.392(10)
N11 C11H 1.397(10)
N12 C12H 1.378(10)
N12 C12A 1.410(10)
N13 C13H 1.387(10)
N13 C13A 1.394(10)
N14 C14H 1.376(9)
N14 C14A 1.376(10)
N15 C15A 1.380(9)
N15 C15H 1.407(8)
N16 C16H 1.365(9)
N16 C16A 1.401(8)
N59 C9H 1.306(9)
N59 C10A 1.331(10)
N60 C10H 1.319(9)
N60 C11A 1.332(10)
N62 C9A 1.284(9)
N62 C12H 1.309(10)
N63 C13H 1.320(10)
N63 C14A 1.326(10)
N64 C15A 1.323(9)
N64 C14H 1.329(10)
N66 C13A 1.285(10)
N66 C16H 1.336(9)
C9A C9B 1.468(10)
C9B C9G 1.359(11)
C9B C9C 1.370(9)
C9C C9D 1.426(11)
C9C H9C 0.9300
C9D C9E 1.378(12)
C9D H9D 0.9300
C9E C9F 1.382(12)
C9E H9E 0.9300
C9F C9G 1.430(11)
C9F H9F 0.9300
C9G C9H 1.470(11)
C10A C10B 1.468(11)
C10B C10G 1.373(11)
C10B C10C 1.413(11)
C10C C10D 1.433(12)
C10C H10C 0.9300
C10D C10E 1.382(12)
C10D H10D 0.9300
C10E C10F 1.382(11)
C10E H10E 0.9300
C10F C10G 1.385(10)
C10F H10F 0.9300
C10G C10H 1.419(11)
C11A C11B 1.445(11)
C11B C11C 1.347(10)
C11B C11G 1.444(11)
C11C C11D 1.421(12)
C11C H11C 0.9300
C11D C11E 1.370(12)
C11D H11D 0.9300
C11E C11F 1.451(11)
C11E H11E 0.9300
C11F C11G 1.366(11)
C11F H11F 0.9300
C11G C11H 1.424(11)
C11H C61 1.430(11)
C12A C61 1.448(10)
C12A C12B 1.463(11)
C12B C12G 1.430(10)
C12B C12C 1.445(11)
C12C C12D 1.343(11)
C12C H12C 0.9300
C12D C12E 1.388(11)
C12D H12D 0.9300
C12E C12F 1.415(11)
C12E H12E 0.9300
C12F C12G 1.336(11)
C12F H12F 0.9300
C12G C12H 1.437(11)
C13A C13B 1.475(12)
C13B C13G 1.356(11)
C13B C13C 1.404(11)
C13C C13D 1.478(12)
C13C H13C 0.9300
C13D C13E 1.346(13)
C13D H13D 0.9300
C13E C13F 1.403(12)
C13E H13E 0.9300
C13F C13G 1.392(11)
C13F H13F 0.9300
C13G C13H 1.466(11)
C14A C14B 1.457(11)
C14B C14C 1.396(11)
C14B C14G 1.400(12)
C14C C14D 1.410(12)
C14C H14C 0.9300
C14D C14E 1.409(13)
C14D H14D 0.9300
C14E C14F 1.453(13)
C14E H14E 0.9300
C14F C14G 1.316(11)
C14F H14F 0.9300
C14G C14H 1.447(11)
C15A C15B 1.458(10)
C15B C15C 1.386(10)
C15B C15G 1.479(10)
C15C C15D 1.430(11)
C15C H15C 0.9300
C15D C15E 1.406(11)
C15D H15D 0.9300
C15E C15F 1.383(10)
C15E H15E 0.9300
C15F C15G 1.367(9)
C15F H15F 0.9300
C15G C15H 1.426(9)
C15H C65 1.474(10)
C16A C65 1.422(9)
C16A C16B 1.428(10)
C16B C16G 1.407(10)
C16B C16C 1.452(10)
C16C C16D 1.416(10)
C16C H16C 0.9300
C16D C16E 1.375(12)
C16D H16D 0.9300
C16E C16F 1.418(11)
C16E H16E 0.9300
C16F C16G 1.401(10)
C16F H16F 0.9300
C16G C16H 1.439(10)
C61 C301 1.449(9)
C65 C401 1.431(8)
C301 C302 1.3900
C301 C306 1.3900
C302 C303 1.3900
C302 H302 0.9300
C303 C304 1.3900
C303 H303 0.9300
C304 C305 1.3900
C304 H304 0.9300
C305 C306 1.3900
C305 H305 0.9300
C306 H306 0.9300
C401 C402 1.3900
C401 C406 1.3900
C402 C403 1.3900
C402 H402 0.9300
C403 C404 1.3900
C403 H403 0.9300
C404 C405 1.3900
C404 H404 0.9300
C405 C406 1.3900
C405 H405 0.9300
C406 H406 0.9300
loop_
_geom_torsion_atom_site_label_1
_geom_torsion_atom_site_label_2
_geom_torsion_atom_site_label_3
_geom_torsion_atom_site_label_4
_geom_torsion
C4H N54 C1A N1 0.5(14)
C4H N54 C1A C1B -175.4(8)
C1H N1 C1A N54 -174.0(9)
Eu1 N1 C1A N54 37.1(11)
C1H N1 C1A C1B 2.4(9)
Eu1 N1 C1A C1B -146.5(5)
N54 C1A C1B C1C -4.4(16)
N1 C1A C1B C1C 178.9(9)
N54 C1A C1B C1G 174.5(8)
N1 C1A C1B C1G -2.1(10)
C1G C1B C1C C1D -0.7(14)
C1A C1B C1C C1D 178.1(9)
C1B C1C C1D C1E 4.8(15)
C1C C1D C1E C1F -6.3(16)
C1D C1E C1F C1G 3.7(15)
C1E C1F C1G C1B 0.3(14)
C1E C1F C1G C1H 177.8(9)
C1C C1B C1G C1F -1.8(13)
C1A C1B C1G C1F 179.1(8)
C1C C1B C1G C1H -179.9(7)
C1A C1B C1G C1H 1.0(9)
C2A N51 C1H N1 -1.8(13)
C2A N51 C1H C1G 174.8(7)
C1A N1 C1H N51 175.1(8)
Eu1 N1 C1H N51 -37.3(11)
C1A N1 C1H C1G -1.8(9)
Eu1 N1 C1H C1G 145.8(5)
C1F C1G C1H N51 5.6(15)
C1B C1G C1H N51 -176.6(7)
C1F C1G C1H N1 -177.3(9)
C1B C1G C1H N1 0.5(10)
C1H N51 C2A N2 -0.8(14)
C1H N51 C2A C2B -179.4(7)
C2H N2 C2A N51 -176.7(8)
Eu1 N2 C2A N51 41.9(12)
C2H N2 C2A C2B 2.1(9)
Eu1 N2 C2A C2B -139.3(6)
N51 C2A C2B C2C -2.1(15)
N2 C2A C2B C2C 179.1(9)
N51 C2A C2B C2G 176.1(7)
N2 C2A C2B C2G -2.7(10)
C2G C2B C2C C2D 0.5(13)
C2A C2B C2C C2D 178.5(9)
C2B C2C C2D C2E 1.1(14)
C2C C2D C2E C2F -2.2(15)
C2D C2E C2F C2G 1.6(14)
C2E C2F C2G C2B 0.0(13)
C2E C2F C2G C2H 177.8(9)
C2C C2B C2G C2F -1.1(13)
C2A C2B C2G C2F -179.6(7)
C2C C2B C2G C2H -179.5(8)
C2A C2B C2G C2H 2.1(9)
C3A N52 C2H N2 3.5(13)
C3A N52 C2H C2G 170.9(7)
C2A N2 C2H N52 167.7(8)
Eu1 N2 C2H N52 -49.2(10)
C2A N2 C2H C2G -0.7(9)
Eu1 N2 C2H C2G 142.5(5)
C2F C2G C2H N52 12.0(15)
C2B C2G C2H N52 -170.0(8)
C2F C2G C2H N2 -179.0(9)
C2B C2G C2H N2 -1.0(9)
C2H N52 C3A N3 11.1(14)
C2H N52 C3A C3B -167.5(8)
C3H N3 C3A N52 -176.4(8)
Eu1 N3 C3A N52 22.8(12)
C3H N3 C3A C3B 2.4(9)
Eu1 N3 C3A C3B -158.4(5)
N52 C3A C3B C3G 176.5(8)
N3 C3A C3B C3G -2.3(10)
N52 C3A C3B C3C -2.6(16)
N3 C3A C3B C3C 178.5(9)
C3G C3B C3C C3D -0.7(16)
C3A C3B C3C C3D 178.4(9)
C3B C3C C3D C3E 1.2(16)
C3C C3D C3E C3F -1.7(17)
C3D C3E C3F C3G 1.6(15)
C3C C3B C3G C3F 0.6(15)
C3A C3B C3G C3F -178.7(8)
C3C C3B C3G C3H -179.5(9)
C3A C3B C3G C3H 1.3(10)
C3E C3F C3G C3B -1.0(14)
C3E C3F C3G C3H 179.0(10)
C3A N3 C3H C53 175.7(7)
Eu1 N3 C3H C53 -24.7(11)
C3A N3 C3H C3G -1.6(9)
Eu1 N3 C3H C3G 157.9(5)
C3B C3G C3H N3 0.2(10)
C3F C3G C3H N3 -179.8(9)
C3B C3G C3H C53 -177.1(8)
C3F C3G C3H C53 2.9(16)
C4H N4 C4A C53 -164.4(8)
Eu1 N4 C4A C53 48.3(9)
C4H N4 C4A C4B 5.5(8)
Eu1 N4 C4A C4B -141.8(5)
N4 C4A C4B C4G -2.5(8)
C53 C4A C4B C4G 167.2(7)
N4 C4A C4B C4C 176.9(8)
C53 C4A C4B C4C -13.5(14)
C4G C4B C4C C4D -0.8(12)
C4A C4B C4C C4D 180.0(8)
C4B C4C C4D C4E -0.4(13)
C4C C4D C4E C4F 0.0(15)
C4D C4E C4F C4G 1.7(14)
C4E C4F C4G C4B -2.9(12)
C4E C4F C4G C4H -178.7(9)
C4C C4B C4G C4F 2.5(12)
C4A C4B C4G C4F -178.1(7)
C4C C4B C4G C4H 179.3(7)
C4A C4B C4G C4H -1.3(8)
C1A N54 C4H N4 -0.3(14)
C1A N54 C4H C4G -178.7(8)
C4A N4 C4H N54 175.0(8)
Eu1 N4 C4H N54 -37.9(12)
C4A N4 C4H C4G -6.5(9)
Eu1 N4 C4H C4G 140.6(5)
C4F C4G C4H N54 -0.3(14)
C4B C4G C4H N54 -176.5(7)
C4F C4G C4H N4 -178.9(8)
C4B C4G C4H N4 4.8(9)
C8H N58 C5A N5 -1.9(14)
C8H N58 C5A C5B 170.7(7)
C5H N5 C5A N58 169.8(8)
Eu1 N5 C5A N58 -37.8(12)
C5H N5 C5A C5B -3.7(9)
Eu1 N5 C5A C5B 148.7(5)
N58 C5A C5B C5C 7.8(15)
N5 C5A C5B C5C -178.3(9)
N58 C5A C5B C5G -172.6(8)
N5 C5A C5B C5G 1.4(10)
C5G C5B C5C C5D -0.5(14)
C5A C5B C5C C5D 179.1(9)
C5B C5C C5D C5E 0.0(15)
C5C C5D C5E C5F 1.0(16)
C5D C5E C5F C5G -1.4(15)
C5E C5F C5G C5B 0.9(14)
C5E C5F C5G C5H 179.5(9)
C5C C5B C5G C5F 0.1(14)
C5A C5B C5G C5F -179.7(8)
C5C C5B C5G C5H -178.9(8)
C5A C5B C5G C5H 1.4(10)
C6A N55 C5H N5 4.4(14)
C6A N55 C5H C5G -175.3(7)
C5A N5 C5H N55 -175.1(8)
Eu1 N5 C5H N55 34.2(12)
C5A N5 C5H C5G 4.6(9)
Eu1 N5 C5H C5G -146.1(5)
C5F C5G C5H N55 -2.8(16)
C5B C5G C5H N55 176.0(8)
C5F C5G C5H N5 177.5(10)
C5B C5G C5H N5 -3.7(10)
C5H N55 C6A N6 0.3(14)
C5H N55 C6A C6B 175.6(8)
C6H N6 C6A N55 174.4(8)
Eu1 N6 C6A N55 -41.3(11)
C6H N6 C6A C6B -1.3(9)
Eu1 N6 C6A C6B 143.0(5)
N55 C6A C6B C6C 6.8(15)
N6 C6A C6B C6C -177.1(9)
N55 C6A C6B C6G -174.6(7)
N6 C6A C6B C6G 1.5(9)
C6G C6B C6C C6D 0.7(14)
C6A C6B C6C C6D 179.2(9)
C6B C6C C6D C6E -1.0(15)
C6C C6D C6E C6F 2.4(16)
C6D C6E C6F C6G -3.3(15)
C6E C6F C6G C6B 2.8(13)
C6E C6F C6G C6H -176.5(8)
C6C C6B C6G C6F -1.7(13)
C6A C6B C6G C6F 179.4(8)
C6C C6B C6G C6H 177.8(8)
C6A C6B C6G C6H -1.1(9)
C7A N56 C6H N6 -4.3(13)
C7A N56 C6H C6G -176.6(7)
C6A N6 C6H N56 -172.5(8)
Eu1 N6 C6H N56 42.9(10)
C6A N6 C6H C6G 0.6(9)
Eu1 N6 C6H C6G -143.9(5)
C6F C6G C6H N56 -6.8(15)
C6B C6G C6H N56 173.7(8)
C6F C6G C6H N6 179.8(8)
C6B C6G C6H N6 0.3(9)
C6H N56 C7A N7 0.7(14)
C6H N56 C7A C7B -178.6(7)
C7H N7 C7A N56 177.9(8)
Eu1 N7 C7A N56 -36.2(11)
C7H N7 C7A C7B -2.8(9)
Eu1 N7 C7A C7B 143.1(5)
N56 C7A C7B C7C 2.2(14)
N7 C7A C7B C7C -177.1(8)
N56 C7A C7B C7G 178.3(7)
N7 C7A C7B C7G -1.1(10)
C7G C7B C7C C7D 4.0(14)
C7A C7B C7C C7D 179.4(9)
C7B C7C C7D C7E -2.7(15)
C7C C7D C7E C7F 2.9(17)
C7D C7E C7F C7G -4.0(14)
C7C C7B C7G C7F -5.4(14)
C7A C7B C7G C7F 178.2(8)
C7C C7B C7G C7H -179.2(8)
C7A C7B C7G C7H 4.4(10)
C7E C7F C7G C7B 5.2(13)
C7E C7F C7G C7H 177.1(9)
C7A N7 C7H C57 -166.4(7)
Eu1 N7 C7H C57 48.4(10)
C7A N7 C7H C7G 5.6(9)
Eu1 N7 C7H C7G -139.6(5)
C7B C7G C7H N7 -6.4(10)
C7F C7G C7H N7 -179.1(9)
C7B C7G C7H C57 165.4(8)
C7F C7G C7H C57 -7.3(16)
C8H N8 C8A C8B -0.9(9)
Eu1 N8 C8A C8B 159.1(5)
C8H N8 C8A C57 170.9(7)
Eu1 N8 C8A C57 -29.1(10)
N8 C8A C8B C8C 179.5(9)
C57 C8A C8B C8C 8.2(15)
N8 C8A C8B C8G -0.9(9)
C57 C8A C8B C8G -172.2(7)
C8G C8B C8C C8D -1.5(13)
C8A C8B C8C C8D 178.1(8)
C8B C8C C8D C8E 0.2(14)
C8C C8D C8E C8F 1.1(14)
C8D C8E C8F C8G -1.0(14)
C8E C8F C8G C8B -0.3(13)
C8E C8F C8G C8H 179.1(8)
C8C C8B C8G C8F 1.5(12)
C8A C8B C8G C8F -178.2(7)
C8C C8B C8G C8H -178.0(7)
C8A C8B C8G C8H 2.3(9)
C5A N58 C8H N8 10.6(14)
C5A N58 C8H C8G -167.1(8)
C8A N8 C8H N58 -175.4(8)
Eu1 N8 C8H N58 22.7(11)
C8A N8 C8H C8G 2.4(9)
Eu1 N8 C8H C8G -159.5(5)
C8F C8G C8H N58 -4.4(14)
C8B C8G C8H N58 175.1(7)
C8F C8G C8H N8 177.5(8)
C8B C8G C8H N8 -3.0(9)
N4 C4A C53 C3H -5.9(12)
C4B C4A C53 C3H -174.0(7)
N4 C4A C53 C101 171.9(6)
C4B C4A C53 C101 3.9(12)
N3 C3H C53 C4A -7.5(13)
C3G C3H C53 C4A 169.5(8)
N3 C3H C53 C101 174.7(7)
C3G C3H C53 C101 -8.4(12)
N7 C7H C57 C8A -6.5(13)
C7G C7H C57 C8A -177.2(7)
N7 C7H C57 C201 171.2(6)
C7G C7H C57 C201 0.6(12)
N8 C8A C57 C7H -4.5(12)
C8B C8A C57 C7H 165.9(8)
N8 C8A C57 C201 177.7(6)
C8B C8A C57 C201 -11.8(11)
C4A C53 C101 C102 101.8(7)
C3H C53 C101 C102 -80.2(8)
C4A C53 C101 C106 -81.2(7)
C3H C53 C101 C106 96.7(7)
C106 C101 C102 C103 0.0
C53 C101 C102 C103 177.0(6)
C101 C102 C103 C104 0.0
C102 C103 C104 C105 0.0
C103 C104 C105 C106 0.0
C104 C105 C106 C101 0.0
C102 C101 C106 C105 0.0
C53 C101 C106 C105 -177.0(6)
C7H C57 C201 C202 -80.6(8)
C8A C57 C201 C202 97.3(7)
C7H C57 C201 C206 97.1(7)
C8A C57 C201 C206 -85.0(7)
C206 C201 C202 C203 0.0
C57 C201 C202 C203 177.7(6)
C201 C202 C203 C204 0.0
C202 C203 C204 C205 0.0
C203 C204 C205 C206 0.0
C204 C205 C206 C201 0.0
C202 C201 C206 C205 0.0
C57 C201 C206 C205 -177.7(6)
C12H N62 C9A N9 -6.4(15)
C12H N62 C9A C9B -174.6(8)
C9H N9 C9A N62 -167.3(8)
Eu2 N9 C9A N62 46.4(11)
C9H N9 C9A C9B 2.7(9)
Eu2 N9 C9A C9B -143.6(5)
N62 C9A C9B C9G 166.8(9)
N9 C9A C9B C9G -3.2(10)
N62 C9A C9B C9C -11.3(16)
N9 C9A C9B C9C 178.6(10)
C9G C9B C9C C9D 1.7(15)
C9A C9B C9C C9D 179.6(9)
C9B C9C C9D C9E -2.4(16)
C9C C9D C9E C9F 5.3(19)
C9D C9E C9F C9G -6.7(18)
C9C C9B C9G C9F -3.5(15)
C9A C9B C9G C9F 178.1(8)
C9C C9B C9G C9H -179.2(9)
C9A C9B C9G C9H 2.4(10)
C9E C9F C9G C9B 5.7(15)
C9E C9F C9G C9H -179.6(9)
C10A N59 C9H N9 0.1(14)
C10A N59 C9H C9G 178.0(7)
C9A N9 C9H N59 176.8(8)
Eu2 N9 C9H N59 -38.8(11)
C9A N9 C9H C9G -1.3(9)
Eu2 N9 C9H C9G 143.1(5)
C9B C9G C9H N59 -179.0(8)
C9F C9G C9H N59 5.7(14)
C9B C9G C9H N9 -0.8(10)
C9F C9G C9H N9 -176.1(9)
C9H N59 C10A N10 -1.2(14)
C9H N59 C10A C10B -177.6(8)
C10H N10 C10A N59 -176.2(8)
Eu2 N10 C10A N59 39.4(11)
C10H N10 C10A C10B 0.7(9)
Eu2 N10 C10A C10B -143.7(5)
N59 C10A C10B C10G 179.0(8)
N10 C10A C10B C10G 1.9(10)
N59 C10A C10B C10C -2.2(15)
N10 C10A C10B C10C -179.3(8)
C10G C10B C10C C10D 1.3(13)
C10A C10B C10C C10D -177.3(8)
C10B C10C C10D C10E -2.3(14)
C10C C10D C10E C10F 2.2(15)
C10D C10E C10F C10G -0.8(14)
C10C C10B C10G C10F -0.1(14)
C10A C10B C10G C10F 178.8(8)
C10C C10B C10G C10H 177.5(8)
C10A C10B C10G C10H -3.6(10)
C10E C10F C10G C10B -0.2(13)
C10E C10F C10G C10H -177.1(9)
C11A N60 C10H N10 0.4(13)
C11A N60 C10H C10G 178.4(8)
C10A N10 C10H N60 175.3(8)
Eu2 N10 C10H N60 -40.2(10)
C10A N10 C10H C10G -2.9(9)
Eu2 N10 C10H C10G 141.5(5)
C10B C10G C10H N60 -174.1(8)
C10F C10G C10H N60 3.0(16)
C10B C10G C10H N10 4.2(10)
C10F C10G C10H N10 -178.7(9)
C10H N60 C11A N11 -0.1(15)
C10H N60 C11A C11B 178.7(7)
C11H N11 C11A N60 -179.1(9)
Eu2 N11 C11A N60 39.1(11)
C11H N11 C11A C11B 1.9(9)
Eu2 N11 C11A C11B -139.9(6)
N60 C11A C11B C11C -2.8(15)
N11 C11A C11B C11C 176.3(9)
N60 C11A C11B C11G -179.1(8)
N11 C11A C11B C11G -0.1(10)
C11G C11B C11C C11D 0.6(14)
C11A C11B C11C C11D -175.2(9)
C11B C11C C11D C11E 0.0(16)
C11C C11D C11E C11F -1.9(17)
C11D C11E C11F C11G 3.4(14)
C11E C11F C11G C11H 176.3(9)
C11E C11F C11G C11B -3.0(14)
C11C C11B C11G C11F 0.9(15)
C11A C11B C11G C11F 177.7(8)
C11C C11B C11G C11H -178.6(8)
C11A C11B C11G C11H -1.8(10)
C11A N11 C11H C11G -3.1(9)
Eu2 N11 C11H C11G 137.7(6)
C11A N11 C11H C61 161.9(7)
Eu2 N11 C11H C61 -57.3(10)
C11F C11G C11H N11 -176.3(10)
C11B C11G C11H N11 3.1(10)
C11F C11G C11H C61 19.9(17)
C11B C11G C11H C61 -160.7(8)
C12H N12 C12A C61 -176.4(7)
Eu2 N12 C12A C61 20.9(11)
C12H N12 C12A C12B 0.7(9)
Eu2 N12 C12A C12B -161.9(5)
N12 C12A C12B C12G -0.2(9)
C61 C12A C12B C12G 177.0(7)
N12 C12A C12B C12C -179.1(8)
C61 C12A C12B C12C -2.0(15)
C12G C12B C12C C12D 2.9(12)
C12A C12B C12C C12D -178.2(8)
C12B C12C C12D C12E -1.5(13)
C12C C12D C12E C12F -1.9(14)
C12D C12E C12F C12G 3.8(14)
C12E C12F C12G C12B -2.3(13)
C12E C12F C12G C12H 178.1(8)
C12C C12B C12G C12F -1.0(12)
C12A C12B C12G C12F 179.8(7)
C12C C12B C12G C12H 178.7(7)
C12A C12B C12G C12H -0.5(8)
C9A N62 C12H N12 -5.1(16)
C9A N62 C12H C12G 164.5(8)
C12A N12 C12H N62 169.3(8)
Eu2 N12 C12H N62 -27.4(12)
C12A N12 C12H C12G -1.1(9)
Eu2 N12 C12H C12G 162.2(5)
C12F C12G C12H N62 9.7(15)
C12B C12G C12H N62 -169.9(8)
C12F C12G C12H N12 -179.4(8)
C12B C12G C12H N12 1.0(9)
C16H N66 C13A N13 2.4(15)
C16H N66 C13A C13B 175.5(8)
C13H N13 C13A N66 174.1(9)
Eu2 N13 C13A N66 -39.8(12)
C13H N13 C13A C13B 0.3(9)
Eu2 N13 C13A C13B 146.3(6)
N66 C13A C13B C13G -174.7(8)
N13 C13A C13B C13G -0.3(10)
N66 C13A C13B C13C 8.4(15)
N13 C13A C13B C13C -177.3(8)
C13G C13B C13C C13D 1.1(14)
C13A C13B C13C C13D 177.5(9)
C13B C13C C13D C13E -1.1(15)
C13C C13D C13E C13F -1.4(18)
C13D C13E C13F C13G 3.7(16)
C13C C13B C13G C13F 1.4(15)
C13A C13B C13G C13F -175.6(9)
C13C C13B C13G C13H 177.3(8)
C13A C13B C13G C13H 0.3(10)
C13E C13F C13G C13B -3.7(14)
C13E C13F C13G C13H -178.7(8)
C14A N63 C13H N13 0.2(13)
C14A N63 C13H C13G -173.5(8)
C13A N13 C13H N63 -174.5(8)
Eu2 N13 C13H N63 39.9(11)
C13A N13 C13H C13G -0.1(9)
Eu2 N13 C13H C13G -145.6(6)
C13B C13G C13H N63 174.7(7)
C13F C13G C13H N63 -9.7(15)
C13B C13G C13H N13 -0.1(10)
C13F C13G C13H N13 175.5(9)
C13H N63 C14A N14 -1.8(15)
C13H N63 C14A C14B 173.8(7)
C14H N14 C14A N63 175.4(9)
Eu2 N14 C14A N63 -37.8(13)
C14H N14 C14A C14B -0.6(9)
Eu2 N14 C14A C14B 146.2(5)
N63 C14A C14B C14C 9.4(16)
N14 C14A C14B C14C -174.2(9)
N63 C14A C14B C14G -175.9(8)
N14 C14A C14B C14G 0.5(11)
C14G C14B C14C C14D 3.0(14)
C14A C14B C14C C14D 177.1(9)
C14B C14C C14D C14E -4.2(16)
C14C C14D C14E C14F 4.0(17)
C14D C14E C14F C14G -2.8(16)
C14E C14F C14G C14B 2.0(15)
C14E C14F C14G C14H -174.3(9)
C14C C14B C14G C14F -2.1(15)
C14A C14B C14G C14F -177.4(8)
C14C C14B C14G C14H 175.1(8)
C14A C14B C14G C14H -0.2(10)
C15A N64 C14H N14 -2.5(14)
C15A N64 C14H C14G -170.2(8)
C14A N14 C14H N64 -168.3(8)
Eu2 N14 C14H N64 44.3(10)
C14A N14 C14H C14G 0.5(9)
Eu2 N14 C14H C14G -146.9(5)
C14F C14G C14H N64 -14.0(16)
C14B C14G C14H N64 169.4(8)
C14F C14G C14H N14 176.5(10)
C14B C14G C14H N14 -0.2(10)
C14H N64 C15A N15 -6.3(14)
C14H N64 C15A C15B 168.7(8)
C15H N15 C15A N64 174.8(8)
Eu2 N15 C15A N64 -28.0(11)
C15H N15 C15A C15B -0.5(8)
Eu2 N15 C15A C15B 156.8(5)
N64 C15A C15B C15C 3.4(14)
N15 C15A C15B C15C 179.3(9)
N64 C15A C15B C15G -173.2(7)
N15 C15A C15B C15G 2.7(9)
C15A C15B C15C C15D -178.0(9)
C15G C15B C15C C15D -1.9(13)
C15B C15C C15D C15E 1.8(14)
C15C C15D C15E C15F -1.8(15)
C15D C15E C15F C15G 1.7(15)
C15E C15F C15G C15H -178.0(9)
C15E C15F C15G C15B -1.6(13)
C15C C15B C15G C15F 1.8(13)
C15A C15B C15G C15F 178.8(7)
C15C C15B C15G C15H 179.2(8)
C15A C15B C15G C15H -3.7(9)
C15A N15 C15H C15G -2.0(9)
Eu2 N15 C15H C15G -157.8(5)
C15A N15 C15H C65 -174.7(7)
Eu2 N15 C15H C65 29.4(10)
C15F C15G C15H N15 -179.7(9)
C15B C15G C15H N15 3.6(9)
C15F C15G C15H C65 -7.1(16)
C15B C15G C15H C65 176.2(7)
C16H N16 C16A C65 166.2(7)
Eu2 N16 C16A C65 -53.3(9)
C16H N16 C16A C16B -3.8(8)
Eu2 N16 C16A C16B 136.8(5)
N16 C16A C16B C16G 4.1(8)
C65 C16A C16B C16G -166.0(7)
N16 C16A C16B C16C -178.9(8)
C65 C16A C16B C16C 11.0(14)
C16G C16B C16C C16D -1.5(11)
C16A C16B C16C C16D -178.2(8)
C16B C16C C16D C16E -1.2(13)
C16C C16D C16E C16F 2.9(15)
C16D C16E C16F C16G -1.9(14)
C16E C16F C16G C16B -0.8(11)
C16E C16F C16G C16H -177.2(8)
C16A C16B C16G C16F -179.9(7)
C16C C16B C16G C16F 2.5(11)
C16A C16B C16G C16H -2.8(8)
C16C C16B C16G C16H 179.6(7)
C13A N66 C16H N16 -4.2(14)
C13A N66 C16H C16G 177.8(8)
C16A N16 C16H N66 -176.2(8)
Eu2 N16 C16H N66 43.0(11)
C16A N16 C16H C16G 1.9(8)
Eu2 N16 C16H C16G -138.9(5)
C16F C16G C16H N66 -4.4(13)
C16B C16G C16H N66 178.9(7)
C16F C16G C16H N16 177.3(7)
C16B C16G C16H N16 0.6(9)
N11 C11H C61 C12A 15.9(13)
C11G C11H C61 C12A 178.1(8)
N11 C11H C61 C301 -162.8(7)
C11G C11H C61 C301 -0.7(13)
N12 C12A C61 C11H 3.7(13)
C12B C12A C61 C11H -173.0(7)
N12 C12A C61 C301 -177.5(7)
C12B C12A C61 C301 5.8(11)
N16 C16A C65 C401 -172.5(6)
C16B C16A C65 C401 -3.8(12)
N16 C16A C65 C15H 9.3(12)
C16B C16A C65 C15H 178.0(7)
N15 C15H C65 C16A 4.2(12)
C15G C15H C65 C16A -167.5(8)
N15 C15H C65 C401 -174.1(6)
C15G C15H C65 C401 14.2(12)
C11H C61 C301 C302 81.6(8)
C12A C61 C301 C302 -97.3(7)
C11H C61 C301 C306 -99.5(7)
C12A C61 C301 C306 81.6(8)
C306 C301 C302 C303 0.0
C61 C301 C302 C303 178.9(7)
C301 C302 C303 C304 0.0
C302 C303 C304 C305 0.0
C303 C304 C305 C306 0.0
C304 C305 C306 C301 0.0
C302 C301 C306 C305 0.0
C61 C301 C306 C305 -178.9(7)
C16A C65 C401 C402 84.2(8)
C15H C65 C401 C402 -97.5(7)
C16A C65 C401 C406 -97.4(7)
C15H C65 C401 C406 80.9(7)
C406 C401 C402 C403 0.0
C65 C401 C402 C403 178.4(6)
C401 C402 C403 C404 0.0
C402 C403 C404 C405 0.0
C403 C404 C405 C406 0.0
C404 C405 C406 C401 0.0
C402 C401 C406 C405 0.0
C65 C401 C406 C405 -178.4(6)
