#------------------------------------------------------------------------------
#$Date: 2015-12-09 15:38:17 +0200 (Wed, 09 Dec 2015) $
#$Revision: 171127 $
#$URL: svn://www.crystallography.net/cod/cif/7/03/69/7036963.cif $
#------------------------------------------------------------------------------
#
# This file is available in the Crystallography Open Database (COD),
# http://www.crystallography.net/
#
# All data on this site have been placed in the public domain by the
# contributors.
#
data_7036963
loop_
_publ_author_name
'Xu, Nan'
'Christian, Jonathan H.'
'Dalal, Naresh S.'
'Abucayon, Erwin G.'
'Lingafelt, Colin'
'Powell, Douglas R.'
'Richter-Addo, George B'
_publ_section_title
;
 Six-coordinate ferric porphyrins containing bidentate
 N-t-butyl-N-nitrosohydroxylaminato ligands: structure, magnetism, IR
 spectroelectrochemisty, and reactivity.
;
_journal_issue                   46
_journal_name_full
'Dalton transactions (Cambridge, England : 2003)'
_journal_page_first              20121
_journal_page_last               20130
_journal_paper_doi               10.1039/c5dt03074a
_journal_volume                  44
_journal_year                    2015
_chemical_formula_moiety         'C58 H47 Fe N7 O5'
_chemical_formula_sum            'C58 H47 Fe N7 O5'
_chemical_formula_weight         977.87
_space_group_crystal_system      triclinic
_space_group_IT_number           2
_space_group_name_Hall           '-P 1'
_space_group_name_H-M_alt        'P -1'
_symmetry_space_group_name_Hall  '-P 1'
_symmetry_space_group_name_H-M   'P -1'
_atom_sites_solution_hydrogens   mixed
_audit_creation_method           SHELXL-2014/7
_audit_update_record
;
2015-08-11 deposited with the CCDC.
2015-10-27 downloaded from the CCDC.
;
_cell_angle_alpha                81.837(2)
_cell_angle_beta                 79.205(2)
_cell_angle_gamma                74.975(2)
_cell_formula_units_Z            2
_cell_length_a                   9.8358(13)
_cell_length_b                   11.9775(16)
_cell_length_c                   23.149(3)
_cell_measurement_reflns_used    7775
_cell_measurement_temperature    100(2)
_cell_measurement_theta_max      24.74
_cell_measurement_theta_min      2.22
_cell_volume                     2574.7(6)
_computing_cell_refinement       'SAINT (Bruker, 2007)'
_computing_data_collection       'APEX2 (Bruker, 2007)'
_computing_data_reduction        'SAINT (Bruker, 2007)'
_computing_molecular_graphics    'XP (Bruker, 2002)'
_computing_publication_material  'SHELXL-2014 (Sheldrick, 2014)'
_computing_structure_refinement  'SHELXL-2014 (Sheldrick, 2014)'
_computing_structure_solution    'SHELXS-97 (Sheldrick, 2008)'
_diffrn_ambient_temperature      100(2)
_diffrn_measured_fraction_theta_full 1.000
_diffrn_measured_fraction_theta_max 0.995
_diffrn_measurement_device_type  'CCD Bruker APEX'
_diffrn_measurement_method       '\f and \w scans'
_diffrn_radiation_type           MoK\a
_diffrn_radiation_wavelength     0.71073
_diffrn_reflns_av_R_equivalents  0.0494
_diffrn_reflns_av_unetI/netI     0.0441
_diffrn_reflns_laue_measured_fraction_full 1.000
_diffrn_reflns_laue_measured_fraction_max 0.995
_diffrn_reflns_limit_h_max       12
_diffrn_reflns_limit_h_min       -12
_diffrn_reflns_limit_k_max       14
_diffrn_reflns_limit_k_min       -14
_diffrn_reflns_limit_l_max       28
_diffrn_reflns_limit_l_min       -28
_diffrn_reflns_number            45452
_diffrn_reflns_point_group_measured_fraction_full 1.000
_diffrn_reflns_point_group_measured_fraction_max 0.995
_diffrn_reflns_theta_full        25.242
_diffrn_reflns_theta_max         26.105
_diffrn_reflns_theta_min         1.769
_exptl_absorpt_coefficient_mu    0.348
_exptl_absorpt_correction_T_max  0.976
_exptl_absorpt_correction_T_min  0.897
_exptl_absorpt_correction_type   multi-scan
_exptl_absorpt_process_details   'SADABS (Bruker, 2002)'
_exptl_crystal_colour            purple
_exptl_crystal_density_diffrn    1.261
_exptl_crystal_description       block
_exptl_crystal_F_000             1020
_exptl_crystal_size_max          0.320
_exptl_crystal_size_mid          0.240
_exptl_crystal_size_min          0.070
_refine_diff_density_max         0.351
_refine_diff_density_min         -0.254
_refine_diff_density_rms         0.055
_refine_ls_extinction_method     none
_refine_ls_goodness_of_fit_ref   0.986
_refine_ls_hydrogen_treatment    constr
_refine_ls_matrix_type           full
_refine_ls_number_parameters     640
_refine_ls_number_reflns         10179
_refine_ls_number_restraints     0
_refine_ls_restrained_S_all      0.986
_refine_ls_R_factor_all          0.0665
_refine_ls_R_factor_gt           0.0436
_refine_ls_shift/su_max          0.000
_refine_ls_shift/su_mean         0.000
_refine_ls_structure_factor_coef Fsqd
_refine_ls_weighting_details
'w=1/[\s^2^(Fo^2^)+(0.0550P)^2^+1.7000P] where P=(Fo^2^+2Fc^2^)/3'
_refine_ls_weighting_scheme      calc
_refine_ls_wR_factor_gt          0.1045
_refine_ls_wR_factor_ref         0.1165
_reflns_Friedel_coverage         0.000
_reflns_number_gt                7656
_reflns_number_total             10179
_reflns_threshold_expression     'I > 2\s(I)'
_cod_data_source_file            c5dt03074a2.cif
_cod_data_source_block           14124_sqm
_cod_depositor_comments
'Adding full bibliography for 7036961--7036963.cif.'
_cod_database_code               7036963
_shelx_space_group_comment
; 
The symmetry employed for this shelxl refinement is uniquely defined 
by the following loop, which should always be used as a source of 
symmetry information in preference to the above space-group names. 
They are only intended as comments. 
;
_shelx_estimated_absorpt_t_min   0.897
_shelx_estimated_absorpt_t_max   0.976
_iucr_refine_instruction_details
; 
  
    14124_sqm.res created by SHELXL-2014/7 
  
TITL 14124 in P-1 
CELL 0.71073   9.8358  11.9775  23.149   81.837  79.205  74.975 
ZERR    2.00   0.0013   0.0016   0.003    0.002   0.002   0.002 
LATT  1 
SFAC C   H  N  O  FE 
UNIT 116 94 14 10 2 
  
omit   0   0   1  ! low resolution, Fo < Fc 
TEMP -173 
SIZE 0.07 0.24 0.32 
ACTA 
CONF 
WPDB -1 
EQIV $1 -x+1, -y, -z 
HTAB C8 O1_$1 
EQIV $2 x+1, y, z 
HTAB C50 O5_$2 
HTAB C52 O5_$2 
HTAB 
  
L.S. 5 0   43 
BOND $H 
FMAP 2 
PLAN 20 
  
ABIN 
WGHT    0.055000    1.700000 
FVAR       0.26392 
FE1   5    0.281348    0.429964    0.219710    11.00000    0.01747    0.01308 = 
         0.01745   -0.00117   -0.00606   -0.00039 
O1    4    0.383037    0.205442   -0.148832    11.00000    0.03846    0.03030 = 
         0.02087   -0.00754   -0.00139   -0.01270 
O2    4    0.655914   -0.314092    0.362458    11.00000    0.03327    0.01935 = 
         0.04988    0.01035   -0.00958    0.00208 
O3    4    0.206292    0.675028    0.580665    11.00000    0.04700    0.06707 = 
         0.03158   -0.02403   -0.00888   -0.01080 
O4    4   -0.101418    1.161395    0.063372    11.00000    0.02755    0.01786 = 
         0.03817    0.00813   -0.00296    0.00115 
O5    4   -0.004904    0.492936    0.226407    11.00000    0.02296    0.02533 = 
         0.04307   -0.00331   -0.00836   -0.00143 
N1    3    0.247966    0.509003    0.139696    11.00000    0.01904    0.01361 = 
         0.01998   -0.00209   -0.00495   -0.00083 
N2    3    0.360934    0.277703    0.185172    11.00000    0.01713    0.01529 = 
         0.02016    0.00086   -0.00578   -0.00167 
N3    3    0.318075    0.351086    0.299517    11.00000    0.02297    0.01595 = 
         0.02004   -0.00188   -0.00629   -0.00085 
N4    3    0.213272    0.584271    0.252671    11.00000    0.01992    0.01574 = 
         0.01874   -0.00057   -0.00628   -0.00202 
N5    3    0.102444    0.411334    0.233508    11.00000    0.02355    0.01713 = 
         0.01920   -0.00413   -0.00678    0.00119 
N6    3    0.484929    0.451241    0.205845    11.00000    0.01983    0.01549 = 
         0.02354   -0.00168   -0.00767    0.00033 
N7    3    0.701804    0.464764    0.164787    11.00000    0.02011    0.02729 = 
         0.02478   -0.00050   -0.00545   -0.00328 
C1    1    0.179892    0.623584    0.126272    11.00000    0.01755    0.01468 = 
         0.02091    0.00085   -0.00543   -0.00064 
C2    1    0.151998    0.641740    0.066490    11.00000    0.02624    0.01917 = 
         0.02272    0.00209   -0.00724    0.00137 
AFIX  43 
H2    2    0.105507    0.712640    0.046920    11.00000   -1.20000 
AFIX   0 
C3    1    0.204318    0.539068    0.043428    11.00000    0.03060    0.02178 = 
         0.01955   -0.00096   -0.00804   -0.00109 
AFIX  43 
H3    2    0.202218    0.524138    0.004422    11.00000   -1.20000 
AFIX   0 
C4    1    0.263958    0.456303    0.088978    11.00000    0.02082    0.01804 = 
         0.01812   -0.00054   -0.00517   -0.00243 
C5    1    0.325076    0.339435    0.081626    11.00000    0.01964    0.01917 = 
         0.01805   -0.00144   -0.00424   -0.00505 
C6    1    0.369555    0.256895    0.127488    11.00000    0.01630    0.01674 = 
         0.02051   -0.00305   -0.00306   -0.00275 
C7    1    0.429724    0.135625    0.120665    11.00000    0.02466    0.01495 = 
         0.02461   -0.00528   -0.00325   -0.00142 
AFIX  43 
H7    2    0.445946    0.099202    0.085297    11.00000   -1.20000 
AFIX   0 
C8    1    0.458625    0.083654    0.173887    11.00000    0.02368    0.01214 = 
         0.02802   -0.00068   -0.00524    0.00046 
AFIX  43 
H8    2    0.499690    0.003540    0.183085    11.00000   -1.20000 
AFIX   0 
C9    1    0.415846    0.171843    0.214381    11.00000    0.01654    0.01615 = 
         0.02568   -0.00089   -0.00446   -0.00214 
C10   1    0.424136    0.150257    0.274539    11.00000    0.01994    0.01740 = 
         0.02653    0.00098   -0.00644   -0.00233 
C11   1    0.373885    0.234760    0.314030    11.00000    0.02226    0.01930 = 
         0.02392    0.00147   -0.00800   -0.00010 
C12   1    0.375418    0.212684    0.376775    11.00000    0.03455    0.02385 = 
         0.02291    0.00277   -0.00975   -0.00145 
AFIX  43 
H12   2    0.407823    0.139482    0.397966    11.00000   -1.20000 
AFIX   0 
C13   1    0.322316    0.315245    0.399740    11.00000    0.03835    0.02651 = 
         0.01935    0.00023   -0.00941   -0.00460 
AFIX  43 
H13   2    0.309654    0.327781    0.440215    11.00000   -1.20000 
AFIX   0 
C14   1    0.288267    0.402438    0.351539    11.00000    0.02342    0.02191 = 
         0.02189   -0.00103   -0.00681   -0.00330 
C15   1    0.241946    0.521736    0.357017    11.00000    0.02195    0.02223 = 
         0.01962   -0.00332   -0.00520   -0.00434 
C16   1    0.208345    0.605399    0.309986    11.00000    0.01894    0.01988 = 
         0.02288   -0.00384   -0.00471   -0.00473 
C17   1    0.159304    0.728651    0.315428    11.00000    0.02695    0.02216 = 
         0.02276   -0.00797   -0.00622   -0.00406 
AFIX  43 
H17   2    0.148942    0.765962    0.350115    11.00000   -1.20000 
AFIX   0 
C18   1    0.131169    0.780424    0.262186    11.00000    0.02711    0.01572 = 
         0.02770   -0.00343   -0.00526   -0.00227 
AFIX  43 
H18   2    0.096601    0.861291    0.252174    11.00000   -1.20000 
AFIX   0 
C19   1    0.163055    0.690822    0.223240    11.00000    0.01802    0.01317 = 
         0.02672   -0.00082   -0.00386   -0.00264 
C20   1    0.143188    0.710754    0.164171    11.00000    0.01812    0.01449 = 
         0.02143    0.00176   -0.00444   -0.00180 
C21   1    0.342898    0.302078    0.020923    11.00000    0.02509    0.01314 = 
         0.01993   -0.00022   -0.00611   -0.00143 
C22   1    0.457309    0.320079   -0.021523    11.00000    0.01921    0.01657 = 
         0.02568   -0.00297   -0.00661   -0.00226 
AFIX  43 
H22   2    0.524901    0.354951   -0.011347    11.00000   -1.20000 
AFIX   0 
C23   1    0.475536    0.288506   -0.078374    11.00000    0.01946    0.01725 = 
         0.02342   -0.00109   -0.00086   -0.00162 
AFIX  43 
H23   2    0.554892    0.301445   -0.106573    11.00000   -1.20000 
AFIX   0 
C24   1    0.377169    0.237918   -0.093803    11.00000    0.02878    0.01655 = 
         0.01933   -0.00326   -0.00436   -0.00338 
C25   1    0.261470    0.219408   -0.051735    11.00000    0.03009    0.02380 = 
         0.02756   -0.00583   -0.00536   -0.01173 
AFIX  43 
H25   2    0.194102    0.184173   -0.061816    11.00000   -1.20000 
AFIX   0 
C26   1    0.244585    0.252193    0.004571    11.00000    0.02964    0.02378 = 
         0.02124   -0.00297   -0.00066   -0.01016 
AFIX  43 
H26   2    0.164420    0.240454    0.032604    11.00000   -1.20000 
AFIX   0 
C27   1    0.499207    0.226614   -0.192997    11.00000    0.04845    0.03043 = 
         0.02308   -0.00829    0.00367   -0.01679 
AFIX   3 
H27A  2    0.497973    0.309449   -0.197408    11.00000   -1.50000 
H27B  2    0.489510    0.203767   -0.230749    11.00000   -1.50000 
H27C  2    0.589511    0.181129   -0.181059    11.00000   -1.50000 
AFIX   0 
C28   1    0.488046    0.027929    0.298061    11.00000    0.02608    0.01716 = 
         0.01980    0.00172   -0.00831   -0.00039 
C29   1    0.634009   -0.018655    0.287165    11.00000    0.02757    0.02209 = 
         0.03352    0.00442   -0.00533   -0.00689 
AFIX  43 
H29   2    0.693842    0.028401    0.265101    11.00000   -1.20000 
AFIX   0 
C30   1    0.695515   -0.132385    0.307607    11.00000    0.02254    0.02624 = 
         0.03529    0.00086   -0.00630    0.00079 
AFIX  43 
H30   2    0.795718   -0.162505    0.299431    11.00000   -1.20000 
AFIX   0 
C31   1    0.608235   -0.200980    0.340078    11.00000    0.03108    0.01872 = 
         0.02561    0.00439   -0.00896   -0.00170 
C32   1    0.462558   -0.155304    0.351783    11.00000    0.02918    0.02657 = 
         0.04141    0.00997   -0.00471   -0.00521 
AFIX  43 
H32   2    0.402794   -0.201789    0.374479    11.00000   -1.20000 
AFIX   0 
C33   1    0.403228   -0.042447    0.330690    11.00000    0.02395    0.02509 = 
         0.03922    0.00451   -0.00449    0.00002 
AFIX  43 
H33   2    0.302921   -0.012742    0.338680    11.00000   -1.20000 
AFIX   0 
C34   1    0.803755   -0.367256    0.346952    11.00000    0.03936    0.02349 = 
         0.06645    0.01059   -0.01020    0.00757 
AFIX   3 
H34A  2    0.860709   -0.325560    0.362338    11.00000   -1.50000 
H34B  2    0.828793   -0.364308    0.303838    11.00000   -1.50000 
H34C  2    0.823250   -0.448396    0.364043    11.00000   -1.50000 
AFIX   0 
C35   1    0.233113    0.563019    0.415907    11.00000    0.03187    0.01738 = 
         0.02191   -0.00067   -0.00817   -0.00276 
C36   1    0.353061    0.581325    0.432445    11.00000    0.02954    0.02566 = 
         0.02821   -0.00629   -0.00547   -0.00487 
AFIX  43 
H36   2    0.440421    0.567882    0.405806    11.00000   -1.20000 
AFIX   0 
C37   1    0.349213    0.618891    0.487037    11.00000    0.03207    0.02914 = 
         0.03312   -0.00645   -0.01282   -0.00606 
AFIX  43 
H37   2    0.433089    0.630535    0.497484    11.00000   -1.20000 
AFIX   0 
C38   1    0.224326    0.638831    0.525364    11.00000    0.04227    0.03508 = 
         0.02326   -0.00873   -0.01081   -0.00556 
C39   1    0.101866    0.623445    0.509337    11.00000    0.03612    0.07953 = 
         0.03581   -0.02663    0.00219   -0.01432 
AFIX  43 
H39   2    0.014252    0.638796    0.535742    11.00000   -1.20000 
AFIX   0 
C40   1    0.107025    0.585808    0.455005    11.00000    0.03445    0.06916 = 
         0.03371   -0.01962   -0.00528   -0.01605 
AFIX  43 
H40   2    0.022600    0.575490    0.444440    11.00000   -1.20000 
AFIX   0 
C41   1    0.327838    0.695258    0.598752    11.00000    0.05426    0.06287 = 
         0.04954   -0.02685   -0.02577    0.00097 
AFIX   3 
H41A  2    0.357631    0.760043    0.573205    11.00000   -1.50000 
H41B  2    0.405854    0.625211    0.595718    11.00000   -1.50000 
H41C  2    0.303642    0.714401    0.639786    11.00000   -1.50000 
AFIX   0 
C42   1    0.076173    0.831426    0.139536    11.00000    0.02313    0.01438 = 
         0.02070   -0.00214   -0.00540   -0.00085 
C43   1    0.155699    0.894644    0.097888    11.00000    0.02185    0.02447 = 
         0.03821    0.00582   -0.00143    0.00223 
AFIX  43 
H43   2    0.254471    0.862385    0.086264    11.00000   -1.20000 
AFIX   0 
C44   1    0.093691    1.003581    0.073080    11.00000    0.02878    0.02348 = 
         0.03972    0.00876    0.00233   -0.00281 
AFIX  43 
H44   2    0.149987    1.045437    0.044753    11.00000   -1.20000 
AFIX   0 
C45   1   -0.050597    1.052085    0.089407    11.00000    0.02529    0.01441 = 
         0.02781    0.00130   -0.00754   -0.00103 
C46   1   -0.131994    0.989186    0.129731    11.00000    0.01976    0.01804 = 
         0.02346   -0.00276   -0.00528   -0.00012 
AFIX  43 
H46   2   -0.231301    1.020569    0.140491    11.00000   -1.20000 
AFIX   0 
C47   1   -0.067724    0.879402    0.154574    11.00000    0.02371    0.01688 = 
         0.01970   -0.00014   -0.00638   -0.00568 
AFIX  43 
H47   2   -0.124196    0.836861    0.182396    11.00000   -1.20000 
AFIX   0 
C48   1   -0.250888    1.206976    0.074914    11.00000    0.03116    0.02311 = 
         0.04325    0.00853   -0.00414    0.00732 
AFIX   3 
H48A  2   -0.281572    1.210548    0.117542    11.00000   -1.50000 
H48B  2   -0.299247    1.156669    0.060730    11.00000   -1.50000 
H48C  2   -0.275188    1.285240    0.054450    11.00000   -1.50000 
AFIX   0 
C49   1    0.573522    0.455676    0.155612    11.00000    0.02138    0.02017 = 
         0.02275    0.00125   -0.00823   -0.00297 
AFIX  43 
H49   2    0.550191    0.452850    0.117921    11.00000   -1.20000 
AFIX   0 
C50   1    0.694582    0.464655    0.224380    11.00000    0.02707    0.04824 = 
         0.02514   -0.00416   -0.00939   -0.01264 
AFIX  43 
H50   2    0.768795    0.469206    0.244308    11.00000   -1.20000 
AFIX   0 
C51   1    0.561817    0.456841    0.249293    11.00000    0.02653    0.04577 = 
         0.02291   -0.00442   -0.00671   -0.01085 
AFIX  43 
H51   2    0.526278    0.455390    0.290415    11.00000   -1.20000 
AFIX   0 
C52   1    0.825765    0.472340    0.119643    11.00000    0.02588    0.03968 = 
         0.02473    0.00172   -0.00213   -0.00852 
AFIX   3 
H52A  2    0.796118    0.530338    0.087202    11.00000   -1.50000 
H52B  2    0.867517    0.396523    0.104441    11.00000   -1.50000 
H52C  2    0.896704    0.495250    0.137046    11.00000   -1.50000 
AFIX   0 
C53   1    0.067240    0.300202    0.253384    11.00000    0.01897    0.02113 = 
         0.03191   -0.00596   -0.00244   -0.00474 
C54   1    0.059535    0.229344    0.212315    11.00000    0.03032    0.03036 = 
         0.02787   -0.00406   -0.00578   -0.00965 
AFIX  43 
H54   2    0.079283    0.252157    0.171204    11.00000   -1.20000 
AFIX   0 
C55   1    0.022492    0.124328    0.232076    11.00000    0.04413    0.02880 = 
         0.03960   -0.01324   -0.00531   -0.01469 
AFIX  43 
H55   2    0.016943    0.074873    0.204384    11.00000   -1.20000 
AFIX   0 
C56   1   -0.006385    0.091755    0.292284    11.00000    0.04175    0.01872 = 
         0.04846   -0.00593    0.00112   -0.01105 
AFIX  43 
H56   2   -0.031912    0.020117    0.305691    11.00000   -1.20000 
AFIX   0 
C57   1    0.001875    0.162856    0.332480    11.00000    0.04286    0.03200 = 
         0.03476   -0.00145    0.00344   -0.01220 
AFIX  43 
H57   2   -0.017560    0.140078    0.373607    11.00000   -1.20000 
AFIX   0 
C58   1    0.038606    0.268108    0.313163    11.00000    0.03975    0.02885 = 
         0.03167   -0.00711   -0.00059   -0.01193 
AFIX  43 
H58   2    0.043918    0.317481    0.340940    11.00000   -1.20000 
  
AFIX   0 
HKLF 4 
  
REM  14124 in P-1 
REM R1 =  0.0436 for    7656 Fo > 4sig(Fo)  and  0.0665 for all   10179 data 
REM    640 parameters refined using      0 restraints 
  
END 
  
WGHT      0.0482      1.6839 
  
REM Instructions for potential hydrogen bonds 
HTAB C8 O1_$1 
HTAB C50 O5_$2 
HTAB C52 O5_$2 
  
REM Highest difference peak  0.351,  deepest hole -0.254,  1-sigma level  0.055 
Q1    1   0.1967  0.4034  0.2406  11.00000  0.05    0.35 
Q2    1   0.6872  0.5262  0.1881  11.00000  0.05    0.35 
Q3    1   0.4084  0.4225  0.2136  11.00000  0.05    0.31 
Q4    1  -0.0081  0.4292  0.2891  11.00000  0.05    0.30 
Q5    1   0.2842  0.6743  0.5008  11.00000  0.05    0.29 
Q6    1   0.2818  0.4781  0.1129  11.00000  0.05    0.29 
Q7    1   0.1631  0.5961  0.4269  11.00000  0.05    0.27 
Q8    1   0.1324  0.6608  0.1498  11.00000  0.05    0.27 
Q9    1   0.4319  0.1208  0.2000  11.00000  0.05    0.27 
Q10   1   0.1607  0.7653  0.5659  11.00000  0.05    0.27 
Q11   1   0.1079  0.7713  0.1510  11.00000  0.05    0.26 
Q12   1   0.2313  0.5622  0.1327  11.00000  0.05    0.26 
Q13   1   0.3048  0.4013  0.0864  11.00000  0.05    0.26 
Q14   1   0.0069  1.0121  0.0722  11.00000  0.05    0.26 
Q15   1   0.3836  0.4801  0.2112  11.00000  0.05    0.26 
Q16   1   0.2367  0.4851  0.0681  11.00000  0.05    0.26 
Q17   1   0.0091  0.8762  0.1583  11.00000  0.05    0.26 
Q18   1   0.5518  0.5337  0.2210  11.00000  0.05    0.25 
Q19   1   0.2181  0.6639  0.3095  11.00000  0.05    0.25 
Q20   1   0.2362  0.4641  0.2601  11.00000  0.05    0.25 
;
_shelx_res_checksum              7964
_shelx_fab_file
; 
    1    0    0     11.55      0.00 
    2    0    0     -1.29      0.00 
    3    0    0     -3.00      0.00 
    4    0    0     -1.61      0.00 
    5    0    0      0.84      0.00 
    6    0    0      0.61      0.00 
    7    0    0     -0.30      0.00 
    8    0    0     -0.12      0.00 
    9    0    0      0.26      0.00 
   10    0    0      0.07      0.00 
   11    0    0      0.28      0.00 
  -11    1    0      0.22      0.00 
  -10    1    0      0.00      0.00 
   -9    1    0     -0.38      0.00 
   -8    1    0     -0.27      0.00 
   -7    1    0      0.38      0.00 
   -6    1    0      0.80      0.00 
   -5    1    0      0.41      0.00 
   -4    1    0     -2.35      0.00 
   -3    1    0     -1.19      0.00 
   -2    1    0      2.51      0.00 
   -1    1    0     16.86      0.00 
    0    1    0     62.61      0.00 
    1    1    0      0.87      0.00 
    2    1    0     -3.63      0.00 
    3    1    0     -1.87      0.00 
    4    1    0     -0.15      0.00 
    5    1    0      0.88      0.00 
    6    1    0      0.47      0.00 
    7    1    0     -0.37      0.00 
    8    1    0      0.35      0.00 
    9    1    0      0.41      0.00 
   10    1    0     -0.26      0.00 
   11    1    0      0.26      0.00 
  -11    2    0     -0.22      0.00 
  -10    2    0     -0.33      0.00 
   -9    2    0     -0.46      0.00 
   -8    2    0      0.42      0.00 
   -7    2    0      0.95      0.00 
   -6    2    0      0.51      0.00 
   -5    2    0     -0.16      0.00 
   -4    2    0     -1.98      0.00 
   -3    2    0      0.66      0.00 
   -2    2    0      3.86      0.00 
   -1    2    0     11.65      0.00 
    0    2    0     35.02      0.00 
    1    2    0     -4.66      0.00 
    2    2    0     -2.81      0.00 
    3    2    0      1.04      0.00 
    4    2    0      0.51      0.00 
    5    2    0      0.94      0.00 
    6    2    0      0.40      0.00 
    7    2    0     -0.42      0.00 
    8    2    0      0.05      0.00 
    9    2    0      0.09      0.00 
   10    2    0     -0.12      0.00 
   11    2    0      0.24      0.00 
  -10    3    0     -0.25      0.00 
   -9    3    0     -0.10      0.00 
   -8    3    0      0.83      0.00 
   -7    3    0      0.69      0.00 
   -6    3    0      0.17      0.00 
   -5    3    0     -0.58      0.00 
   -4    3    0     -1.42      0.00 
   -3    3    0      1.10      0.00 
   -2    3    0      2.76      0.00 
   -1    3    0      3.79      0.00 
    0    3    0     14.13      0.00 
    1    3    0     -4.35      0.00 
    2    3    0     -0.99      0.00 
    3    3    0      2.51      0.00 
    4    3    0      0.35      0.00 
    5    3    0      0.86      0.00 
    6    3    0     -0.02      0.00 
    7    3    0     -0.57      0.00 
    8    3    0     -0.50      0.00 
    9    3    0      0.11      0.00 
   10    3    0      0.10      0.00 
   11    3    0     -0.10      0.00 
  -10    4    0     -0.15      0.00 
   -9    4    0      0.17      0.00 
   -8    4    0      0.59      0.00 
   -7    4    0      0.30      0.00 
   -6    4    0      0.19      0.00 
   -5    4    0     -0.67      0.00 
   -4    4    0     -0.44      0.00 
   -3    4    0      1.15      0.00 
   -2    4    0      1.18      0.00 
   -1    4    0     -0.32      0.00 
    0    4    0      3.75      0.00 
    1    4    0     -2.19      0.00 
    2    4    0      0.12      0.00 
    3    4    0      1.94      0.00 
    4    4    0     -0.12      0.00 
    5    4    0      0.24      0.00 
    6    4    0     -0.21      0.00 
    7    4    0     -0.31      0.00 
    8    4    0     -0.59      0.00 
    9    4    0      0.08      0.00 
   10    4    0     -0.25      0.00 
   11    4    0     -0.29      0.00 
   -9    5    0      0.55      0.00 
   -8    5    0      0.26      0.00 
   -7    5    0      0.09      0.00 
   -6    5    0      0.30      0.00 
   -5    5    0     -0.12      0.00 
   -4    5    0      0.77      0.00 
   -3    5    0      0.54      0.00 
   -2    5    0     -0.45      0.00 
   -1    5    0     -1.81      0.00 
    0    5    0     -0.59      0.00 
    1    5    0      0.48      0.00 
    2    5    0     -0.07      0.00 
    3    5    0      0.70      0.00 
    4    5    0     -0.74      0.00 
    5    5    0     -0.08      0.00 
    6    5    0      0.09      0.00 
    7    5    0     -0.11      0.00 
    8    5    0     -0.57      0.00 
    9    5    0     -0.24      0.00 
   10    5    0     -0.33      0.00 
   11    5    0     -0.41      0.00 
   -9    6    0      0.67      0.00 
   -8    6    0     -0.03      0.00 
   -7    6    0     -0.34      0.00 
   -6    6    0      0.47      0.00 
   -5    6    0      0.59      0.00 
   -4    6    0      1.00      0.00 
   -3    6    0     -0.69      0.00 
   -2    6    0     -1.34      0.00 
   -1    6    0     -2.02      0.00 
    0    6    0     -1.56      0.00 
    1    6    0      1.99      0.00 
    2    6    0     -0.95      0.00 
    3    6    0     -0.07      0.00 
    4    6    0     -0.75      0.00 
    5    6    0      0.30      0.00 
    6    6    0      0.09      0.00 
    7    6    0     -0.36      0.00 
    8    6    0     -0.61      0.00 
    9    6    0     -0.16      0.00 
   10    6    0      0.02      0.00 
   11    6    0     -1.09      0.00 
   -8    7    0     -0.17      0.00 
   -7    7    0     -0.58      0.00 
   -6    7    0      0.74      0.00 
   -5    7    0      0.62      0.00 
   -4    7    0      0.59      0.00 
   -3    7    0     -1.26      0.00 
   -2    7    0     -0.99      0.00 
   -1    7    0     -1.17      0.00 
    0    7    0     -1.37      0.00 
    1    7    0      1.65      0.00 
    2    7    0     -1.00      0.00 
    3    7    0     -0.25      0.00 
    4    7    0     -0.04      0.00 
    5    7    0      0.54      0.00 
    6    7    0     -0.15      0.00 
    7    7    0     -0.50      0.00 
    8    7    0     -0.25      0.00 
    9    7    0      0.34      0.00 
   10    7    0     -0.06      0.00 
   11    7    0     -1.60      0.00 
   -8    8    0      0.09      0.00 
   -7    8    0     -0.12      0.00 
   -6    8    0      0.59      0.00 
   -5    8    0      0.16      0.00 
   -4    8    0      0.20      0.00 
   -3    8    0     -1.32      0.00 
   -2    8    0     -0.37      0.00 
   -1    8    0     -0.09      0.00 
    0    8    0     -1.02      0.00 
    1    8    0      1.24      0.00 
    2    8    0     -0.62      0.00 
    3    8    0     -0.20      0.00 
    4    8    0      0.40      0.00 
    5    8    0      0.50      0.00 
    6    8    0     -0.12      0.00 
    7    8    0     -0.16      0.00 
    8    8    0      0.59      0.00 
    9    8    0      0.53      0.00 
   10    8    0     -0.48      0.00 
   11    8    0     -1.12      0.00 
   -7    9    0      0.38      0.00 
   -6    9    0     -0.05      0.00 
   -5    9    0     -0.31      0.00 
   -4    9    0     -0.61      0.00 
   -3    9    0     -1.27      0.00 
   -2    9    0      0.10      0.00 
   -1    9    0      0.63      0.00 
    0    9    0     -0.41      0.00 
    1    9    0      0.97      0.00 
    2    9    0     -0.69      0.00 
    3    9    0      0.19      0.00 
    4    9    0      0.21      0.00 
    5    9    0      0.37      0.00 
    6    9    0     -0.16      0.00 
    7    9    0      0.20      0.00 
    8    9    0      1.14      0.00 
    9    9    0      0.19      0.00 
   10    9    0     -0.65      0.00 
   -6   10    0     -0.38      0.00 
   -5   10    0     -0.63      0.00 
   -4   10    0     -1.22      0.00 
   -3   10    0     -0.56      0.00 
   -2   10    0      0.33      0.00 
   -1   10    0      0.77      0.00 
    0   10    0     -0.19      0.00 
    1   10    0      0.38      0.00 
    2   10    0     -0.26      0.00 
    3   10    0      0.58      0.00 
    4   10    0     -0.19      0.00 
    5   10    0     -0.25      0.00 
    6   10    0     -0.35      0.00 
    7   10    0     -0.24      0.00 
    8   10    0      0.76      0.00 
    9   10    0     -0.21      0.00 
   10   10    0     -0.49      0.00 
   -5   11    0     -0.54      0.00 
   -4   11    0     -0.81      0.00 
   -3   11    0      0.12      0.00 
   -2   11    0     -0.07      0.00 
   -1   11    0      0.74      0.00 
    0   11    0     -0.40      0.00 
    1   11    0      0.40      0.00 
    2   11    0      0.53      0.00 
    3   11    0      0.29      0.00 
    4   11    0     -0.42      0.00 
    5   11    0     -0.92      0.00 
    6   11    0     -0.23      0.00 
    7   11    0     -1.44      0.00 
    8   11    0      0.16      0.00 
    9   11    0     -0.21      0.00 
   -4   12    0     -0.21      0.00 
   -3   12    0     -0.08      0.00 
   -2   12    0     -0.41      0.00 
   -1   12    0      1.07      0.00 
    0   12    0     -0.54      0.00 
    1   12    0      0.85      0.00 
    2   12    0      0.38      0.00 
    3   12    0     -0.08      0.00 
    4   12    0     -0.38      0.00 
    5   12    0     -0.67      0.00 
    6   12    0      0.04      0.00 
    7   12    0     -1.86      0.00 
    8   12    0      0.25      0.00 
   -2   13    0     -0.14      0.00 
   -1   13    0      1.08      0.00 
    0   13    0     -0.69      0.00 
    1   13    0      0.85      0.00 
    2   13    0     -0.16      0.00 
    3   13    0      0.01      0.00 
    4   13    0     -0.36      0.00 
    5   13    0      0.09      0.00 
    6   13    0      0.16      0.00 
    7   13    0     -0.78      0.00 
    0   14    0     -0.57      0.00 
    1   14    0      0.58      0.00 
    2   14    0     -0.26      0.00 
    3   14    0     -0.11      0.00 
    4   14    0     -0.42      0.00 
    5   14    0      0.34      0.00 
    6   14    0      0.17      0.00 
   -5  -14    1     -0.06      0.00 
   -4  -14    1      0.24      0.00 
   -3  -14    1      0.24      0.00 
   -2  -14    1      0.41      0.00 
   -1  -14    1     -0.57      0.00 
    0  -14    1      0.59      0.00 
   -7  -13    1      1.21      0.00 
   -6  -13    1     -0.11      0.00 
   -5  -13    1      0.33      0.00 
   -4  -13    1      0.17      0.00 
   -3  -13    1     -0.04      0.00 
   -2  -13    1      0.39      0.00 
   -1  -13    1     -0.84      0.00 
    0  -13    1      0.56      0.00 
    1  -13    1     -1.09      0.00 
    2  -13    1      0.14      0.00 
   -8  -12    1     -0.29      0.00 
   -7  -12    1      2.01      0.00 
   -6  -12    1     -0.14      0.00 
   -5  -12    1      1.04      0.00 
   -4  -12    1      0.15      0.00 
   -3  -12    1     -0.19      0.00 
   -2  -12    1     -0.21      0.00 
   -1  -12    1     -0.87      0.00 
    0  -12    1      0.39      0.00 
    1  -12    1     -1.01      0.00 
    2  -12    1      0.38      0.00 
    3  -12    1     -0.01      0.00 
    4  -12    1      0.34      0.00 
   -9  -11    1      0.32      0.00 
   -8  -11    1     -0.33      0.00 
   -7  -11    1      1.20      0.00 
   -6  -11    1     -0.13      0.00 
   -5  -11    1      1.12      0.00 
   -4  -11    1      0.18      0.00 
   -3  -11    1     -0.65      0.00 
   -2  -11    1     -0.43      0.00 
   -1  -11    1     -0.39      0.00 
    0  -11    1      0.26      0.00 
    1  -11    1     -0.67      0.00 
    2  -11    1      0.09      0.00 
    3  -11    1      0.14      0.00 
    4  -11    1      0.98      0.00 
    5  -11    1      0.34      0.00 
  -10  -10    1      0.63      0.00 
   -9  -10    1      0.42      0.00 
   -8  -10    1     -0.97      0.00 
   -7  -10    1     -0.05      0.00 
   -6  -10    1     -0.12      0.00 
   -5  -10    1      0.44      0.00 
   -4  -10    1      0.07      0.00 
   -3  -10    1     -0.86      0.00 
   -2  -10    1      0.28      0.00 
   -1  -10    1     -0.37      0.00 
    0  -10    1      0.07      0.00 
    1  -10    1     -0.60      0.00 
    2  -10    1     -0.12      0.00 
    3  -10    1      1.02      0.00 
    4  -10    1      1.15      0.00 
    5  -10    1      0.31      0.00 
    6  -10    1      0.47      0.00 
  -10   -9    1      0.59      0.00 
   -9   -9    1      0.03      0.00 
   -8   -9    1     -1.24      0.00 
   -7   -9    1     -0.22      0.00 
   -6   -9    1     -0.22      0.00 
   -5   -9    1     -0.09      0.00 
   -4   -9    1     -0.21      0.00 
   -3   -9    1     -0.39      0.00 
   -2   -9    1      0.64      0.00 
   -1   -9    1     -0.91      0.00 
    0   -9    1      0.36      0.00 
    1   -9    1     -0.21      0.00 
    2   -9    1      0.21      0.00 
    3   -9    1      1.49      0.00 
    4   -9    1      0.30      0.00 
    5   -9    1      0.00      0.00 
    6   -9    1      0.01      0.00 
    7   -9    1     -0.50      0.00 
  -11   -8    1      1.15      0.00 
  -10   -8    1      0.19      0.00 
   -9   -8    1     -0.27      0.00 
   -8   -8    1     -0.62      0.00 
   -7   -8    1      0.36      0.00 
   -6   -8    1     -0.15      0.00 
   -5   -8    1     -0.29      0.00 
   -4   -8    1     -0.38      0.00 
   -3   -8    1      0.07      0.00 
   -2   -8    1      0.61      0.00 
   -1   -8    1     -1.16      0.00 
    0   -8    1      0.95      0.00 
    1   -8    1      0.70      0.00 
    2   -8    1      0.68      0.00 
    3   -8    1      1.26      0.00 
    4   -8    1     -0.49      0.00 
    5   -8    1     -0.38      0.00 
    6   -8    1     -0.64      0.00 
    7   -8    1     -0.04      0.00 
    8   -8    1     -0.15      0.00 
  -11   -7    1      1.55      0.00 
  -10   -7    1     -0.31      0.00 
   -9   -7    1      0.00      0.00 
   -8   -7    1      0.18      0.00 
   -7   -7    1      0.68      0.00 
   -6   -7    1     -0.06      0.00 
   -5   -7    1     -0.54      0.00 
   -4   -7    1      0.05      0.00 
   -3   -7    1      0.15      0.00 
   -2   -7    1      0.92      0.00 
   -1   -7    1     -1.55      0.00 
    0   -7    1      1.12      0.00 
    1   -7    1      1.67      0.00 
    2   -7    1      1.23      0.00 
    3   -7    1      1.06      0.00 
    4   -7    1     -0.87      0.00 
    5   -7    1     -0.70      0.00 
    6   -7    1     -0.67      0.00 
    7   -7    1      0.38      0.00 
    8   -7    1     -0.01      0.00 
  -11   -6    1      1.09      0.00 
  -10   -6    1     -0.26      0.00 
   -9   -6    1      0.55      0.00 
   -8   -6    1      0.51      0.00 
   -7   -6    1      0.43      0.00 
   -6   -6    1     -0.15      0.00 
   -5   -6    1     -0.46      0.00 
   -4   -6    1      0.65      0.00 
   -3   -6    1     -0.19      0.00 
   -2   -6    1      0.75      0.00 
   -1   -6    1     -1.65      0.00 
    0   -6    1      0.90      0.00 
    1   -6    1      1.97      0.00 
    2   -6    1      1.22      0.00 
    3   -6    1      0.37      0.00 
    4   -6    1     -1.18      0.00 
    5   -6    1     -0.48      0.00 
    6   -6    1     -0.34      0.00 
    7   -6    1      0.14      0.00 
    8   -6    1     -0.19      0.00 
    9   -6    1     -0.83      0.00 
  -11   -5    1      0.57      0.00 
  -10   -5    1      0.16      0.00 
   -9   -5    1      0.54      0.00 
   -8   -5    1      0.49      0.00 
   -7   -5    1      0.16      0.00 
   -6   -5    1      0.08      0.00 
   -5   -5    1     -0.17      0.00 
   -4   -5    1      0.51      0.00 
   -3   -5    1     -1.05      0.00 
   -2   -5    1      0.08      0.00 
   -1   -5    1     -0.15      0.00 
    0   -5    1     -0.97      0.00 
    1   -5    1      0.90      0.00 
    2   -5    1     -0.22      0.00 
    3   -5    1     -0.75      0.00 
    4   -5    1     -0.64      0.00 
    5   -5    1      0.24      0.00 
    6   -5    1     -0.24      0.00 
    7   -5    1     -0.26      0.00 
    8   -5    1     -0.45      0.00 
    9   -5    1     -0.62      0.00 
  -11   -4    1      0.40      0.00 
  -10   -4    1      0.01      0.00 
   -9   -4    1      0.13      0.00 
   -8   -4    1      0.53      0.00 
   -7   -4    1      0.36      0.00 
   -6   -4    1      0.43      0.00 
   -5   -4    1     -0.41      0.00 
   -4   -4    1      0.01      0.00 
   -3   -4    1     -2.02      0.00 
   -2   -4    1      0.23      0.00 
   -1   -4    1      1.61      0.00 
    0   -4    1     -6.62      0.00 
    1   -4    1     -1.32      0.00 
    2   -4    1     -2.13      0.00 
    3   -4    1     -0.96      0.00 
    4   -4    1      0.79      0.00 
    5   -4    1      0.54      0.00 
    6   -4    1     -0.23      0.00 
    7   -4    1     -0.46      0.00 
    8   -4    1     -0.65      0.00 
    9   -4    1     -0.21      0.00 
   10   -4    1      0.37      0.00 
  -11   -3    1     -0.02      0.00 
  -10   -3    1     -0.25      0.00 
   -9   -3    1      0.11      0.00 
   -8   -3    1      0.44      0.00 
   -7   -3    1      0.57      0.00 
   -6   -3    1      0.16      0.00 
   -5   -3    1     -0.79      0.00 
   -4   -3    1     -0.10      0.00 
   -3   -3    1     -2.11      0.00 
   -2   -3    1      1.49      0.00 
   -1   -3    1      2.05      0.00 
    0   -3    1    -18.41      0.00 
    1   -3    1     -5.61      0.00 
    2   -3    1     -3.51      0.00 
    3   -3    1     -0.60      0.00 
    4   -3    1      1.74      0.00 
    5   -3    1      0.20      0.00 
    6   -3    1     -0.34      0.00 
    7   -3    1     -0.81      0.00 
    8   -3    1     -0.65      0.00 
    9   -3    1      0.11      0.00 
   10   -3    1      0.53      0.00 
  -11   -2    1     -0.36      0.00 
  -10   -2    1      0.21      0.00 
   -9   -2    1      0.12      0.00 
   -8   -2    1     -0.09      0.00 
   -7   -2    1      0.37      0.00 
   -6   -2    1     -0.30      0.00 
   -5   -2    1     -0.69      0.00 
   -4   -2    1      0.10      0.00 
   -3   -2    1     -0.36      0.00 
   -2   -2    1      3.22      0.00 
   -1   -2    1      0.24      0.00 
    0   -2    1    -39.75      0.00 
    1   -2    1    -12.16      0.00 
    2   -2    1     -3.87      0.00 
    3   -2    1     -0.04      0.00 
    4   -2    1      2.16      0.00 
    5   -2    1     -0.36      0.00 
    6   -2    1     -0.79      0.00 
    7   -2    1     -0.87      0.00 
    8   -2    1      0.02      0.00 
    9   -2    1      0.53      0.00 
   10   -2    1      0.58      0.00 
   11   -2    1      0.10      0.00 
  -11   -1    1     -0.21      0.00 
  -10   -1    1      0.44      0.00 
   -9   -1    1     -0.26      0.00 
   -8   -1    1     -0.36      0.00 
   -7   -1    1      0.25      0.00 
   -6   -1    1     -0.39      0.00 
   -5   -1    1     -0.56      0.00 
   -4   -1    1      0.88      0.00 
   -3   -1    1      2.30      0.00 
   -2   -1    1      3.62      0.00 
   -1   -1    1     -6.70      0.00 
    0   -1    1    -64.56      0.00 
    1   -1    1    -14.12      0.00 
    2   -1    1     -1.74      0.00 
    3   -1    1      1.51      0.00 
    4   -1    1      2.17      0.00 
    5   -1    1     -1.03      0.00 
    6   -1    1     -1.02      0.00 
    7   -1    1     -0.10      0.00 
    8   -1    1      0.66      0.00 
    9   -1    1      0.40      0.00 
   10   -1    1      0.05      0.00 
   11   -1    1     -0.45      0.00 
  -11    0    1     -0.14      0.00 
  -10    0    1     -0.01      0.00 
   -9    0    1     -0.23      0.00 
   -8    0    1     -0.01      0.00 
   -7    0    1      0.06      0.00 
   -6    0    1     -0.46      0.00 
   -5    0    1     -0.46      0.00 
   -4    0    1      2.09      0.00 
   -3    0    1      2.75      0.00 
   -2    0    1      0.94      0.00 
   -1    0    1    -16.25      0.00 
    0    0    1    -72.50      0.00 
    1    0    1     -5.93      0.00 
    2    0    1      1.88      0.00 
    3    0    1      2.50      0.00 
    4    0    1      0.93      0.00 
    5    0    1     -1.41      0.00 
    6    0    1     -0.69      0.00 
    7    0    1      0.54      0.00 
    8    0    1      0.21      0.00 
    9    0    1     -0.31      0.00 
   10    0    1     -0.23      0.00 
   11    0    1     -0.50      0.00 
  -11    1    1     -0.16      0.00 
  -10    1    1     -0.13      0.00 
   -9    1    1      0.25      0.00 
   -8    1    1     -0.02      0.00 
   -7    1    1     -0.57      0.00 
   -6    1    1     -0.48      0.00 
   -5    1    1     -0.04      0.00 
   -4    1    1      2.36      0.00 
   -3    1    1      0.50      0.00 
   -2    1    1     -2.40      0.00 
   -1    1    1    -18.27      0.00 
    0    1    1    -54.30      0.00 
    1    1    1      4.65      0.00 
    2    1    1      3.29      0.00 
    3    1    1      0.74      0.00 
    4    1    1     -0.67      0.00 
    5    1    1     -1.28      0.00 
    6    1    1     -0.47      0.00 
    7    1    1      0.48      0.00 
    8    1    1     -0.43      0.00 
    9    1    1     -0.46      0.00 
   10    1    1      0.04      0.00 
   11    1    1     -0.30      0.00 
  -11    2    1      0.11      0.00 
  -10    2    1      0.11      0.00 
   -9    2    1      0.26      0.00 
   -8    2    1     -0.58      0.00 
   -7    2    1     -0.93      0.00 
   -6    2    1     -0.12      0.00 
   -5    2    1      0.44      0.00 
   -4    2    1      1.66      0.00 
   -3    2    1     -1.29      0.00 
   -2    2    1     -2.90      0.00 
   -1    2    1    -10.56      0.00 
    0    2    1    -26.98      0.00 
    1    2    1      8.00      0.00 
    2    2    1      1.95      0.00 
    3    2    1     -1.99      0.00 
    4    2    1     -0.99      0.00 
    5    2    1     -1.16      0.00 
    6    2    1     -0.40      0.00 
    7    2    1      0.50      0.00 
    8    2    1     -0.17      0.00 
    9    2    1     -0.13      0.00 
   10    2    1      0.05      0.00 
   11    2    1     -0.05      0.00 
  -10    3    1      0.12      0.00 
   -9    3    1     -0.01      0.00 
   -8    3    1     -0.67      0.00 
   -7    3    1     -0.59      0.00 
   -6    3    1      0.12      0.00 
   -5    3    1      0.72      0.00 
   -4    3    1      0.91      0.00 
   -3    3    1     -1.48      0.00 
   -2    3    1     -1.44      0.00 
   -1    3    1     -2.19      0.00 
    0    3    1     -8.86      0.00 
    1    3    1      5.67      0.00 
    2    3    1      0.28      0.00 
    3    3    1     -2.75      0.00 
    4    3    1     -0.36      0.00 
    5    3    1     -0.89      0.00 
    6    3    1     -0.05      0.00 
    7    3    1      0.60      0.00 
    8    3    1      0.31      0.00 
    9    3    1     -0.11      0.00 
   10    3    1      0.04      0.00 
   11    3    1      0.31      0.00 
   12    3    1     -0.52      0.00 
  -10    4    1      0.15      0.00 
   -9    4    1     -0.19      0.00 
   -8    4    1     -0.22      0.00 
   -7    4    1     -0.34      0.00 
   -6    4    1     -0.02      0.00 
   -5    4    1      0.62      0.00 
   -4    4    1     -0.07      0.00 
   -3    4    1     -1.18      0.00 
   -2    4    1     -0.06      0.00 
   -1    4    1      1.57      0.00 
    0    4    1     -0.93      0.00 
    1    4    1      2.26      0.00 
    2    4    1     -0.41      0.00 
    3    4    1     -1.58      0.00 
    4    4    1      0.45      0.00 
    5    4    1     -0.16      0.00 
    6    4    1      0.03      0.00 
    7    4    1      0.33      0.00 
    8    4    1      0.31      0.00 
    9    4    1     -0.05      0.00 
   10    4    1      0.33      0.00 
   11    4    1      0.39      0.00 
   12    4    1     -0.71      0.00 
   -9    5    1     -0.49      0.00 
   -8    5    1      0.20      0.00 
   -7    5    1     -0.22      0.00 
   -6    5    1     -0.17      0.00 
   -5    5    1     -0.06      0.00 
   -4    5    1     -0.94      0.00 
   -3    5    1     -0.25      0.00 
   -2    5    1      1.01      0.00 
   -1    5    1      2.50      0.00 
    0    5    1      1.79      0.00 
    1    5    1     -0.92      0.00 
    2    5    1      0.19      0.00 
    3    5    1     -0.20      0.00 
    4    5    1      1.08      0.00 
    5    5    1      0.14      0.00 
    6    5    1     -0.26      0.00 
    7    5    1      0.18      0.00 
    8    5    1      0.28      0.00 
    9    5    1      0.26      0.00 
   10    5    1      0.23      0.00 
   11    5    1      0.60      0.00 
   -9    6    1     -0.53      0.00 
   -8    6    1      0.53      0.00 
   -7    6    1      0.24      0.00 
   -6    6    1     -0.33      0.00 
   -5    6    1     -0.69      0.00 
   -4    6    1     -0.82      0.00 
   -3    6    1      0.95      0.00 
   -2    6    1      1.24      0.00 
   -1    6    1      2.03      0.00 
    0    6    1      1.86      0.00 
    1    6    1     -2.24      0.00 
    2    6    1      1.16      0.00 
    3    6    1      0.31      0.00 
    4    6    1      0.91      0.00 
    5    6    1     -0.25      0.00 
    6    6    1     -0.14      0.00 
    7    6    1      0.46      0.00 
    8    6    1      0.34      0.00 
    9    6    1      0.19      0.00 
   10    6    1     -0.12      0.00 
   11    6    1      1.48      0.00 
   -8    7    1      0.62      0.00 
   -7    7    1      0.50      0.00 
   -6    7    1     -0.54      0.00 
   -5    7    1     -0.57      0.00 
   -4    7    1     -0.36      0.00 
   -3    7    1      1.30      0.00 
   -2    7    1      0.53      0.00 
   -1    7    1      0.79      0.00 
    0    7    1      1.38      0.00 
    1    7    1     -1.63      0.00 
    2    7    1      1.03      0.00 
    3    7    1      0.33      0.00 
    4    7    1      0.13      0.00 
    5    7    1     -0.46      0.00 
    6    7    1      0.15      0.00 
    7    7    1      0.55      0.00 
    8    7    1      0.02      0.00 
    9    7    1     -0.22      0.00 
   10    7    1      0.06      0.00 
   11    7    1      1.94      0.00 
   -8    8    1      0.19      0.00 
   -7    8    1      0.10      0.00 
   -6    8    1     -0.38      0.00 
   -5    8    1     -0.01      0.00 
   -4    8    1      0.00      0.00 
   -3    8    1      1.20      0.00 
   -2    8    1     -0.12      0.00 
   -1    8    1     -0.24      0.00 
    0    8    1      0.97      0.00 
    1    8    1     -1.15      0.00 
    2    8    1      0.61      0.00 
    3    8    1      0.33      0.00 
    4    8    1     -0.34      0.00 
    5    8    1     -0.46      0.00 
    6    8    1      0.14      0.00 
    7    8    1      0.24      0.00 
    8    8    1     -0.70      0.00 
    9    8    1     -0.40      0.00 
   10    8    1      0.39      0.00 
   11    8    1      1.27      0.00 
   -7    9    1     -0.33      0.00 
   -6    9    1      0.07      0.00 
   -5    9    1      0.57      0.00 
   -4    9    1      0.70      0.00 
   -3    9    1      0.91      0.00 
   -2    9    1     -0.54      0.00 
   -1    9    1     -0.72      0.00 
    0    9    1      0.40      0.00 
    1    9    1     -0.81      0.00 
    2    9    1      0.74      0.00 
    3    9    1     -0.02      0.00 
    4    9    1     -0.20      0.00 
    5    9    1     -0.32      0.00 
    6    9    1      0.33      0.00 
    7    9    1      0.03      0.00 
    8    9    1     -1.03      0.00 
    9    9    1     -0.26      0.00 
   10    9    1      0.42      0.00 
   11    9    1      0.51      0.00 
   -6   10    1      0.17      0.00 
   -5   10    1      0.90      0.00 
   -4   10    1      1.00      0.00 
   -3   10    1      0.09      0.00 
   -2   10    1     -0.61      0.00 
   -1   10    1     -0.68      0.00 
    0   10    1      0.23      0.00 
    1   10    1     -0.23      0.00 
    2   10    1      0.26      0.00 
    3   10    1     -0.36      0.00 
    4   10    1      0.24      0.00 
    5   10    1      0.31      0.00 
    6   10    1      0.61      0.00 
    7   10    1      0.51      0.00 
    8   10    1     -0.45      0.00 
    9   10    1     -0.04      0.00 
   10   10    1      0.19      0.00 
   -5   11    1      0.70      0.00 
   -4   11    1      0.44      0.00 
   -3   11    1     -0.28      0.00 
   -2   11    1     -0.04      0.00 
   -1   11    1     -0.66      0.00 
    0   11    1      0.46      0.00 
    1   11    1     -0.32      0.00 
    2   11    1     -0.54      0.00 
    3   11    1      0.00      0.00 
    4   11    1      0.50      0.00 
    5   11    1      0.79      0.00 
    6   11    1      0.31      0.00 
    7   11    1      1.41      0.00 
    8   11    1      0.21      0.00 
    9   11    1     -0.01      0.00 
   -4   12    1      0.03      0.00 
   -3   12    1      0.18      0.00 
   -2   12    1      0.33      0.00 
   -1   12    1     -1.01      0.00 
    0   12    1      0.68      0.00 
    1   12    1     -0.79      0.00 
    2   12    1     -0.42      0.00 
    3   12    1      0.24      0.00 
    4   12    1      0.38      0.00 
    5   12    1      0.31      0.00 
    6   12    1     -0.24      0.00 
    7   12    1      1.39      0.00 
    8   12    1      0.08      0.00 
    9   12    1     -0.03      0.00 
   -2   13    1      0.12      0.00 
   -1   13    1     -0.95      0.00 
    0   13    1      0.83      0.00 
    1   13    1     -0.82      0.00 
    2   13    1     -0.01      0.00 
    3   13    1     -0.06      0.00 
    4   13    1      0.29      0.00 
    5   13    1     -0.41      0.00 
    6   13    1     -0.44      0.00 
    7   13    1      0.20      0.00 
    8   13    1     -0.23      0.00 
    0   14    1      0.56      0.00 
    1   14    1     -0.55      0.00 
    2   14    1      0.08      0.00 
    3   14    1     -0.02      0.00 
    4   14    1      0.36      0.00 
    5   14    1     -0.39      0.00 
    6   14    1     -0.32      0.00 
   -5  -14    2      0.01      0.00 
   -4  -14    2     -0.15      0.00 
   -3  -14    2     -0.22      0.00 
   -2  -14    2     -0.49      0.00 
   -1  -14    2      0.45      0.00 
    0  -14    2     -0.64      0.00 
   -7  -13    2     -1.44      0.00 
   -6  -13    2      0.07      0.00 
   -5  -13    2     -0.51      0.00 
   -4  -13    2      0.01      0.00 
   -3  -13    2      0.10      0.00 
   -2  -13    2     -0.48      0.00 
   -1  -13    2      0.75      0.00 
    0  -13    2     -0.50      0.00 
    1  -13    2      1.12      0.00 
    2  -13    2     -0.09      0.00 
   -8  -12    2      0.33      0.00 
   -7  -12    2     -1.90      0.00 
   -6  -12    2      0.30      0.00 
   -5  -12    2     -1.20      0.00 
   -4  -12    2      0.12      0.00 
   -3  -12    2      0.35      0.00 
   -2  -12    2      0.16      0.00 
   -1  -12    2      0.82      0.00 
    0  -12    2     -0.38      0.00 
    1  -12    2      1.03      0.00 
    2  -12    2     -0.35      0.00 
    3  -12    2      0.09      0.00 
    4  -12    2     -0.33      0.00 
   -9  -11    2     -0.47      0.00 
   -8  -11    2      0.46      0.00 
   -7  -11    2     -0.77      0.00 
   -6  -11    2      0.42      0.00 
   -5  -11    2     -1.21      0.00 
   -4  -11    2      0.07      0.00 
   -3  -11    2      0.85      0.00 
   -2  -11    2      0.37      0.00 
   -1  -11    2      0.36      0.00 
    0  -11    2     -0.35      0.00 
    1  -11    2      0.73      0.00 
    2  -11    2     -0.19      0.00 
    3  -11    2     -0.32      0.00 
    4  -11    2     -0.90      0.00 
    5  -11    2     -0.03      0.00 
  -10  -10    2     -0.72      0.00 
   -9  -10    2     -0.54      0.00 
   -8  -10    2      0.96      0.00 
   -7  -10    2      0.44      0.00 
   -6  -10    2      0.34      0.00 
   -5  -10    2     -0.60      0.00 
   -4  -10    2      0.00      0.00 
   -3  -10    2      1.00      0.00 
   -2  -10    2     -0.30      0.00 
   -1  -10    2      0.37      0.00 
    0  -10    2     -0.28      0.00 
    1  -10    2      0.54      0.00 
    2  -10    2     -0.19      0.00 
    3  -10    2     -1.26      0.00 
    4  -10    2     -0.79      0.00 
    5  -10    2      0.04      0.00 
    6  -10    2     -0.56      0.00 
  -10   -9    2     -0.64      0.00 
   -9   -9    2     -0.08      0.00 
   -8   -9    2      0.96      0.00 
   -7   -9    2      0.41      0.00 
   -6   -9    2      0.27      0.00 
   -5   -9    2     -0.19      0.00 
   -4   -9    2      0.15      0.00 
   -3   -9    2      0.49      0.00 
   -2   -9    2     -0.64      0.00 
   -1   -9    2      0.89      0.00 
    0   -9    2     -0.68      0.00 
    1   -9    2     -0.10      0.00 
    2   -9    2     -0.54      0.00 
    3   -9    2     -1.46      0.00 
    4   -9    2      0.21      0.00 
    5   -9    2      0.22      0.00 
    6   -9    2      0.07      0.00 
    7   -9    2      0.50      0.00 
  -11   -8    2     -0.79      0.00 
  -10   -8    2     -0.22      0.00 
   -9   -8    2      0.28      0.00 
   -8   -8    2      0.21      0.00 
   -7   -8    2     -0.20      0.00 
   -6   -8    2      0.16      0.00 
   -5   -8    2      0.09      0.00 
   -4   -8    2      0.30      0.00 
   -3   -8    2     -0.06      0.00 
   -2   -8    2     -0.64      0.00 
   -1   -8    2      1.19      0.00 
    0   -8    2     -1.15      0.00 
    1   -8    2     -1.10      0.00 
    2   -8    2     -0.88      0.00 
    3   -8    2     -1.03      0.00 
    4   -8    2      0.92      0.00 
    5   -8    2      0.41      0.00 
    6   -8    2      0.73      0.00 
    7   -8    2     -0.02      0.00 
    8   -8    2      0.24      0.00 
  -11   -7    2     -1.09      0.00 
  -10   -7    2      0.20      0.00 
   -9   -7    2      0.02      0.00 
   -8   -7    2     -0.51      0.00 
   -7   -7    2     -0.39      0.00 
   -6   -7    2      0.10      0.00 
   -5   -7    2      0.54      0.00 
   -4   -7    2     -0.06      0.00 
   -3   -7    2     -0.17      0.00 
   -2   -7    2     -0.87      0.00 
   -1   -7    2      1.60      0.00 
    0   -7    2     -1.00      0.00 
    1   -7    2     -1.91      0.00 
    2   -7    2     -1.30      0.00 
    3   -7    2     -0.74      0.00 
    4   -7    2      1.18      0.00 
    5   -7    2      0.51      0.00 
    6   -7    2      0.64      0.00 
    7   -7    2     -0.43      0.00 
    8   -7    2      0.22      0.00 
  -11   -6    2     -0.76      0.00 
  -10   -6    2      0.00      0.00 
   -9   -6    2     -0.49      0.00 
   -8   -6    2     -0.72      0.00 
   -7   -6    2     -0.09      0.00 
   -6   -6    2      0.11      0.00 
   -5   -6    2      0.62      0.00 
   -4   -6    2     -0.48      0.00 
   -3   -6    2      0.32      0.00 
   -2   -6    2     -0.71      0.00 
   -1   -6    2      1.53      0.00 
    0   -6    2     -0.22      0.00 
    1   -6    2     -1.69      0.00 
    2   -6    2     -0.95      0.00 
    3   -6    2      0.05      0.00 
    4   -6    2      1.28      0.00 
    5   -6    2      0.14      0.00 
    6   -6    2      0.31      0.00 
    7   -6    2     -0.15      0.00 
    8   -6    2      0.49      0.00 
    9   -6    2      0.65      0.00 
  -11   -5    2     -0.49      0.00 
  -10   -5    2     -0.39      0.00 
   -9   -5    2     -0.40      0.00 
   -8   -5    2     -0.61      0.00 
   -7   -5    2      0.09      0.00 
   -6   -5    2     -0.25      0.00 
   -5   -5    2      0.36      0.00 
   -4   -5    2     -0.26      0.00 
   -3   -5    2      1.19      0.00 
   -2   -5    2     -0.35      0.00 
   -1   -5    2      0.14      0.00 
    0   -5    2      2.65      0.00 
    1   -5    2      0.09      0.00 
    2   -5    2      0.91      0.00 
    3   -5    2      0.98      0.00 
    4   -5    2      0.42      0.00 
    5   -5    2     -0.42      0.00 
    6   -5    2      0.30      0.00 
    7   -5    2      0.22      0.00 
    8   -5    2      0.71      0.00 
    9   -5    2      0.33      0.00 
  -11   -4    2     -0.32      0.00 
  -10   -4    2     -0.08      0.00 
   -9   -4    2      0.00      0.00 
   -8   -4    2     -0.58      0.00 
   -7   -4    2     -0.22      0.00 
   -6   -4    2     -0.61      0.00 
   -5   -4    2      0.46      0.00 
   -4   -4    2      0.02      0.00 
   -3   -4    2      1.87      0.00 
   -2   -4    2     -0.68      0.00 
   -1   -4    2     -0.71      0.00 
    0   -4    2      9.47      0.00 
    1   -4    2      2.70      0.00 
    2   -4    2      2.94      0.00 
    3   -4    2      0.71      0.00 
    4   -4    2     -1.08      0.00 
    5   -4    2     -0.37      0.00 
    6   -4    2      0.38      0.00 
    7   -4    2      0.39      0.00 
    8   -4    2      0.75      0.00 
    9   -4    2     -0.03      0.00 
   10   -4    2     -0.33      0.00 
  -11   -3    2      0.21      0.00 
  -10   -3    2      0.12      0.00 
   -9   -3    2     -0.08      0.00 
   -8   -3    2     -0.44      0.00 
   -7   -3    2     -0.43      0.00 
   -6   -3    2     -0.29      0.00 
   -5   -3    2      0.59      0.00 
   -4   -3    2     -0.19      0.00 
   -3   -3    2      1.67      0.00 
   -2   -3    2     -1.65      0.00 
   -1   -3    2      0.18      0.00 
    0   -3    2     21.92      0.00 
    1   -3    2      6.39      0.00 
    2   -3    2      4.03      0.00 
    3   -3    2     -0.11      0.00 
    4   -3    2     -1.85      0.00 
    5   -3    2      0.20      0.00 
    6   -3    2      0.56      0.00 
    7   -3    2      0.65      0.00 
    8   -3    2      0.42      0.00 
    9   -3    2     -0.26      0.00 
   10   -3    2     -0.53      0.00 
  -11   -2    2      0.46      0.00 
  -10   -2    2     -0.46      0.00 
   -9   -2    2     -0.12      0.00 
   -8   -2    2      0.03      0.00 
   -7   -2    2     -0.20      0.00 
   -6   -2    2      0.22      0.00 
   -5   -2    2      0.41      0.00 
   -4   -2    2     -0.53      0.00 
   -3   -2    2     -0.08      0.00 
   -2   -2    2     -2.81      0.00 
   -1   -2    2      3.11      0.00 
    0   -2    2     41.98      0.00 
    1   -2    2     10.48      0.00 
    2   -2    2      3.81      0.00 
    3   -2    2     -0.85      0.00 
    4   -2    2     -1.99      0.00 
    5   -2    2      0.86      0.00 
    6   -2    2      1.09      0.00 
    7   -2    2      0.51      0.00 
    8   -2    2     -0.50      0.00 
    9   -2    2     -0.61      0.00 
   10   -2    2     -0.54      0.00 
   11   -2    2     -0.14      0.00 
  -11   -1    2      0.12      0.00 
  -10   -1    2     -0.59      0.00 
   -9   -1    2      0.27      0.00 
   -8   -1    2      0.28      0.00 
   -7   -1    2     -0.02      0.00 
   -6   -1    2      0.35      0.00 
   -5   -1    2      0.32      0.00 
   -4   -1    2     -1.24      0.00 
   -3   -1    2     -2.41      0.00 
   -2   -1    2     -2.58      0.00 
   -1   -1    2      9.93      0.00 
    0   -1    2     62.06      0.00 
    1   -1    2      8.73      0.00 
    2   -1    2      1.54      0.00 
    3   -1    2     -1.97      0.00 
    4   -1    2     -1.50      0.00 
    5   -1    2      1.58      0.00 
    6   -1    2      1.24      0.00 
    7   -1    2     -0.33      0.00 
    8   -1    2     -1.05      0.00 
    9   -1    2     -0.34      0.00 
   10   -1    2      0.17      0.00 
   11   -1    2      0.52      0.00 
  -11    0    2      0.00      0.00 
  -10    0    2      0.12      0.00 
   -9    0    2      0.29      0.00 
   -8    0    2      0.06      0.00 
   -7    0    2      0.17      0.00 
   -6    0    2      0.40      0.00 
   -5    0    2      0.18      0.00 
   -4    0    2     -2.12      0.00 
   -3    0    2     -2.48      0.00 
   -2    0    2      0.18      0.00 
   -1    0    2     17.18      0.00 
    0    0    2     63.98      0.00 
    1    0    2     -1.32      0.00 
    2    0    2     -1.13      0.00 
    3    0    2     -1.98      0.00 
    4    0    2      0.15      0.00 
    5    0    2      1.83      0.00 
    6    0    2      0.74      0.00 
    7    0    2     -0.78      0.00 
    8    0    2     -0.36      0.00 
    9    0    2      0.44      0.00 
   10    0    2      0.53      0.00 
   11    0    2      0.55      0.00 
  -11    1    2      0.06      0.00 
  -10    1    2      0.44      0.00 
   -9    1    2     -0.12      0.00 
   -8    1    2      0.17      0.00 
   -7    1    2      0.59      0.00 
   -6    1    2      0.29      0.00 
   -5    1    2     -0.23      0.00 
   -4    1    2     -2.00      0.00 
   -3    1    2     -0.20      0.00 
   -2    1    2      2.73      0.00 
   -1    1    2     16.32      0.00 
    0    1    2     43.48      0.00 
    1    1    2    -10.24      0.00 
    2    1    2     -1.39      0.00 
    3    1    2      0.33      0.00 
    4    1    2      1.57      0.00 
    5    1    2      1.43      0.00 
    6    1    2      0.44      0.00 
    7    1    2     -0.53      0.00 
    8    1    2      0.39      0.00 
    9    1    2      0.55      0.00 
   10    1    2      0.16      0.00 
   11    1    2      0.24      0.00 
  -10    2    2      0.26      0.00 
   -9    2    2     -0.20      0.00 
   -8    2    2      0.60      0.00 
   -7    2    2      0.64      0.00 
   -6    2    2     -0.08      0.00 
   -5    2    2     -0.57      0.00 
   -4    2    2     -1.10      0.00 
   -3    2    2      1.38      0.00 
   -2    2    2      2.31      0.00 
   -1    2    2      7.70      0.00 
    0    2    2     18.76      0.00 
    1    2    2    -10.60      0.00 
    2    2    2      0.00      0.00 
    3    2    2      2.62      0.00 
    4    2    2      1.30      0.00 
    5    2    2      1.08      0.00 
    6    2    2      0.37      0.00 
    7    2    2     -0.50      0.00 
    8    2    2      0.17      0.00 
    9    2    2      0.18      0.00 
   10    2    2     -0.12      0.00 
   11    2    2     -0.10      0.00 
   12    2    2      0.29      0.00 
  -10    3    2      0.10      0.00 
   -9    3    2     -0.12      0.00 
   -8    3    2      0.51      0.00 
   -7    3    2      0.28      0.00 
   -6    3    2     -0.19      0.00 
   -5    3    2     -0.66      0.00 
   -4    3    2     -0.27      0.00 
   -3    3    2      1.46      0.00 
   -2    3    2      0.52      0.00 
   -1    3    2      0.18      0.00 
    0    3    2      4.42      0.00 
    1    3    2     -6.29      0.00 
    2    3    2      0.84      0.00 
    3    3    2      2.55      0.00 
    4    3    2      0.17      0.00 
    5    3    2      0.67      0.00 
    6    3    2      0.12      0.00 
    7    3    2     -0.58      0.00 
    8    3    2     -0.19      0.00 
    9    3    2      0.16      0.00 
   10    3    2     -0.34      0.00 
   11    3    2     -0.34      0.00 
   12    3    2      0.74      0.00 
  -10    4    2     -0.06      0.00 
   -9    4    2     -0.09      0.00 
   -8    4    2      0.05      0.00 
   -7    4    2      0.22      0.00 
   -6    4    2      0.05      0.00 
   -5    4    2     -0.41      0.00 
   -4    4    2      0.61      0.00 
   -3    4    2      0.99      0.00 
   -2    4    2     -0.75      0.00 
   -1    4    2     -2.69      0.00 
    0    4    2     -1.11      0.00 
    1    4    2     -1.89      0.00 
    2    4    2      0.66      0.00 
    3    4    2      0.90      0.00 
    4    4    2     -0.77      0.00 
    5    4    2     -0.03      0.00 
    6    4    2      0.16      0.00 
    7    4    2     -0.28      0.00 
    8    4    2     -0.13      0.00 
    9    4    2      0.16      0.00 
   10    4    2     -0.63      0.00 
   11    4    2     -0.21      0.00 
   12    4    2      0.85      0.00 
   -9    5    2      0.11      0.00 
   -8    5    2     -0.32      0.00 
   -7    5    2      0.21      0.00 
   -6    5    2      0.21      0.00 
   -5    5    2      0.25      0.00 
   -4    5    2      1.11      0.00 
   -3    5    2     -0.08      0.00 
   -2    5    2     -1.38      0.00 
   -1    5    2     -2.95      0.00 
    0    5    2     -2.52      0.00 
    1    5    2      1.56      0.00 
    2    5    2     -0.48      0.00 
    3    5    2     -0.40      0.00 
    4    5    2     -1.20      0.00 
    5    5    2     -0.21      0.00 
    6    5    2      0.38      0.00 
    7    5    2     -0.14      0.00 
    8    5    2     -0.19      0.00 
    9    5    2      0.01      0.00 
   10    5    2     -0.45      0.00 
   11    5    2     -0.42      0.00 
   12    5    2      0.12      0.00 
   -9    6    2      0.11      0.00 
   -8    6    2     -0.69      0.00 
   -7    6    2     -0.26      0.00 
   -6    6    2      0.33      0.00 
   -5    6    2      0.68      0.00 
   -4    6    2      0.75      0.00 
   -3    6    2     -1.13      0.00 
   -2    6    2     -1.01      0.00 
   -1    6    2     -1.86      0.00 
    0    6    2     -1.99      0.00 
    1    6    2      2.60      0.00 
    2    6    2     -1.45      0.00 
    3    6    2     -0.59      0.00 
    4    6    2     -0.87      0.00 
    5    6    2      0.19      0.00 
    6    6    2      0.08      0.00 
    7    6    2     -0.33      0.00 
    8    6    2     -0.41      0.00 
    9    6    2      0.13      0.00 
   10    6    2     -0.22      0.00 
   11    6    2     -1.34      0.00 
   -8    7    2     -0.76      0.00 
   -7    7    2     -0.54      0.00 
   -6    7    2      0.48      0.00 
   -5    7    2      0.39      0.00 
   -4    7    2      0.34      0.00 
   -3    7    2     -1.25      0.00 
   -2    7    2     -0.03      0.00 
   -1    7    2     -0.35      0.00 
    0    7    2     -1.48      0.00 
    1    7    2      1.75      0.00 
    2    7    2     -1.06      0.00 
    3    7    2     -0.46      0.00 
    4    7    2     -0.16      0.00 
    5    7    2      0.39      0.00 
    6    7    2     -0.29      0.00 
    7    7    2     -0.29      0.00 
    8    7    2     -0.24      0.00 
    9    7    2      0.44      0.00 
   10    7    2     -0.48      0.00 
   11    7    2     -1.62      0.00 
   -8    8    2     -0.28      0.00 
   -7    8    2     -0.16      0.00 
   -6    8    2      0.34      0.00 
   -5    8    2     -0.22      0.00 
   -4    8    2      0.03      0.00 
   -3    8    2     -1.04      0.00 
   -2    8    2      0.56      0.00 
   -1    8    2      0.56      0.00 
    0    8    2     -1.18      0.00 
    1    8    2      1.19      0.00 
    2    8    2     -0.61      0.00 
    3    8    2     -0.48      0.00 
    4    8    2      0.24      0.00 
    5    8    2      0.42      0.00 
    6    8    2     -0.37      0.00 
    7    8    2     -0.02      0.00 
    8    8    2      0.36      0.00 
    9    8    2      0.63      0.00 
   10    8    2     -0.63      0.00 
   11    8    2     -0.80      0.00 
   -7    9    2      0.24      0.00 
   -6    9    2      0.05      0.00 
   -5    9    2     -0.80      0.00 
   -4    9    2     -0.57      0.00 
   -3    9    2     -0.55      0.00 
   -2    9    2      0.85      0.00 
   -1    9    2      0.85      0.00 
    0    9    2     -0.69      0.00 
    1    9    2      0.73      0.00 
    2    9    2     -0.78      0.00 
    3    9    2     -0.11      0.00 
    4    9    2      0.13      0.00 
    5    9    2      0.30      0.00 
    6    9    2     -0.68      0.00 
    7    9    2      0.02      0.00 
    8    9    2      0.62      0.00 
    9    9    2      0.62      0.00 
   10    9    2     -0.41      0.00 
   11    9    2     -0.12      0.00 
   -6   10    2      0.08      0.00 
   -5   10    2     -1.04      0.00 
   -4   10    2     -0.62      0.00 
   -3   10    2      0.28      0.00 
   -2   10    2      0.73      0.00 
   -1   10    2      0.75      0.00 
    0   10    2     -0.51      0.00 
    1   10    2      0.12      0.00 
    2   10    2     -0.24      0.00 
    3   10    2      0.16      0.00 
    4   10    2     -0.26      0.00 
    5   10    2     -0.25      0.00 
    6   10    2     -0.86      0.00 
    7   10    2     -0.46      0.00 
    8   10    2      0.05      0.00 
    9   10    2      0.44      0.00 
   10   10    2     -0.05      0.00 
   -5   11    2     -0.68      0.00 
   -4   11    2     -0.03      0.00 
   -3   11    2      0.31      0.00 
   -2   11    2      0.06      0.00 
   -1   11    2      0.76      0.00 
    0   11    2     -0.67      0.00 
    1   11    2      0.21      0.00 
    2   11    2      0.59      0.00 
    3   11    2     -0.28      0.00 
    4   11    2     -0.43      0.00 
    5   11    2     -0.44      0.00 
    6   11    2     -0.23      0.00 
    7   11    2     -1.08      0.00 
    8   11    2     -0.55      0.00 
    9   11    2      0.21      0.00 
   10   11    2      0.41      0.00 
   -4   12    2      0.14      0.00 
   -3   12    2     -0.33      0.00 
   -2   12    2     -0.27      0.00 
   -1   12    2      0.99      0.00 
    0   12    2     -0.89      0.00 
    1   12    2      0.61      0.00 
    2   12    2      0.55      0.00 
    3   12    2     -0.39      0.00 
    4   12    2     -0.21      0.00 
    5   12    2      0.25      0.00 
    6   12    2      0.55      0.00 
    7   12    2     -0.81      0.00 
    8   12    2     -0.38      0.00 
    9   12    2     -0.05      0.00 
   -2   13    2     -0.13      0.00 
   -1   13    2      0.74      0.00 
    0   13    2     -0.99      0.00 
    1   13    2      0.66      0.00 
    2   13    2      0.30      0.00 
    3   13    2      0.13      0.00 
    4   13    2     -0.17      0.00 
    5   13    2      0.84      0.00 
    6   13    2      0.67      0.00 
    7   13    2      0.30      0.00 
    8   13    2     -0.02      0.00 
    0   14    2     -0.55      0.00 
    1   14    2      0.41      0.00 
    2   14    2      0.20      0.00 
    3   14    2      0.19      0.00 
    4   14    2     -0.39      0.00 
    5   14    2      0.56      0.00 
    6   14    2      0.33      0.00 
   -5  -14    3      0.20      0.00 
   -4  -14    3     -0.12      0.00 
   -3  -14    3      0.23      0.00 
   -2  -14    3      0.47      0.00 
   -1  -14    3     -0.27      0.00 
   -7  -13    3      1.38      0.00 
   -6  -13    3     -0.19      0.00 
   -5  -13    3      0.76      0.00 
   -4  -13    3     -0.29      0.00 
   -3  -13    3     -0.11      0.00 
   -2  -13    3      0.51      0.00 
   -1  -13    3     -0.64      0.00 
    0  -13    3      0.37      0.00 
    1  -13    3     -1.05      0.00 
    2  -13    3      0.03      0.00 
   -8  -12    3     -0.16      0.00 
   -7  -12    3      1.47      0.00 
   -6  -12    3     -0.50      0.00 
   -5  -12    3      1.36      0.00 
   -4  -12    3     -0.39      0.00 
   -3  -12    3     -0.42      0.00 
   -2  -12    3     -0.12      0.00 
   -1  -12    3     -0.75      0.00 
    0  -12    3      0.33      0.00 
    1  -12    3     -0.91      0.00 
    2  -12    3      0.24      0.00 
    3  -12    3     -0.23      0.00 
    4  -12    3      0.23      0.00 
   -9  -11    3      0.48      0.00 
   -8  -11    3     -0.33      0.00 
   -7  -11    3      0.23      0.00 
   -6  -11    3     -0.63      0.00 
   -5  -11    3      1.33      0.00 
   -4  -11    3     -0.28      0.00 
   -3  -11    3     -0.93      0.00 
   -2  -11    3     -0.31      0.00 
   -1  -11    3     -0.27      0.00 
    0  -11    3      0.38      0.00 
    1  -11    3     -0.59      0.00 
    2  -11    3      0.18      0.00 
    3  -11    3      0.39      0.00 
    4  -11    3      0.59      0.00 
    5  -11    3     -0.17      0.00 
   -9  -10    3      0.59      0.00 
   -8  -10    3     -0.72      0.00 
   -7  -10    3     -0.68      0.00 
   -6  -10    3     -0.46      0.00 
   -5  -10    3      0.86      0.00 
   -4  -10    3     -0.09      0.00 
   -3  -10    3     -1.04      0.00 
   -2  -10    3      0.32      0.00 
   -1  -10    3     -0.23      0.00 
    0  -10    3      0.41      0.00 
    1  -10    3     -0.23      0.00 
    2  -10    3      0.33      0.00 
    3  -10    3      1.29      0.00 
    4  -10    3      0.20      0.00 
    5  -10    3     -0.22      0.00 
    6  -10    3      0.55      0.00 
  -10   -9    3      0.51      0.00 
   -9   -9    3      0.23      0.00 
   -8   -9    3     -0.62      0.00 
   -7   -9    3     -0.36      0.00 
   -6   -9    3     -0.36      0.00 
   -5   -9    3      0.57      0.00 
   -4   -9    3     -0.12      0.00 
   -3   -9    3     -0.50      0.00 
   -2   -9    3      0.65      0.00 
   -1   -9    3     -0.70      0.00 
    0   -9    3      0.88      0.00 
    1   -9    3      0.57      0.00 
    2   -9    3      0.60      0.00 
    3   -9    3      1.25      0.00 
    4   -9    3     -0.80      0.00 
    5   -9    3     -0.30      0.00 
    6   -9    3     -0.08      0.00 
    7   -9    3     -0.42      0.00 
  -10   -8    3      0.01      0.00 
   -9   -8    3     -0.02      0.00 
   -8   -8    3     -0.03      0.00 
   -7   -8    3      0.24      0.00 
   -6   -8    3     -0.34      0.00 
   -5   -8    3      0.21      0.00 
   -4   -8    3     -0.21      0.00 
   -3   -8    3      0.10      0.00 
   -2   -8    3      0.65      0.00 
   -1   -8    3     -1.06      0.00 
    0   -8    3      1.16      0.00 
    1   -8    3      1.49      0.00 
    2   -8    3      0.78      0.00 
    3   -8    3      0.76      0.00 
    4   -8    3     -1.27      0.00 
    5   -8    3     -0.36      0.00 
    6   -8    3     -0.56      0.00 
    7   -8    3      0.08      0.00 
    8   -8    3     -0.10      0.00 
  -11   -7    3      0.99      0.00 
  -10   -7    3     -0.38      0.00 
   -9   -7    3      0.31      0.00 
   -8   -7    3      0.41      0.00 
   -7   -7    3      0.28      0.00 
   -6   -7    3     -0.35      0.00 
   -5   -7    3     -0.45      0.00 
   -4   -7    3      0.13      0.00 
   -3   -7    3      0.16      0.00 
   -2   -7    3      0.77      0.00 
   -1   -7    3     -1.55      0.00 
    0   -7    3      0.65      0.00 
    1   -7    3      2.04      0.00 
    2   -7    3      1.02      0.00 
    3   -7    3      0.48      0.00 
    4   -7    3     -1.33      0.00 
    5   -7    3     -0.27      0.00 
    6   -7    3     -0.30      0.00 
    7   -7    3      0.38      0.00 
    8   -7    3     -0.10      0.00 
  -11   -6    3      0.84      0.00 
  -10   -6    3     -0.09      0.00 
   -9   -6    3      0.73      0.00 
   -8   -6    3      0.42      0.00 
   -7   -6    3     -0.08      0.00 
   -6   -6    3     -0.25      0.00 
   -5   -6    3     -0.73      0.00 
   -4   -6    3      0.43      0.00 
   -3   -6    3     -0.43      0.00 
   -2   -6    3      0.65      0.00 
   -1   -6    3     -1.38      0.00 
    0   -6    3     -0.68      0.00 
    1   -6    3      1.37      0.00 
    2   -6    3      0.37      0.00 
    3   -6    3     -0.32      0.00 
    4   -6    3     -1.23      0.00 
    5   -6    3      0.21      0.00 
    6   -6    3     -0.03      0.00 
    7   -6    3      0.00      0.00 
    8   -6    3     -0.41      0.00 
    9   -6    3     -0.55      0.00 
  -11   -5    3      0.76      0.00 
  -10   -5    3      0.25      0.00 
   -9   -5    3      0.49      0.00 
   -8   -5    3      0.24      0.00 
   -7   -5    3     -0.18      0.00 
   -6   -5    3      0.26      0.00 
   -5   -5    3     -0.55      0.00 
   -4   -5    3      0.17      0.00 
   -3   -5    3     -1.16      0.00 
   -2   -5    3      0.59      0.00 
   -1   -5    3     -0.24      0.00 
    0   -5    3     -4.36      0.00 
    1   -5    3     -0.96      0.00 
    2   -5    3     -1.69      0.00 
    3   -5    3     -1.01      0.00 
    4   -5    3     -0.17      0.00 
    5   -5    3      0.55      0.00 
    6   -5    3     -0.19      0.00 
    7   -5    3     -0.37      0.00 
    8   -5    3     -0.62      0.00 
    9   -5    3     -0.16      0.00 
  -11   -4    3      0.51      0.00 
  -10   -4    3     -0.11      0.00 
   -9   -4    3      0.04      0.00 
   -8   -4    3      0.19      0.00 
   -7   -4    3      0.20      0.00 
   -6   -4    3      0.65      0.00 
   -5   -4    3     -0.49      0.00 
   -4   -4    3      0.05      0.00 
   -3   -4    3     -1.49      0.00 
   -2   -4    3      0.99      0.00 
   -1   -4    3     -0.31      0.00 
    0   -4    3    -11.80      0.00 
    1   -4    3     -3.75      0.00 
    2   -4    3     -3.45      0.00 
    3   -4    3     -0.33      0.00 
    4   -4    3      1.25      0.00 
    5   -4    3      0.14      0.00 
    6   -4    3     -0.35      0.00 
    7   -4    3     -0.45      0.00 
    8   -4    3     -0.52      0.00 
    9   -4    3      0.11      0.00 
   10   -4    3      0.36      0.00 
  -11   -3    3     -0.19      0.00 
  -10   -3    3     -0.15      0.00 
   -9   -3    3      0.14      0.00 
   -8   -3    3      0.11      0.00 
   -7   -3    3      0.42      0.00 
   -6   -3    3      0.31      0.00 
   -5   -3    3     -0.44      0.00 
   -4   -3    3      0.38      0.00 
   -3   -3    3     -1.19      0.00 
   -2   -3    3      1.61      0.00 
   -1   -3    3     -2.29      0.00 
    0   -3    3    -23.64      0.00 
    1   -3    3     -6.58      0.00 
    2   -3    3     -3.84      0.00 
    3   -3    3      0.75      0.00 
    4   -3    3      1.80      0.00 
    5   -3    3     -0.62      0.00 
    6   -3    3     -0.59      0.00 
    7   -3    3     -0.53      0.00 
    8   -3    3      0.03      0.00 
    9   -3    3      0.22      0.00 
   10   -3    3      0.63      0.00 
  -11   -2    3     -0.41      0.00 
  -10   -2    3      0.57      0.00 
   -9   -2    3      0.18      0.00 
   -8   -2    3     -0.24      0.00 
   -7   -2    3      0.13      0.00 
   -6   -2    3     -0.20      0.00 
   -5   -2    3     -0.28      0.00 
   -4   -2    3      0.68      0.00 
   -3   -2    3      0.28      0.00 
   -2   -2    3      2.31      0.00 
   -1   -2    3     -5.78      0.00 
    0   -2    3    -40.41      0.00 
    1   -2    3     -8.17      0.00 
    2   -2    3     -2.89      0.00 
    3   -2    3      1.39      0.00 
    4   -2    3      1.67      0.00 
    5   -2    3     -1.38      0.00 
    6   -2    3     -1.14      0.00 
    7   -2    3     -0.14      0.00 
    8   -2    3      1.01      0.00 
    9   -2    3      0.47      0.00 
   10   -2    3      0.57      0.00 
   11   -2    3     -0.10      0.00 
  -11   -1    3     -0.02      0.00 
  -10   -1    3      0.58      0.00 
   -9   -1    3     -0.23      0.00 
   -8   -1    3     -0.40      0.00 
   -7   -1    3     -0.14      0.00 
   -6   -1    3     -0.36      0.00 
   -5   -1    3     -0.26      0.00 
   -4   -1    3      1.27      0.00 
   -3   -1    3      2.10      0.00 
   -2   -1    3      1.80      0.00 
   -1   -1    3    -11.69      0.00 
    0   -1    3    -54.28      0.00 
    1   -1    3     -3.61      0.00 
    2   -1    3     -0.78      0.00 
    3   -1    3      1.75      0.00 
    4   -1    3      0.78      0.00 
    5   -1    3     -2.14      0.00 
    6   -1    3     -1.19      0.00 
    7   -1    3      0.74      0.00 
    8   -1    3      1.32      0.00 
    9   -1    3      0.14      0.00 
   10   -1    3     -0.29      0.00 
   11   -1    3     -0.72      0.00 
  -11    0    3      0.02      0.00 
  -10    0    3     -0.32      0.00 
   -9    0    3     -0.27      0.00 
   -8    0    3     -0.19      0.00 
   -7    0    3     -0.32      0.00 
   -6    0    3     -0.34      0.00 
   -5    0    3     -0.10      0.00 
   -4    0    3      1.93      0.00 
   -3    0    3      1.85      0.00 
   -2    0    3     -0.63      0.00 
   -1    0    3    -16.45      0.00 
    0    0    3    -50.77      0.00 
    1    0    3      6.62      0.00 
    2    0    3      0.51      0.00 
    3    0    3      0.77      0.00 
    4    0    3     -1.03      0.00 
    5    0    3     -2.20      0.00 
    6    0    3     -0.57      0.00 
    7    0    3      0.97      0.00 
    8    0    3      0.39      0.00 
    9    0    3     -0.59      0.00 
   10    0    3     -0.71      0.00 
   11    0    3     -0.60      0.00 
  -11    1    3     -0.14      0.00 
  -10    1    3     -0.70      0.00 
   -9    1    3      0.08      0.00 
   -8    1    3     -0.22      0.00 
   -7    1    3     -0.54      0.00 
   -6    1    3     -0.09      0.00 
   -5    1    3      0.27      0.00 
   -4    1    3      1.59      0.00 
   -3    1    3     -0.23      0.00 
   -2    1    3     -2.28      0.00 
   -1    1    3    -13.61      0.00 
    0    1    3    -30.31      0.00 
    1    1    3     12.77      0.00 
    2    1    3     -0.46      0.00 
    3    1    3     -1.68      0.00 
    4    1    3     -1.97      0.00 
    5    1    3     -1.49      0.00 
    6    1    3     -0.24      0.00 
    7    1    3      0.54      0.00 
    8    1    3     -0.40      0.00 
    9    1    3     -0.56      0.00 
   10    1    3     -0.24      0.00 
   11    1    3     -0.15      0.00 
  -10    2    3     -0.42      0.00 
   -9    2    3      0.18      0.00 
   -8    2    3     -0.40      0.00 
   -7    2    3     -0.40      0.00 
   -6    2    3      0.27      0.00 
   -5    2    3      0.43      0.00 
   -4    2    3      0.55      0.00 
   -3    2    3     -1.46      0.00 
   -2    2    3     -1.27      0.00 
   -1    2    3     -5.32      0.00 
    0    2    3    -10.19      0.00 
    1    2    3     10.46      0.00 
    2    2    3     -1.74      0.00 
    4    2    3     -1.02      0.00 
    5    2    3     -0.93      0.00 
    6    2    3     -0.21      0.00 
    7    2    3      0.47      0.00 
    8    2    3     -0.22      0.00 
    9    2    3     -0.11      0.00 
   10    2    3      0.21      0.00 
   11    2    3      0.26      0.00 
   12    2    3     -0.39      0.00 
  -10    3    3     -0.07      0.00 
   -9    3    3      0.20      0.00 
   -8    3    3     -0.16      0.00 
   -7    3    3     -0.17      0.00 
   -6    3    3      0.23      0.00 
   -5    3    3      0.34      0.00 
   -4    3    3     -0.36      0.00 
   -3    3    3     -1.33      0.00 
   -2    3    3      0.48      0.00 
   -1    3    3      0.87      0.00 
    0    3    3     -0.32      0.00 
    1    3    3      5.19      0.00 
    2    3    3     -1.70      0.00 
    3    3    3     -2.10      0.00 
    4    3    3      0.43      0.00 
    5    3    3     -0.52      0.00 
    6    3    3     -0.05      0.00 
    7    3    3      0.52      0.00 
    8    3    3      0.00      0.00 
    9    3    3     -0.05      0.00 
   10    3    3      0.51      0.00 
   11    3    3      0.40      0.00 
   12    3    3     -1.01      0.00 
  -10    4    3      0.22      0.00 
   -9    4    3      0.22      0.00 
   -8    4    3      0.21      0.00 
   -7    4    3     -0.39      0.00 
   -6    4    3     -0.07      0.00 
   -5    4    3      0.01      0.00 
   -4    4    3     -1.09      0.00 
   -3    4    3     -0.66      0.00 
   -2    4    3      1.46      0.00 
   -1    4    3      3.04      0.00 
    0    4    3      2.72      0.00 
    1    4    3      0.76      0.00 
    2    4    3     -0.70      0.00 
    3    4    3     -0.15      0.00 
    4    4    3      1.23      0.00 
    5    4    3      0.00      0.00 
    6    4    3     -0.17      0.00 
    7    4    3      0.23      0.00 
    8    4    3     -0.13      0.00 
    9    4    3     -0.09      0.00 
   10    4    3      0.62      0.00 
   11    4    3      0.19      0.00 
   12    4    3     -1.07      0.00 
   -9    5    3      0.05      0.00 
   -8    5    3      0.51      0.00 
   -7    5    3     -0.51      0.00 
   -6    5    3     -0.14      0.00 
   -5    5    3     -0.56      0.00 
   -4    5    3     -1.22      0.00 
   -3    5    3      0.47      0.00 
   -2    5    3      1.60      0.00 
   -1    5    3      2.96      0.00 
    0    5    3      2.82      0.00 
    1    5    3     -2.32      0.00 
    2    5    3      0.84      0.00 
    3    5    3      0.86      0.00 
    4    5    3      1.33      0.00 
    5    5    3      0.03      0.00 
    6    5    3     -0.33      0.00 
    7    5    3      0.16      0.00 
    8    5    3     -0.02      0.00 
    9    5    3      0.00      0.00 
   10    5    3      0.27      0.00 
   11    5    3      0.51      0.00 
   12    5    3     -0.14      0.00 
   -9    6    3      0.06      0.00 
   -8    6    3      0.90      0.00 
   -7    6    3     -0.04      0.00 
   -6    6    3     -0.14      0.00 
   -5    6    3     -0.79      0.00 
   -4    6    3     -0.66      0.00 
   -3    6    3      1.23      0.00 
   -2    6    3      0.69      0.00 
   -1    6    3      1.55      0.00 
    0    6    3      1.79      0.00 
    1    6    3     -2.82      0.00 
    2    6    3      1.67      0.00 
    3    6    3      0.68      0.00 
    4    6    3      0.85      0.00 
    5    6    3     -0.27      0.00 
    6    6    3      0.01      0.00 
    7    6    3      0.34      0.00 
    8    6    3      0.27      0.00 
    9    6    3     -0.05      0.00 
   10    6    3      0.09      0.00 
   11    6    3      1.45      0.00 
   -8    7    3      0.98      0.00 
   -7    7    3      0.26      0.00 
   -6    7    3     -0.22      0.00 
   -5    7    3     -0.39      0.00 
   -4    7    3     -0.30      0.00 
   -3    7    3      1.12      0.00 
   -2    7    3     -0.46      0.00 
   -1    7    3      0.08      0.00 
    0    7    3      1.34      0.00 
    1    7    3     -1.71      0.00 
    2    7    3      1.03      0.00 
    3    7    3      0.47      0.00 
    4    7    3      0.22      0.00 
    5    7    3     -0.28      0.00 
    6    7    3      0.29      0.00 
    7    7    3      0.28      0.00 
    8    7    3      0.19      0.00 
    9    7    3     -0.23      0.00 
   10    7    3      0.34      0.00 
   11    7    3      1.50      0.00 
   -7    8    3     -0.03      0.00 
   -6    8    3     -0.18      0.00 
   -5    8    3      0.28      0.00 
   -4    8    3      0.01      0.00 
   -3    8    3      0.82      0.00 
   -2    8    3     -0.96      0.00 
   -1    8    3     -0.56      0.00 
    0    8    3      1.19      0.00 
    1    8    3     -1.06      0.00 
    2    8    3      0.57      0.00 
    3    8    3      0.50      0.00 
    4    8    3     -0.16      0.00 
    5    8    3     -0.22      0.00 
    6    8    3      0.33      0.00 
    7    8    3      0.09      0.00 
    8    8    3     -0.32      0.00 
    9    8    3     -0.49      0.00 
   10    8    3      0.36      0.00 
   11    8    3      0.50      0.00 
   -7    9    3     -0.31      0.00 
   -6    9    3     -0.15      0.00 
   -5    9    3      0.90      0.00 
   -4    9    3      0.48      0.00 
   -3    9    3      0.26      0.00 
   -2    9    3     -1.12      0.00 
   -1    9    3     -0.69      0.00 
    0    9    3      0.76      0.00 
    1    9    3     -0.51      0.00 
    2    9    3      0.76      0.00 
    3    9    3      0.09      0.00 
    4    9    3     -0.15      0.00 
    5    9    3     -0.08      0.00 
    6    9    3      0.66      0.00 
    7    9    3      0.10      0.00 
    8    9    3     -0.51      0.00 
    9    9    3     -0.74      0.00 
   10    9    3      0.09      0.00 
   11    9    3     -0.11      0.00 
   -6   10    3     -0.38      0.00 
   -5   10    3      1.08      0.00 
   -4   10    3      0.28      0.00 
   -3   10    3     -0.43      0.00 
   -2   10    3     -0.86      0.00 
   -1   10    3     -0.63      0.00 
    0   10    3      0.55      0.00 
    1   10    3      0.06      0.00 
    2   10    3      0.22      0.00 
    3   10    3     -0.10      0.00 
    4   10    3      0.14      0.00 
    5   10    3      0.29      0.00 
    6   10    3      0.67      0.00 
    7   10    3      0.37      0.00 
    8   10    3      0.11      0.00 
    9   10    3     -0.70      0.00 
   10   10    3     -0.12      0.00 
   -5   11    3      0.63      0.00 
   -4   11    3     -0.29      0.00 
   -3   11    3     -0.13      0.00 
   -2   11    3     -0.17      0.00 
   -1   11    3     -0.71      0.00 
    0   11    3      0.70      0.00 
    1   11    3     -0.09      0.00 
    2   11    3     -0.51      0.00 
    3   11    3      0.39      0.00 
    4   11    3      0.17      0.00 
    5   11    3      0.13      0.00 
    6   11    3     -0.23      0.00 
    7   11    3      0.66      0.00 
    8   11    3      0.79      0.00 
    9   11    3     -0.35      0.00 
   10   11    3     -0.42      0.00 
   -4   12    3     -0.23      0.00 
   -3   12    3      0.52      0.00 
   -2   12    3      0.15      0.00 
   -1   12    3     -0.80      0.00 
    0   12    3      1.02      0.00 
    1   12    3     -0.50      0.00 
    2   12    3     -0.51      0.00 
    3   12    3      0.35      0.00 
    4   12    3     -0.13      0.00 
    5   12    3     -0.67      0.00 
    6   12    3     -1.03      0.00 
    7   12    3      0.26      0.00 
    8   12    3      0.71      0.00 
    9   12    3      0.06      0.00 
   -2   13    3      0.17      0.00 
   -1   13    3     -0.41      0.00 
    0   13    3      1.09      0.00 
    1   13    3     -0.64      0.00 
    2   13    3     -0.43      0.00 
    3   13    3     -0.28      0.00 
    4   13    3     -0.06      0.00 
    5   13    3     -0.99      0.00 
    6   13    3     -0.92      0.00 
    7   13    3     -0.63      0.00 
    8   13    3      0.33      0.00 
    0   14    3      0.51      0.00 
    1   14    3     -0.42      0.00 
    2   14    3     -0.37      0.00 
    3   14    3     -0.29      0.00 
    4   14    3      0.31      0.00 
    5   14    3     -0.42      0.00 
    6   14    3     -0.40      0.00 
   -4  -14    4      0.14      0.00 
   -3  -14    4     -0.09      0.00 
   -2  -14    4     -0.42      0.00 
   -1  -14    4      0.15      0.00 
   -6  -13    4      0.20      0.00 
   -5  -13    4     -0.78      0.00 
   -4  -13    4      0.32      0.00 
   -3  -13    4      0.12      0.00 
   -2  -13    4     -0.43      0.00 
   -1  -13    4      0.59      0.00 
    0  -13    4     -0.32      0.00 
    1  -13    4      1.02      0.00 
    2  -13    4      0.03      0.00 
   -8  -12    4      0.11      0.00 
   -7  -12    4     -0.98      0.00 
   -6  -12    4      0.57      0.00 
   -5  -12    4     -1.34      0.00 
   -4  -12    4      0.46      0.00 
   -3  -12    4      0.35      0.00 
   -2  -12    4      0.19      0.00 
   -1  -12    4      0.73      0.00 
    0  -12    4     -0.44      0.00 
    1  -12    4      0.84      0.00 
    2  -12    4     -0.15      0.00 
    3  -12    4      0.37      0.00 
    4  -12    4     -0.02      0.00 
   -9  -11    4     -0.54      0.00 
   -8  -11    4      0.21      0.00 
   -7  -11    4      0.14      0.00 
   -6  -11    4      0.61      0.00 
   -5  -11    4     -1.28      0.00 
   -4  -11    4      0.37      0.00 
   -3  -11    4      0.80      0.00 
   -2  -11    4      0.32      0.00 
   -1  -11    4      0.25      0.00 
    0  -11    4     -0.62      0.00 
    1  -11    4      0.53      0.00 
    2  -11    4     -0.23      0.00 
    3  -11    4     -0.27      0.00 
    4  -11    4     -0.18      0.00 
    5  -11    4      0.30      0.00 
   -9  -10    4     -0.63      0.00 
   -8  -10    4      0.37      0.00 
   -7  -10    4      0.71      0.00 
   -6  -10    4      0.32      0.00 
   -5  -10    4     -0.89      0.00 
   -4  -10    4      0.16      0.00 
   -3  -10    4      0.90      0.00 
   -2  -10    4     -0.32      0.00 
   -1  -10    4      0.21      0.00 
    0  -10    4     -0.77      0.00 
    1  -10    4      0.07      0.00 
    2  -10    4     -0.52      0.00 
    3  -10    4     -1.03      0.00 
    4  -10    4      0.37      0.00 
    5  -10    4      0.28      0.00 
    6  -10    4     -0.59      0.00 
  -10   -9    4     -0.46      0.00 
   -9   -9    4     -0.25      0.00 
   -8   -9    4      0.13      0.00 
   -7   -9    4      0.31      0.00 
   -6   -9    4      0.22      0.00 
   -5   -9    4     -0.69      0.00 
   -4   -9    4      0.15      0.00 
   -3   -9    4      0.37      0.00 
   -2   -9    4     -0.66      0.00 
   -1   -9    4      0.65      0.00 
    0   -9    4     -1.24      0.00 
    1   -9    4     -0.73      0.00 
    2   -9    4     -0.68      0.00 
    3   -9    4     -0.88      0.00 
    4   -9    4      1.24      0.00 
    5   -9    4      0.21      0.00 
    6   -9    4      0.05      0.00 
    7   -9    4      0.21      0.00 
  -10   -8    4     -0.05      0.00 
   -9   -8    4      0.02      0.00 
   -8   -8    4     -0.33      0.00 
   -7   -8    4     -0.01      0.00 
   -6   -8    4      0.29      0.00 
   -5   -8    4     -0.33      0.00 
   -4   -8    4      0.19      0.00 
   -3   -8    4     -0.22      0.00 
   -2   -8    4     -0.66      0.00 
   -1   -8    4      1.07      0.00 
    0   -8    4     -1.25      0.00 
    1   -8    4     -1.44      0.00 
    2   -8    4     -0.64      0.00 
    3   -8    4     -0.49      0.00 
    4   -8    4      1.46      0.00 
    5   -8    4      0.11      0.00 
    6   -8    4      0.38      0.00 
    7   -8    4     -0.39      0.00 
    8   -8    4     -0.01      0.00 
  -11   -7    4     -0.62      0.00 
  -10   -7    4      0.21      0.00 
   -9   -7    4     -0.22      0.00 
   -8   -7    4     -0.52      0.00 
   -7   -7    4      0.22      0.00 
   -6   -7    4      0.35      0.00 
   -5   -7    4      0.39      0.00 
   -4   -7    4     -0.12      0.00 
   -3   -7    4     -0.18      0.00 
   -2   -7    4     -0.66      0.00 
   -1   -7    4      1.61      0.00 
    0   -7    4     -0.33      0.00 
    1   -7    4     -1.71      0.00 
    2   -7    4     -0.66      0.00 
    3   -7    4     -0.29      0.00 
    4   -7    4      1.32      0.00 
    5   -7    4     -0.17      0.00 
    6   -7    4      0.04      0.00 
    7   -7    4     -0.62      0.00 
    8   -7    4      0.03      0.00 
  -11   -6    4     -0.63      0.00 
  -10   -6    4     -0.14      0.00 
   -9   -6    4     -0.49      0.00 
   -8   -6    4     -0.39      0.00 
   -7   -6    4      0.63      0.00 
   -6   -6    4      0.22      0.00 
   -5   -6    4      0.75      0.00 
   -4   -6    4     -0.32      0.00 
   -3   -6    4      0.50      0.00 
   -2   -6    4     -0.61      0.00 
   -1   -6    4      1.44      0.00 
    0   -6    4      1.49      0.00 
    1   -6    4     -0.75      0.00 
    2   -6    4      0.26      0.00 
    3   -6    4      0.50      0.00 
    4   -6    4      0.98      0.00 
    5   -6    4     -0.64      0.00 
    6   -6    4     -0.08      0.00 
    7   -6    4     -0.11      0.00 
    8   -6    4      0.40      0.00 
    9   -6    4      0.35      0.00 
  -11   -5    4     -0.75      0.00 
  -10   -5    4     -0.33      0.00 
   -9   -5    4     -0.11      0.00 
   -8   -5    4     -0.15      0.00 
   -7   -5    4      0.59      0.00 
   -6   -5    4     -0.29      0.00 
   -5   -5    4      0.58      0.00 
   -4   -5    4     -0.09      0.00 
   -3   -5    4      1.05      0.00 
   -2   -5    4     -0.84      0.00 
   -1   -5    4      0.66      0.00 
    0   -5    4      5.78      0.00 
    1   -5    4      1.75      0.00 
    2   -5    4      2.31      0.00 
    3   -5    4      0.99      0.00 
    4   -5    4     -0.22      0.00 
    5   -5    4     -0.65      0.00 
    6   -5    4      0.25      0.00 
    7   -5    4      0.30      0.00 
    8   -5    4      0.59      0.00 
    9   -5    4     -0.12      0.00 
  -11   -4    4     -0.49      0.00 
  -10   -4    4      0.14      0.00 
   -9   -4    4      0.34      0.00 
   -8   -4    4     -0.08      0.00 
   -7   -4    4      0.04      0.00 
   -6   -4    4     -0.62      0.00 
   -5   -4    4      0.43      0.00 
   -4   -4    4     -0.13      0.00 
   -3   -4    4      1.12      0.00 
   -2   -4    4     -1.26      0.00 
   -1   -4    4      1.45      0.00 
    0   -4    4     13.44      0.00 
    1   -4    4      4.21      0.00 
    2   -4    4      3.62      0.00 
    3   -4    4      0.02      0.00 
    4   -4    4     -1.47      0.00 
    5   -4    4      0.09      0.00 
    6   -4    4      0.41      0.00 
    7   -4    4      0.33      0.00 
    8   -4    4      0.36      0.00 
    9   -4    4     -0.28      0.00 
   10   -4    4     -0.09      0.00 
  -11   -3    4      0.22      0.00 
  -10   -3    4      0.08      0.00 
   -9   -3    4      0.17      0.00 
   -8   -3    4     -0.04      0.00 
   -7   -3    4     -0.25      0.00 
   -6   -3    4     -0.27      0.00 
   -5   -3    4      0.33      0.00 
   -4   -3    4     -0.47      0.00 
   -3   -3    4      0.84      0.00 
   -2   -3    4     -1.53      0.00 
   -1   -3    4      3.86      0.00 
    0   -3    4     24.06      0.00 
    1   -3    4      5.63      0.00 
    2   -3    4      3.37      0.00 
    3   -3    4     -1.23      0.00 
    4   -3    4     -1.69      0.00 
    5   -3    4      0.93      0.00 
    6   -3    4      0.63      0.00 
    7   -3    4      0.26      0.00 
    8   -3    4     -0.34      0.00 
    9   -3    4     -0.24      0.00 
   10   -3    4     -0.45      0.00 
  -11   -2    4      0.32      0.00 
  -10   -2    4     -0.68      0.00 
   -9   -2    4      0.10      0.00 
   -8   -2    4      0.23      0.00 
   -7   -2    4      0.05      0.00 
   -6   -2    4      0.21      0.00 
   -5   -2    4      0.30      0.00 
   -4   -2    4     -0.67      0.00 
   -3   -2    4     -0.31      0.00 
   -2   -2    4     -1.74      0.00 
   -1   -2    4      6.91      0.00 
    0   -2    4     36.95      0.00 
    1   -2    4      4.62      0.00 
    2   -2    4      2.12      0.00 
    3   -2    4     -1.74      0.00 
    4   -2    4     -1.15      0.00 
    5   -2    4      1.69      0.00 
    6   -2    4      1.14      0.00 
    7   -2    4     -0.27      0.00 
    8   -2    4     -1.29      0.00 
    9   -2    4     -0.35      0.00 
   10   -2    4     -0.39      0.00 
   11   -2    4      0.14      0.00 
  -11   -1    4     -0.09      0.00 
  -10   -1    4     -0.54      0.00 
   -9   -1    4      0.42      0.00 
   -8   -1    4      0.35      0.00 
   -7   -1    4      0.35      0.00 
   -6   -1    4      0.36      0.00 
   -5   -1    4      0.34      0.00 
   -4   -1    4     -1.13      0.00 
   -3   -1    4     -1.74      0.00 
   -2   -1    4     -0.90      0.00 
   -1   -1    4     11.00      0.00 
    0   -1    4     44.95      0.00 
    1   -1    4     -1.88      0.00 
    2   -1    4      0.81      0.00 
    3   -1    4     -1.47      0.00 
    4   -1    4      0.16      0.00 
    5   -1    4      2.36      0.00 
    6   -1    4      1.05      0.00 
    7   -1    4     -1.06      0.00 
    8   -1    4     -1.38      0.00 
    9   -1    4      0.07      0.00 
   10   -1    4      0.50      0.00 
   11   -1    4      0.68      0.00 
  -11    0    4     -0.02      0.00 
  -10    0    4      0.47      0.00 
   -9    0    4      0.33      0.00 
   -8    0    4      0.20      0.00 
   -7    0    4      0.44      0.00 
   -6    0    4      0.28      0.00 
   -5    0    4      0.10      0.00 
   -4    0    4     -1.58      0.00 
   -3    0    4     -1.41      0.00 
   -2    0    4      1.31      0.00 
   -1    0    4     13.16      0.00 
    0    0    4     37.82      0.00 
    1    0    4    -10.92      0.00 
    2    0    4      1.15      0.00 
    3    0    4      0.10      0.00 
    4    0    4      1.90      0.00 
    5    0    4      2.13      0.00 
    6    0    4      0.34      0.00 
    7    0    4     -1.01      0.00 
    8    0    4     -0.34      0.00 
    9    0    4      0.73      0.00 
   10    0    4      0.83      0.00 
   11    0    4      0.44      0.00 
  -11    1    4      0.18      0.00 
  -10    1    4      0.82      0.00 
   -9    1    4     -0.11      0.00 
   -8    1    4      0.19      0.00 
   -7    1    4      0.39      0.00 
   -6    1    4     -0.01      0.00 
   -5    1    4     -0.25      0.00 
   -4    1    4     -1.05      0.00 
   -3    1    4      0.32      0.00 
   -2    1    4      2.32      0.00 
   -1    1    4      9.26      0.00 
    0    1    4     19.38      0.00 
    1    1    4    -13.74      0.00 
    2    1    4      3.02      0.00 
    3    1    4      2.23      0.00 
    4    1    4      2.15      0.00 
    5    1    4      1.13      0.00 
    6    1    4      0.07      0.00 
    7    1    4     -0.43      0.00 
    8    1    4      0.37      0.00 
    9    1    4      0.58      0.00 
   10    1    4      0.23      0.00 
   11    1    4     -0.04      0.00 
  -10    2    4      0.46      0.00 
   -9    2    4     -0.31      0.00 
   -8    2    4      0.22      0.00 
   -7    2    4      0.10      0.00 
   -6    2    4     -0.25      0.00 
   -5    2    4     -0.21      0.00 
   -4    2    4      0.03      0.00 
   -3    2    4      1.18      0.00 
   -2    2    4      0.98      0.00 
   -1    2    4      2.33      0.00 
    0    2    4      4.37      0.00 
    1    2    4     -9.19      0.00 
    2    2    4      3.77      0.00 
    3    2    4      2.68      0.00 
    4    2    4      0.56      0.00 
    5    2    4      0.51      0.00 
    6    2    4      0.15      0.00 
    7    2    4     -0.37      0.00 
    8    2    4      0.20      0.00 
    9    2    4      0.06      0.00 
   10    2    4     -0.33      0.00 
   11    2    4     -0.36      0.00 
   12    2    4      0.39      0.00 
  -10    3    4      0.04      0.00 
   -9    3    4     -0.41      0.00 
   -8    3    4      0.03      0.00 
   -7    3    4      0.02      0.00 
   -6    3    4      0.00      0.00 
   -5    3    4      0.07      0.00 
   -4    3    4      0.86      0.00 
   -3    3    4      0.89      0.00 
   -2    3    4     -0.73      0.00 
   -1    3    4     -2.04      0.00 
    0    3    4     -1.78      0.00 
    1    3    4     -3.57      0.00 
    2    3    4      2.64      0.00 
    3    3    4      1.08      0.00 
    4    3    4     -0.97      0.00 
    5    3    4      0.22      0.00 
    6    3    4      0.10      0.00 
    7    3    4     -0.45      0.00 
    8    3    4      0.13      0.00 
    9    3    4      0.00      0.00 
   10    3    4     -0.63      0.00 
   11    3    4     -0.31      0.00 
   12    3    4      1.03      0.00 
  -10    4    4     -0.25      0.00 
   -9    4    4     -0.43      0.00 
   -8    4    4     -0.11      0.00 
   -7    4    4      0.45      0.00 
   -6    4    4      0.34      0.00 
   -5    4    4      0.42      0.00 
   -4    4    4      1.35      0.00 
   -3    4    4      0.12      0.00 
   -2    4    4     -1.58      0.00 
   -1    4    4     -3.33      0.00 
    0    4    4     -3.19      0.00 
    1    4    4      0.54      0.00 
    2    4    4      0.79      0.00 
    3    4    4     -0.78      0.00 
    4    4    4     -1.43      0.00 
    5    4    4     -0.08      0.00 
    6    4    4      0.23      0.00 
    7    4    4     -0.23      0.00 
    8    4    4      0.28      0.00 
    9    4    4      0.12      0.00 
   10    4    4     -0.60      0.00 
   11    4    4      0.04      0.00 
   12    4    4      0.91      0.00 
   -9    5    4     -0.27      0.00 
   -8    5    4     -0.25      0.00 
   -7    5    4      0.60      0.00 
   -6    5    4      0.30      0.00 
   -5    5    4      0.81      0.00 
   -4    5    4      1.16      0.00 
   -3    5    4     -0.92      0.00 
   -2    5    4     -1.41      0.00 
   -1    5    4     -2.79      0.00 
    0    5    4     -2.58      0.00 
    1    5    4      3.06      0.00 
    2    5    4     -1.13      0.00 
    3    5    4     -1.32      0.00 
    4    5    4     -1.15      0.00 
    5    5    4      0.01      0.00 
    6    5    4      0.29      0.00 
    7    5    4     -0.19      0.00 
    8    5    4      0.06      0.00 
    9    5    4      0.17      0.00 
   10    5    4     -0.23      0.00 
   11    5    4     -0.24      0.00 
   12    5    4     -0.25      0.00 
   -9    6    4     -0.28      0.00 
   -8    6    4     -0.66      0.00 
   -7    6    4      0.10      0.00 
   -6    6    4      0.15      0.00 
   -5    6    4      0.82      0.00 
   -4    6    4      0.57      0.00 
   -3    6    4     -1.36      0.00 
   -2    6    4     -0.18      0.00 
   -1    6    4     -1.11      0.00 
    0    6    4     -1.47      0.00 
    1    6    4      2.98      0.00 
    2    6    4     -1.83      0.00 
    3    6    4     -0.76      0.00 
    4    6    4     -0.59      0.00 
    5    6    4      0.23      0.00 
    6    6    4     -0.11      0.00 
    7    6    4     -0.26      0.00 
    8    6    4     -0.36      0.00 
    9    6    4      0.23      0.00 
   10    6    4     -0.22      0.00 
   11    6    4     -0.99      0.00 
   -8    7    4     -0.80      0.00 
   -7    7    4     -0.21      0.00 
   -6    7    4      0.16      0.00 
   -5    7    4      0.29      0.00 
   -4    7    4      0.31      0.00 
   -3    7    4     -1.09      0.00 
   -2    7    4      0.96      0.00 
   -1    7    4      0.20      0.00 
    0    7    4     -1.31      0.00 
    1    7    4      1.71      0.00 
    2    7    4     -0.98      0.00 
    3    7    4     -0.45      0.00 
    4    7    4     -0.11      0.00 
    5    7    4      0.16      0.00 
    6    7    4     -0.35      0.00 
    7    7    4     -0.09      0.00 
    8    7    4     -0.40      0.00 
    9    7    4      0.34      0.00 
   10    7    4     -0.54      0.00 
   11    7    4     -0.70      0.00 
   -7    8    4      0.04      0.00 
   -6    8    4      0.19      0.00 
   -5    8    4     -0.43      0.00 
   -4    8    4     -0.01      0.00 
   -3    8    4     -0.80      0.00 
   -2    8    4      1.27      0.00 
   -1    8    4      0.56      0.00 
    0    8    4     -1.35      0.00 
    1    8    4      1.05      0.00 
    2    8    4     -0.54      0.00 
    3    8    4     -0.43      0.00 
    4    8    4      0.18      0.00 
    5    8    4      0.12      0.00 
    6    8    4     -0.42      0.00 
    7    8    4      0.08      0.00 
    8    8    4      0.05      0.00 
    9    8    4      0.71      0.00 
   10    8    4     -0.46      0.00 
   11    8    4      0.38      0.00 
   -7    9    4      0.28      0.00 
   -6    9    4      0.33      0.00 
   -5    9    4     -1.03      0.00 
   -4    9    4     -0.37      0.00 
   -3    9    4     -0.19      0.00 
   -2    9    4      1.24      0.00 
   -1    9    4      0.63      0.00 
    0    9    4     -0.97      0.00 
    1    9    4      0.46      0.00 
    2    9    4     -0.73      0.00 
    3    9    4      0.03      0.00 
    4    9    4      0.21      0.00 
    5    9    4      0.06      0.00 
    6    9    4     -0.73      0.00 
    7    9    4      0.10      0.00 
    8    9    4      0.33      0.00 
    9    9    4      1.12      0.00 
   10    9    4     -0.21      0.00 
   11    9    4      0.74      0.00 
   -6   10    4      0.63      0.00 
   -5   10    4     -1.08      0.00 
   -4   10    4      0.00      0.00 
   -3   10    4      0.33      0.00 
   -2   10    4      0.85      0.00 
   -1   10    4      0.71      0.00 
    0   10    4     -0.70      0.00 
    1   10    4     -0.07      0.00 
    2   10    4     -0.17      0.00 
    3   10    4      0.09      0.00 
    4   10    4      0.02      0.00 
    5   10    4     -0.08      0.00 
    6   10    4     -0.49      0.00 
    7   10    4      0.01      0.00 
    8   10    4     -0.18      0.00 
    9   10    4      1.01      0.00 
   10   10    4     -0.14      0.00 
   -5   11    4     -0.52      0.00 
   -4   11    4      0.45      0.00 
   -3   11    4     -0.18      0.00 
   -2   11    4      0.18      0.00 
   -1   11    4      0.81      0.00 
    0   11    4     -0.78      0.00 
    1   11    4      0.05      0.00 
    2   11    4      0.49      0.00 
    3   11    4     -0.49      0.00 
    4   11    4      0.13      0.00 
    5   11    4      0.32      0.00 
    6   11    4      0.60      0.00 
    7   11    4     -0.12      0.00 
    8   11    4     -0.85      0.00 
    9   11    4      0.41      0.00 
   10   11    4      0.07      0.00 
   -4   12    4      0.18      0.00 
   -3   12    4     -0.70      0.00 
   -2   12    4     -0.11      0.00 
   -1   12    4      0.62      0.00 
    0   12    4     -1.06      0.00 
    1   12    4      0.38      0.00 
    2   12    4      0.58      0.00 
    3   12    4     -0.36      0.00 
    4   12    4      0.44      0.00 
    5   12    4      1.05      0.00 
    6   12    4      1.27      0.00 
    7   12    4      0.14      0.00 
    8   12    4     -0.82      0.00 
    9   12    4     -0.14      0.00 
   -2   13    4     -0.26      0.00 
   -1   13    4      0.05      0.00 
    0   13    4     -1.00      0.00 
    1   13    4      0.57      0.00 
    2   13    4      0.68      0.00 
    3   13    4      0.29      0.00 
    4   13    4      0.16      0.00 
    5   13    4      1.04      0.00 
    6   13    4      0.88      0.00 
    7   13    4      0.71      0.00 
    8   13    4     -0.38      0.00 
    0   14    4     -0.29      0.00 
    1   14    4      0.40      0.00 
    2   14    4      0.59      0.00 
    3   14    4      0.24      0.00 
    4   14    4     -0.39      0.00 
    5   14    4      0.32      0.00 
    6   14    4      0.26      0.00 
   -3  -14    5      0.04      0.00 
   -2  -14    5      0.28      0.00 
   -6  -13    5     -0.29      0.00 
   -5  -13    5      0.90      0.00 
   -4  -13    5     -0.33      0.00 
   -3  -13    5     -0.06      0.00 
   -2  -13    5      0.25      0.00 
   -1  -13    5     -0.52      0.00 
    0  -13    5      0.16      0.00 
    1  -13    5     -0.83      0.00 
    2  -13    5     -0.07      0.00 
   -7  -12    5      0.47      0.00 
   -6  -12    5     -0.59      0.00 
   -5  -12    5      1.29      0.00 
   -4  -12    5     -0.42      0.00 
   -3  -12    5     -0.21      0.00 
   -2  -12    5     -0.34      0.00 
   -1  -12    5     -0.64      0.00 
    0  -12    5      0.46      0.00 
    1  -12    5     -0.61      0.00 
    2  -12    5      0.03      0.00 
    3  -12    5     -0.56      0.00 
   -8  -11    5      0.08      0.00 
   -7  -11    5     -0.37      0.00 
   -6  -11    5     -0.48      0.00 
   -5  -11    5      1.09      0.00 
   -4  -11    5     -0.36      0.00 
   -3  -11    5     -0.61      0.00 
   -2  -11    5     -0.42      0.00 
   -1  -11    5     -0.17      0.00 
    0  -11    5      0.69      0.00 
    1  -11    5     -0.30      0.00 
    2  -11    5      0.16      0.00 
    3  -11    5      0.06      0.00 
    4  -11    5     -0.19      0.00 
    5  -11    5     -0.27      0.00 
   -9  -10    5      0.56      0.00 
   -8  -10    5      0.10      0.00 
   -7  -10    5     -0.52      0.00 
   -6  -10    5     -0.15      0.00 
   -5  -10    5      0.70      0.00 
   -4  -10    5     -0.21      0.00 
   -3  -10    5     -0.69      0.00 
   -2  -10    5      0.22      0.00 
   -1  -10    5     -0.15      0.00 
    0  -10    5      0.86      0.00 
    1  -10    5      0.23      0.00 
    2  -10    5      0.51      0.00 
    3  -10    5      0.73      0.00 
    4  -10    5     -0.79      0.00 
    5  -10    5     -0.14      0.00 
    6  -10    5      0.52      0.00 
  -10   -9    5      0.33      0.00 
   -9   -9    5      0.25      0.00 
   -8   -9    5      0.29      0.00 
   -7   -9    5     -0.05      0.00 
   -6   -9    5     -0.16      0.00 
   -5   -9    5      0.60      0.00 
   -4   -9    5     -0.22      0.00 
   -3   -9    5     -0.20      0.00 
   -2   -9    5      0.57      0.00 
   -1   -9    5     -0.55      0.00 
    0   -9    5      1.27      0.00 
    1   -9    5      0.91      0.00 
    2   -9    5      0.58      0.00 
    3   -9    5      0.62      0.00 
    4   -9    5     -1.45      0.00 
    5   -9    5     -0.01      0.00 
    6   -9    5      0.02      0.00 
    7   -9    5      0.04      0.00 
  -10   -8    5     -0.07      0.00 
   -9   -8    5      0.06      0.00 
   -8   -8    5      0.38      0.00 
   -7   -8    5      0.03      0.00 
   -6   -8    5     -0.34      0.00 
   -5   -8    5      0.34      0.00 
   -4   -8    5     -0.22      0.00 
   -3   -8    5      0.29      0.00 
   -2   -8    5      0.56      0.00 
   -1   -8    5     -1.00      0.00 
    0   -8    5      1.01      0.00 
    1   -8    5      1.25      0.00 
    2   -8    5      0.36      0.00 
    3   -8    5      0.42      0.00 
    4   -8    5     -1.43      0.00 
    5   -8    5      0.12      0.00 
    6   -8    5     -0.05      0.00 
    7   -8    5      0.65      0.00 
    8   -8    5      0.17      0.00 
  -10   -7    5     -0.30      0.00 
   -9   -7    5      0.33      0.00 
   -8   -7    5      0.22      0.00 
   -7   -7    5     -0.41      0.00 
   -6   -7    5     -0.42      0.00 
   -5   -7    5     -0.32      0.00 
   -4   -7    5      0.10      0.00 
   -3   -7    5      0.08      0.00 
   -2   -7    5      0.48      0.00 
   -1   -7    5     -1.61      0.00 
    0   -7    5     -0.25      0.00 
    1   -7    5      1.19      0.00 
    2   -7    5      0.12      0.00 
    3   -7    5      0.32      0.00 
    4   -7    5     -1.17      0.00 
    5   -7    5      0.46      0.00 
    6   -7    5      0.37      0.00 
    7   -7    5      0.70      0.00 
    8   -7    5      0.15      0.00 
  -11   -6    5      0.65      0.00 
  -10   -6    5     -0.01      0.00 
   -9   -6    5      0.51      0.00 
   -8   -6    5     -0.06      0.00 
   -7   -6    5     -0.83      0.00 
   -6   -6    5     -0.26      0.00 
   -5   -6    5     -0.68      0.00 
   -4   -6    5      0.28      0.00 
   -3   -6    5     -0.66      0.00 
   -2   -6    5      0.47      0.00 
   -1   -6    5     -1.52      0.00 
    0   -6    5     -2.40      0.00 
    1   -6    5      0.10      0.00 
    2   -6    5     -1.03      0.00 
    3   -6    5     -0.37      0.00 
    4   -6    5     -0.67      0.00 
    5   -6    5      0.85      0.00 
    6   -6    5      0.29      0.00 
    7   -6    5      0.03      0.00 
    8   -6    5     -0.24      0.00 
    9   -6    5     -0.32      0.00 
  -11   -5    5      0.88      0.00 
  -10   -5    5     -0.01      0.00 
   -9   -5    5      0.04      0.00 
   -8   -5    5     -0.30      0.00 
   -7   -5    5     -0.68      0.00 
   -6   -5    5      0.19      0.00 
   -5   -5    5     -0.52      0.00 
   -4   -5    5      0.11      0.00 
   -3   -5    5     -0.97      0.00 
   -2   -5    5      0.83      0.00 
   -1   -5    5     -1.12      0.00 
    0   -5    5     -6.98      0.00 
    1   -5    5     -2.24      0.00 
    2   -5    5     -2.92      0.00 
    3   -5    5     -0.63      0.00 
    4   -5    5      0.52      0.00 
    5   -5    5      0.56      0.00 
    6   -5    5     -0.21      0.00 
    7   -5    5     -0.40      0.00 
    8   -5    5     -0.40      0.00 
    9   -5    5      0.20      0.00 
  -11   -4    5      0.57      0.00 
  -10   -4    5     -0.54      0.00 
   -9   -4    5     -0.41      0.00 
   -8   -4    5     -0.28      0.00 
   -7   -4    5     -0.01      0.00 
   -6   -4    5      0.42      0.00 
   -5   -4    5     -0.32      0.00 
   -4   -4    5      0.18      0.00 
   -3   -4    5     -0.74      0.00 
   -2   -4    5      1.20      0.00 
   -1   -4    5     -2.43      0.00 
    0   -4    5    -14.32      0.00 
    1   -4    5     -4.07      0.00 
    2   -4    5     -3.65      0.00 
    3   -4    5      0.48      0.00 
    4   -4    5      1.51      0.00 
    5   -4    5     -0.38      0.00 
    6   -4    5     -0.35      0.00 
    7   -4    5     -0.36      0.00 
    8   -4    5     -0.09      0.00 
    9   -4    5      0.24      0.00 
   10   -4    5     -0.05      0.00 
  -11   -3    5     -0.11      0.00 
  -10   -3    5     -0.32      0.00 
   -9   -3    5     -0.24      0.00 
   -8   -3    5     -0.20      0.00 
   -7   -3    5      0.33      0.00 
   -6   -3    5      0.07      0.00 
   -5   -3    5     -0.26      0.00 
   -4   -3    5      0.40      0.00 
   -3   -3    5     -0.41      0.00 
   -2   -3    5      1.28      0.00 
   -1   -3    5     -4.96      0.00 
    0   -3    5    -23.09      0.00 
    1   -3    5     -4.13      0.00 
    2   -3    5     -2.73      0.00 
    3   -3    5      1.58      0.00 
    4   -3    5      1.44      0.00 
    5   -3    5     -1.19      0.00 
    6   -3    5     -0.51      0.00 
    7   -3    5     -0.15      0.00 
    8   -3    5      0.60      0.00 
    9   -3    5      0.09      0.00 
   10   -3    5      0.43      0.00 
  -11   -2    5     -0.12      0.00 
  -10   -2    5      0.52      0.00 
   -9   -2    5     -0.19      0.00 
   -8   -2    5     -0.35      0.00 
   -7   -2    5      0.01      0.00 
   -6   -2    5     -0.32      0.00 
   -5   -2    5     -0.38      0.00 
   -4   -2    5      0.47      0.00 
   -3   -2    5      0.48      0.00 
   -2   -2    5      1.31      0.00 
   -1   -2    5     -7.36      0.00 
    0   -2    5    -31.76      0.00 
    1   -2    5     -1.35      0.00 
    2   -2    5     -1.28      0.00 
    3   -2    5      1.63      0.00 
    4   -2    5      0.64      0.00 
    5   -2    5     -1.89      0.00 
    6   -2    5     -0.93      0.00 
    7   -2    5      0.48      0.00 
    8   -2    5      1.34      0.00 
    9   -2    5      0.14      0.00 
   10   -2    5      0.41      0.00 
   11   -2    5     -0.44      0.00 
  -11   -1    5      0.22      0.00 
  -10   -1    5      0.33      0.00 
   -9   -1    5     -0.42      0.00 
   -8   -1    5     -0.45      0.00 
   -7   -1    5     -0.33      0.00 
   -6   -1    5     -0.37      0.00 
   -5   -1    5     -0.45      0.00 
   -4   -1    5      0.86      0.00 
   -3   -1    5      1.49      0.00 
   -2   -1    5      0.42      0.00 
   -1   -1    5     -9.77      0.00 
    0   -1    5    -34.56      0.00 
    1   -1    5      5.49      0.00 
    2   -1    5     -0.69      0.00 
    3   -1    5      0.66      0.00 
    4   -1    5     -0.81      0.00 
    5   -1    5     -2.41      0.00 
    6   -1    5     -0.70      0.00 
    7   -1    5      1.15      0.00 
    8   -1    5      1.15      0.00 
    9   -1    5     -0.26      0.00 
   10   -1    5     -0.45      0.00 
   11   -1    5     -0.79      0.00 
  -11    0    5      0.00      0.00 
  -10    0    5     -0.58      0.00 
   -9    0    5     -0.20      0.00 
   -8    0    5     -0.32      0.00 
   -7    0    5     -0.38      0.00 
   -6    0    5     -0.19      0.00 
   -5    0    5     -0.13      0.00 
   -4    0    5      1.16      0.00 
   -3    0    5      0.96      0.00 
   -2    0    5     -1.41      0.00 
   -1    0    5    -10.03      0.00 
    0    0    5    -25.44      0.00 
    1    0    5     12.10      0.00 
    2    0    5     -2.20      0.00 
    3    0    5     -1.20      0.00 
    4    0    5     -2.12      0.00 
    5    0    5     -1.90      0.00 
    6    0    5      0.03      0.00 
    7    0    5      0.88      0.00 
    8    0    5      0.09      0.00 
    9    0    5     -0.80      0.00 
   10    0    5     -0.68      0.00 
   11    0    5     -0.38      0.00 
  -10    1    5     -0.73      0.00 
   -9    1    5      0.27      0.00 
   -8    1    5     -0.20      0.00 
   -7    1    5     -0.22      0.00 
   -6    1    5      0.13      0.00 
   -5    1    5      0.13      0.00 
   -4    1    5      0.53      0.00 
   -3    1    5     -0.51      0.00 
   -2    1    5     -1.89      0.00 
   -1    1    5     -5.94      0.00 
    0    1    5    -10.18      0.00 
    1    1    5     11.71      0.00 
    2    1    5     -4.41      0.00 
    3    1    5     -2.66      0.00 
    4    1    5     -1.59      0.00 
    5    1    5     -0.77      0.00 
    6    1    5      0.14      0.00 
    7    1    5      0.23      0.00 
    8    1    5     -0.47      0.00 
    9    1    5     -0.53      0.00 
   10    1    5     -0.07      0.00 
   11    1    5      0.13      0.00 
  -10    2    5     -0.26      0.00 
   -9    2    5      0.44      0.00 
   -8    2    5     -0.06      0.00 
   -7    2    5      0.02      0.00 
   -6    2    5      0.22      0.00 
   -5    2    5     -0.11      0.00 
   -4    2    5     -0.47      0.00 
   -3    2    5     -1.03      0.00 
   -2    2    5     -0.46      0.00 
   -1    2    5     -0.66      0.00 
    0    2    5     -0.07      0.00 
    1    2    5      5.95      0.00 
    2    2    5     -4.54      0.00 
    3    2    5     -2.15      0.00 
    4    2    5      0.39      0.00 
    5    2    5     -0.27      0.00 
    6    2    5     -0.08      0.00 
    7    2    5      0.21      0.00 
    8    2    5     -0.27      0.00 
    9    2    5      0.00      0.00 
   10    2    5      0.44      0.00 
   11    2    5      0.41      0.00 
   12    2    5     -0.43      0.00 
  -10    3    5      0.16      0.00 
   -9    3    5      0.46      0.00 
   -8    3    5      0.08      0.00 
   -7    3    5     -0.15      0.00 
   -6    3    5     -0.19      0.00 
   -5    3    5     -0.48      0.00 
   -4    3    5     -1.11      0.00 
   -3    3    5     -0.54      0.00 
   -2    3    5      1.01      0.00 
   -1    3    5      2.24      0.00 
    0    3    5      3.11      0.00 
    1    3    5      0.88      0.00 
    2    3    5     -2.73      0.00 
    3    3    5     -0.18      0.00 
    4    3    5      1.70      0.00 
    5    3    5     -0.20      0.00 
    6    3    5     -0.05      0.00 
    7    3    5      0.32      0.00 
    8    3    5     -0.24      0.00 
    9    3    5      0.06      0.00 
   10    3    5      0.58      0.00 
   11    3    5      0.29      0.00 
   12    3    5     -1.07      0.00 
   -9    4    5      0.35      0.00 
   -8    4    5      0.03      0.00 
   -7    4    5     -0.76      0.00 
   -6    4    5     -0.54      0.00 
   -5    4    5     -0.77      0.00 
   -4    4    5     -1.31      0.00 
   -3    4    5      0.37      0.00 
   -2    4    5      1.58      0.00 
   -1    4    5      2.99      0.00 
    0    4    5      3.30      0.00 
    1    4    5     -2.28      0.00 
    2    4    5     -0.46      0.00 
    3    4    5      1.40      0.00 
    4    4    5      1.71      0.00 
    5    4    5     -0.11      0.00 
    6    4    5     -0.09      0.00 
    7    4    5      0.17      0.00 
    8    4    5     -0.33      0.00 
    9    4    5     -0.11      0.00 
   10    4    5      0.32      0.00 
   11    4    5     -0.05      0.00 
   12    4    5     -0.82      0.00 
   -9    5    5      0.12      0.00 
   -8    5    5      0.11      0.00 
   -7    5    5     -0.89      0.00 
   -6    5    5     -0.35      0.00 
   -5    5    5     -1.01      0.00 
   -4    5    5     -0.89      0.00 
   -3    5    5      1.27      0.00 
   -2    5    5      1.05      0.00 
   -1    5    5      2.22      0.00 
    0    5    5      2.14      0.00 
    1    5    5     -3.78      0.00 
    2    5    5      1.57      0.00 
    3    5    5      1.47      0.00 
    4    5    5      1.08      0.00 
    5    5    5     -0.24      0.00 
    6    5    5     -0.05      0.00 
    7    5    5      0.16      0.00 
    8    5    5     -0.04      0.00 
    9    5    5     -0.20      0.00 
   10    5    5     -0.14      0.00 
   11    5    5      0.27      0.00 
   12    5    5      0.41      0.00 
   -9    6    5      0.12      0.00 
   -8    6    5      0.58      0.00 
   -7    6    5     -0.32      0.00 
   -6    6    5     -0.04      0.00 
   -5    6    5     -0.88      0.00 
   -4    6    5     -0.29      0.00 
   -3    6    5      1.38      0.00 
   -2    6    5     -0.38      0.00 
   -1    6    5      0.56      0.00 
    0    6    5      1.08      0.00 
    1    6    5     -2.96      0.00 
    2    6    5      2.01      0.00 
    3    6    5      0.63      0.00 
    4    6    5      0.45      0.00 
    5    6    5     -0.32      0.00 
    6    6    5      0.25      0.00 
    7    6    5      0.18      0.00 
    8    6    5      0.39      0.00 
    9    6    5     -0.14      0.00 
   10    6    5     -0.09      0.00 
   11    6    5      0.86      0.00 
   12    6    5      0.92      0.00 
   -8    7    5      0.77      0.00 
   -7    7    5      0.01      0.00 
   -6    7    5      0.05      0.00 
   -5    7    5     -0.31      0.00 
   -4    7    5     -0.05      0.00 
   -3    7    5      1.00      0.00 
   -2    7    5     -1.36      0.00 
   -1    7    5     -0.35      0.00 
    0    7    5      1.19      0.00 
    1    7    5     -1.53      0.00 
    2    7    5      0.95      0.00 
    3    7    5      0.26      0.00 
    4    7    5      0.03      0.00 
    5    7    5     -0.11      0.00 
    6    7    5      0.30      0.00 
    7    7    5      0.03      0.00 
    8    7    5      0.41      0.00 
    9    7    5     -0.11      0.00 
   10    7    5      0.20      0.00 
   11    7    5      0.30      0.00 
   -7    8    5     -0.16      0.00 
   -6    8    5     -0.05      0.00 
   -5    8    5      0.44      0.00 
   -4    8    5      0.30      0.00 
   -3    8    5      0.72      0.00 
   -2    8    5     -1.46      0.00 
   -1    8    5     -0.37      0.00 
    0    8    5      1.31      0.00 
    1    8    5     -0.91      0.00 
    2    8    5      0.51      0.00 
    3    8    5      0.18      0.00 
    4    8    5     -0.28      0.00 
    5    8    5     -0.01      0.00 
    6    8    5      0.31      0.00 
    7    8    5     -0.06      0.00 
    8    8    5     -0.13      0.00 
    9    8    5     -0.54      0.00 
   10    8    5      0.09      0.00 
   11    8    5     -0.79      0.00 
   -7    9    5     -0.32      0.00 
   -6    9    5     -0.37      0.00 
   -5    9    5      1.04      0.00 
   -4    9    5      0.50      0.00 
   -3    9    5      0.14      0.00 
   -2    9    5     -1.30      0.00 
   -1    9    5     -0.42      0.00 
    0    9    5      0.89      0.00 
    1    9    5     -0.35      0.00 
    2    9    5      0.65      0.00 
    3    9    5     -0.24      0.00 
    4    9    5     -0.37      0.00 
    5    9    5      0.05      0.00 
    6    9    5      0.52      0.00 
    7    9    5     -0.17      0.00 
    8    9    5     -0.54      0.00 
    9    9    5     -1.07      0.00 
   10    9    5      0.06      0.00 
   11    9    5     -0.92      0.00 
   -6   10    5     -0.76      0.00 
   -5   10    5      1.01      0.00 
   -4   10    5     -0.06      0.00 
   -3   10    5     -0.13      0.00 
   -2   10    5     -0.84      0.00 
   -1   10    5     -0.64      0.00 
    0   10    5      0.56      0.00 
    1   10    5      0.06      0.00 
    2   10    5      0.15      0.00 
    3   10    5     -0.13      0.00 
    4   10    5     -0.25      0.00 
    5   10    5      0.02      0.00 
    6   10    5      0.09      0.00 
    7   10    5     -0.32      0.00 
    8   10    5     -0.10      0.00 
    9   10    5     -0.90      0.00 
   10   10    5      0.35      0.00 
   -5   11    5      0.46      0.00 
   -4   11    5     -0.42      0.00 
   -3   11    5      0.54      0.00 
   -2   11    5     -0.27      0.00 
   -1   11    5     -0.73      0.00 
    0   11    5      0.61      0.00 
    1   11    5     -0.10      0.00 
    2   11    5     -0.34      0.00 
    3   11    5      0.49      0.00 
    4   11    5     -0.44      0.00 
    5   11    5     -0.52      0.00 
    6   11    5     -0.98      0.00 
    7   11    5     -0.29      0.00 
    8   11    5      0.64      0.00 
    9   11    5     -0.19      0.00 
   10   11    5      0.34      0.00 
   -4   12    5     -0.04      0.00 
   -3   12    5      0.82      0.00 
   -2   12    5      0.01      0.00 
   -1   12    5     -0.32      0.00 
    0   12    5      0.90      0.00 
    1   12    5     -0.44      0.00 
    2   12    5     -0.46      0.00 
    3   12    5      0.27      0.00 
    4   12    5     -0.64      0.00 
    5   12    5     -1.05      0.00 
    6   12    5     -1.30      0.00 
    7   12    5     -0.34      0.00 
    8   12    5      0.70      0.00 
    9   12    5      0.28      0.00 
   -2   13    5      0.34      0.00 
   -1   13    5      0.29      0.00 
    0   13    5      0.74      0.00 
    1   13    5     -0.73      0.00 
    2   13    5     -0.65      0.00 
    3   13    5     -0.29      0.00 
    4   13    5     -0.16      0.00 
    5   13    5     -0.75      0.00 
    6   13    5     -0.67      0.00 
    7   13    5     -0.57      0.00 
    8   13    5      0.22      0.00 
    0   14    5      0.01      0.00 
    1   14    5     -0.60      0.00 
    2   14    5     -0.55      0.00 
    3   14    5     -0.11      0.00 
    4   14    5      0.43      0.00 
    5   14    5     -0.01      0.00 
    6   14    5     -0.11      0.00 
   -6  -13    6      0.23      0.00 
   -5  -13    6     -0.80      0.00 
   -4  -13    6      0.11      0.00 
   -3  -13    6      0.07      0.00 
   -2  -13    6     -0.12      0.00 
   -1  -13    6      0.56      0.00 
    0  -13    6     -0.15      0.00 
    1  -13    6      0.68      0.00 
   -7  -12    6     -0.11      0.00 
   -6  -12    6      0.51      0.00 
   -5  -12    6     -1.02      0.00 
   -4  -12    6      0.24      0.00 
   -3  -12    6      0.09      0.00 
   -2  -12    6      0.46      0.00 
   -1  -12    6      0.63      0.00 
    0  -12    6     -0.60      0.00 
    1  -12    6      0.49      0.00 
    2  -12    6      0.07      0.00 
    3  -12    6      0.65      0.00 
   -8  -11    6     -0.27      0.00 
   -7  -11    6      0.32      0.00 
   -6  -11    6      0.35      0.00 
   -5  -11    6     -0.66      0.00 
   -4  -11    6      0.30      0.00 
   -3  -11    6      0.39      0.00 
   -2  -11    6      0.51      0.00 
   -1  -11    6      0.25      0.00 
    0  -11    6     -0.85      0.00 
    1  -11    6      0.25      0.00 
    2  -11    6     -0.13      0.00 
    3  -11    6      0.15      0.00 
    4  -11    6      0.39      0.00 
    5  -11    6      0.19      0.00 
   -9  -10    6     -0.49      0.00 
   -8  -10    6     -0.51      0.00 
   -7  -10    6      0.10      0.00 
   -6  -10    6      0.05      0.00 
   -5  -10    6     -0.26      0.00 
   -4  -10    6      0.25      0.00 
   -3  -10    6      0.46      0.00 
   -2  -10    6     -0.08      0.00 
   -1  -10    6      0.33      0.00 
    0  -10    6     -1.00      0.00 
    1  -10    6     -0.28      0.00 
    2  -10    6     -0.60      0.00 
    3  -10    6     -0.43      0.00 
    4  -10    6      0.87      0.00 
    5  -10    6      0.01      0.00 
    6  -10    6     -0.44      0.00 
   -9   -9    6     -0.13      0.00 
   -8   -9    6     -0.66      0.00 
   -7   -9    6     -0.26      0.00 
   -6   -9    6      0.12      0.00 
   -5   -9    6     -0.29      0.00 
   -4   -9    6      0.31      0.00 
   -3   -9    6      0.03      0.00 
   -2   -9    6     -0.43      0.00 
   -1   -9    6      0.69      0.00 
    0   -9    6     -1.28      0.00 
    1   -9    6     -0.77      0.00 
    2   -9    6     -0.62      0.00 
    3   -9    6     -0.42      0.00 
    4   -9    6      1.30      0.00 
    5   -9    6     -0.11      0.00 
    6   -9    6     -0.05      0.00 
    7   -9    6     -0.28      0.00 
  -10   -8    6      0.02      0.00 
   -9   -8    6      0.10      0.00 
   -8   -8    6     -0.48      0.00 
   -7   -8    6      0.01      0.00 
   -6   -8    6      0.27      0.00 
   -5   -8    6     -0.22      0.00 
   -4   -8    6      0.32      0.00 
   -3   -8    6     -0.34      0.00 
   -2   -8    6     -0.43      0.00 
   -1   -8    6      1.10      0.00 
    0   -8    6     -0.70      0.00 
    1   -8    6     -0.73      0.00 
    2   -8    6     -0.22      0.00 
    3   -8    6     -0.43      0.00 
    4   -8    6      1.21      0.00 
    5   -8    6     -0.26      0.00 
    6   -8    6     -0.15      0.00 
    7   -8    6     -0.93      0.00 
  -10   -7    6      0.14      0.00 
   -9   -7    6     -0.09      0.00 
   -8   -7    6     -0.13      0.00 
   -7   -7    6      0.67      0.00 
   -6   -7    6      0.26      0.00 
   -5   -7    6      0.26      0.00 
   -4   -7    6      0.03      0.00 
   -3   -7    6      0.02      0.00 
   -2   -7    6     -0.28      0.00 
   -1   -7    6      1.69      0.00 
    0   -7    6      0.87      0.00 
    1   -7    6     -0.40      0.00 
    2   -7    6      0.29      0.00 
    3   -7    6     -0.40      0.00 
    4   -7    6      0.94      0.00 
    5   -7    6     -0.66      0.00 
    6   -7    6     -0.51      0.00 
    7   -7    6     -0.85      0.00 
    8   -7    6     -0.17      0.00 
  -10   -6    6     -0.09      0.00 
   -9   -6    6     -0.18      0.00 
   -8   -6    6      0.14      0.00 
   -7   -6    6      1.12      0.00 
   -6   -6    6      0.10      0.00 
   -5   -6    6      0.53      0.00 
   -4   -6    6     -0.15      0.00 
   -3   -6    6      0.81      0.00 
   -2   -6    6     -0.28      0.00 
   -1   -6    6      1.71      0.00 
    0   -6    6      3.24      0.00 
    1   -6    6      0.68      0.00 
    2   -6    6      1.58      0.00 
    3   -6    6      0.19      0.00 
    4   -6    6      0.36      0.00 
    5   -6    6     -0.92      0.00 
    6   -6    6     -0.19      0.00 
    7   -6    6     -0.07      0.00 
    8   -6    6      0.28      0.00 
    9   -6    6      0.25      0.00 
  -11   -5    6     -0.64      0.00 
  -10   -5    6      0.15      0.00 
   -9   -5    6      0.30      0.00 
   -8   -5    6      0.27      0.00 
   -7   -5    6      0.88      0.00 
   -6   -5    6     -0.20      0.00 
   -5   -5    6      0.34      0.00 
   -4   -5    6     -0.07      0.00 
   -3   -5    6      0.95      0.00 
   -2   -5    6     -0.70      0.00 
   -1   -5    6      1.69      0.00 
    0   -5    6      7.77      0.00 
    1   -5    6      2.59      0.00 
    2   -5    6      3.16      0.00 
    3   -5    6      0.26      0.00 
    4   -5    6     -0.79      0.00 
    5   -5    6     -0.35      0.00 
    6   -5    6      0.38      0.00 
    7   -5    6      0.37      0.00 
    8   -5    6      0.39      0.00 
    9   -5    6     -0.31      0.00 
  -11   -4    6     -0.35      0.00 
  -10   -4    6      0.77      0.00 
   -9   -4    6      0.64      0.00 
   -8   -4    6      0.13      0.00 
   -7   -4    6      0.11      0.00 
   -6   -4    6     -0.27      0.00 
   -5   -4    6      0.15      0.00 
   -4   -4    6     -0.19      0.00 
   -3   -4    6      0.53      0.00 
   -2   -4    6     -1.05      0.00 
   -1   -4    6      3.29      0.00 
    0   -4    6     14.45      0.00 
    1   -4    6      3.54      0.00 
    2   -4    6      3.34      0.00 
    3   -4    6     -0.81      0.00 
    4   -4    6     -1.53      0.00 
    5   -4    6      0.69      0.00 
    6   -4    6      0.39      0.00 
    7   -4    6      0.31      0.00 
    8   -4    6      0.02      0.00 
    9   -4    6     -0.26      0.00 
   10   -4    6      0.27      0.00 
  -11   -3    6      0.15      0.00 
  -10   -3    6      0.45      0.00 
   -9   -3    6      0.44      0.00 
   -8   -3    6     -0.05      0.00 
   -7   -3    6     -0.28      0.00 
   -6   -3    6      0.07      0.00 
   -5   -3    6      0.23      0.00 
   -4   -3    6     -0.35      0.00 
   -3   -3    6      0.15      0.00 
   -2   -3    6     -1.10      0.00 
   -1   -3    6      5.60      0.00 
    0   -3    6     21.31      0.00 
    1   -3    6      2.25      0.00 
    2   -3    6      2.15      0.00 
    3   -3    6     -1.62      0.00 
    4   -3    6     -1.18      0.00 
    5   -3    6      1.38      0.00 
    6   -3    6      0.44      0.00 
    7   -3    6      0.08      0.00 
    8   -3    6     -0.61      0.00 
    9   -3    6     -0.03      0.00 
   10   -3    6     -0.28      0.00 
  -11   -2    6     -0.02      0.00 
  -10   -2    6     -0.37      0.00 
   -9   -2    6      0.40      0.00 
   -8   -2    6      0.06      0.00 
   -7   -2    6      0.03      0.00 
   -6   -2    6      0.32      0.00 
   -5   -2    6      0.53      0.00 
   -4   -2    6     -0.41      0.00 
   -3   -2    6     -0.58      0.00 
   -2   -2    6     -1.02      0.00 
   -1   -2    6      7.12      0.00 
    0   -2    6     26.49      0.00 
    1   -2    6     -1.77      0.00 
    2   -2    6      0.99      0.00 
    3   -2    6     -1.27      0.00 
    4   -2    6     -0.13      0.00 
    5   -2    6      1.90      0.00 
    6   -2    6      0.74      0.00 
    7   -2    6     -0.50      0.00 
    8   -2    6     -1.11      0.00 
    9   -2    6     -0.04      0.00 
   10   -2    6     -0.29      0.00 
   11   -2    6      0.50      0.00 
  -11   -1    6     -0.32      0.00 
  -10   -1    6     -0.17      0.00 
   -9   -1    6      0.52      0.00 
   -8   -1    6      0.25      0.00 
   -7   -1    6      0.34      0.00 
   -6   -1    6      0.26      0.00 
   -5   -1    6      0.61      0.00 
   -4   -1    6     -0.74      0.00 
   -3   -1    6     -1.26      0.00 
   -2   -1    6      0.01      0.00 
   -1   -1    6      7.90      0.00 
    0   -1    6     25.81      0.00 
    1   -1    6     -8.15      0.00 
    2   -1    6      1.31      0.00 
    3   -1    6      0.01      0.00 
    4   -1    6      1.33      0.00 
    5   -1    6      2.13      0.00 
    6   -1    6      0.38      0.00 
    7   -1    6     -0.99      0.00 
    8   -1    6     -0.75      0.00 
    9   -1    6      0.33      0.00 
   10   -1    6      0.42      0.00 
   11   -1    6      0.68      0.00 
  -10    0    6      0.50      0.00 
   -9    0    6      0.14      0.00 
   -8    0    6      0.25      0.00 
   -7    0    6      0.30      0.00 
   -6    0    6      0.04      0.00 
   -5    0    6      0.24      0.00 
   -4    0    6     -0.82      0.00 
   -3    0    6     -0.63      0.00 
   -2    0    6      1.69      0.00 
   -1    0    6      6.64      0.00 
    0    0    6     16.55      0.00 
    1    0    6    -12.17      0.00 
    2    0    6      3.58      0.00 
    3    0    6      1.60      0.00 
    4    0    6      2.11      0.00 
    5    0    6      1.31      0.00 
    6    0    6     -0.27      0.00 
    7    0    6     -0.53      0.00 
    8    0    6      0.18      0.00 
    9    0    6      0.76      0.00 
   10    0    6      0.49      0.00 
   11    0    6      0.22      0.00 
  -10    1    6      0.40      0.00 
   -9    1    6     -0.37      0.00 
   -8    1    6      0.17      0.00 
   -7    1    6      0.06      0.00 
   -6    1    6     -0.21      0.00 
   -5    1    6      0.06      0.00 
   -4    1    6     -0.06      0.00 
   -3    1    6      0.55      0.00 
   -2    1    6      1.90      0.00 
   -1    1    6      2.69      0.00 
    0    1    6      4.99      0.00 
    1    1    6     -9.34      0.00 
    2    1    6      5.61      0.00 
    3    1    6      2.16      0.00 
    4    1    6      0.96      0.00 
    5    1    6      0.19      0.00 
    6    1    6     -0.16      0.00 
    7    1    6      0.12      0.00 
    8    1    6      0.51      0.00 
    9    1    6      0.47      0.00 
   10    1    6     -0.13      0.00 
   11    1    6     -0.17      0.00 
  -10    2    6     -0.07      0.00 
   -9    2    6     -0.50      0.00 
   -8    2    6      0.04      0.00 
   -7    2    6     -0.11      0.00 
   -6    2    6     -0.10      0.00 
   -5    2    6      0.39      0.00 
   -4    2    6      0.77      0.00 
   -3    2    6      0.74      0.00 
   -2    2    6      0.51      0.00 
   -1    2    6     -1.04      0.00 
    0    2    6     -1.23      0.00 
    1    2    6     -3.17      0.00 
    2    2    6      5.04      0.00 
    3    2    6      0.95      0.00 
    4    2    6     -1.05      0.00 
    5    2    6     -0.06      0.00 
    6    2    6      0.20      0.00 
    7    2    6      0.02      0.00 
    8    2    6      0.29      0.00 
    9    2    6     -0.03      0.00 
   10    2    6     -0.51      0.00 
   11    2    6     -0.35      0.00 
   12    2    6      0.41      0.00 
  -10    3    6     -0.28      0.00 
   -9    3    6     -0.45      0.00 
   -8    3    6      0.06      0.00 
   -7    3    6      0.24      0.00 
   -6    3    6      0.48      0.00 
   -5    3    6      0.73      0.00 
   -4    3    6      1.11      0.00 
   -3    3    6      0.09      0.00 
   -2    3    6     -0.75      0.00 
   -1    3    6     -2.68      0.00 
    0    3    6     -2.72      0.00 
    1    3    6      1.19      0.00 
    2    3    6      2.74      0.00 
    3    3    6     -0.98      0.00 
    4    3    6     -1.96      0.00 
    5    3    6      0.07      0.00 
    6    3    6      0.14      0.00 
    7    3    6     -0.23      0.00 
    8    3    6      0.31      0.00 
    9    3    6     -0.09      0.00 
   10    3    6     -0.47      0.00 
   11    3    6     -0.19      0.00 
   12    3    6      0.92      0.00 
   -9    4    6     -0.25      0.00 
   -8    4    6      0.30      0.00 
   -7    4    6      0.87      0.00 
   -6    4    6      0.82      0.00 
   -5    4    6      0.90      0.00 
   -4    4    6      1.01      0.00 
   -3    4    6     -0.84      0.00 
   -2    4    6     -1.09      0.00 
   -1    4    6     -2.84      0.00 
    0    4    6     -2.50      0.00 
    1    4    6      3.53      0.00 
    2    4    6      0.16      0.00 
    3    4    6     -2.11      0.00 
    4    4    6     -1.57      0.00 
    5    4    6      0.08      0.00 
    6    4    6      0.08      0.00 
    7    4    6     -0.21      0.00 
    8    4    6      0.33      0.00 
    9    4    6      0.11      0.00 
   10    4    6     -0.05      0.00 
   11    4    6      0.16      0.00 
   12    4    6      0.49      0.00 
   -9    5    6      0.00      0.00 
   -8    5    6      0.23      0.00 
   -7    5    6      0.85      0.00 
   -6    5    6      0.52      0.00 
   -5    5    6      0.98      0.00 
   -4    5    6      0.46      0.00 
   -3    5    6     -1.52      0.00 
   -2    5    6     -0.30      0.00 
   -1    5    6     -1.70      0.00 
    0    5    6     -1.37      0.00 
    1    5    6      4.10      0.00 
    2    5    6     -1.94      0.00 
    3    5    6     -1.72      0.00 
    4    5    6     -0.74      0.00 
    5    5    6      0.21      0.00 
    6    5    6      0.00      0.00 
    7    5    6     -0.23      0.00 
    8    5    6     -0.03      0.00 
    9    5    6      0.25      0.00 
   10    5    6      0.35      0.00 
   11    5    6     -0.08      0.00 
   12    5    6     -0.79      0.00 
   -8    6    6     -0.29      0.00 
   -7    6    6      0.18      0.00 
   -6    6    6      0.10      0.00 
   -5    6    6      0.75      0.00 
   -4    6    6     -0.03      0.00 
   -3    6    6     -1.39      0.00 
   -2    6    6      1.12      0.00 
   -1    6    6     -0.10      0.00 
    0    6    6     -0.74      0.00 
    1    6    6      2.70      0.00 
    2    6    6     -2.15      0.00 
    3    6    6     -0.62      0.00 
    4    6    6     -0.10      0.00 
    5    6    6      0.24      0.00 
    6    6    6     -0.19      0.00 
    7    6    6     -0.16      0.00 
    8    6    6     -0.47      0.00 
    9    6    6      0.14      0.00 
   10    6    6      0.14      0.00 
   11    6    6     -0.36      0.00 
   12    6    6     -1.20      0.00 
   -8    7    6     -0.52      0.00 
   -7    7    6     -0.17      0.00 
   -6    7    6     -0.05      0.00 
   -5    7    6      0.13      0.00 
   -4    7    6     -0.21      0.00 
   -3    7    6     -1.03      0.00 
   -2    7    6      1.81      0.00 
   -1    7    6      0.39      0.00 
    0    7    6     -1.21      0.00 
    1    7    6      1.32      0.00 
    2    7    6     -0.94      0.00 
    3    7    6     -0.11      0.00 
    4    7    6      0.23      0.00 
    5    7    6      0.05      0.00 
    6    7    6     -0.17      0.00 
    7    7    6      0.03      0.00 
    8    7    6     -0.50      0.00 
    9    7    6      0.08      0.00 
   10    7    6     -0.22      0.00 
   11    7    6      0.46      0.00 
   -7    8    6     -0.02      0.00 
   -6    8    6      0.08      0.00 
   -5    8    6     -0.63      0.00 
   -4    8    6     -0.52      0.00 
   -3    8    6     -0.79      0.00 
   -2    8    6      1.66      0.00 
   -1    8    6      0.18      0.00 
    0    8    6     -1.37      0.00 
    1    8    6      0.88      0.00 
    2    8    6     -0.51      0.00 
    3    8    6      0.10      0.00 
    4    8    6      0.46      0.00 
    5    8    6      0.00      0.00 
    6    8    6     -0.24      0.00 
    7    8    6      0.13      0.00 
    8    8    6      0.09      0.00 
    9    8    6      0.59      0.00 
   10    8    6     -0.19      0.00 
   11    8    6      1.46      0.00 
   -6    9    6      0.47      0.00 
   -5    9    6     -1.12      0.00 
   -4    9    6     -0.54      0.00 
   -3    9    6     -0.24      0.00 
   -2    9    6      1.34      0.00 
   -1    9    6      0.31      0.00 
    0    9    6     -0.90      0.00 
    1    9    6      0.45      0.00 
    2    9    6     -0.60      0.00 
    3    9    6      0.47      0.00 
    4    9    6      0.47      0.00 
    5    9    6      0.00      0.00 
    6    9    6     -0.45      0.00 
    7    9    6      0.41      0.00 
    8    9    6      0.65      0.00 
    9    9    6      1.12      0.00 
   10    9    6     -0.41      0.00 
   11    9    6      1.30      0.00 
   -6   10    6      0.80      0.00 
   -5   10    6     -0.96      0.00 
   -4   10    6      0.11      0.00 
   -3   10    6     -0.16      0.00 
   -2   10    6      0.79      0.00 
   -1   10    6      0.69      0.00 
    0   10    6     -0.50      0.00 
    1   10    6      0.16      0.00 
    2   10    6     -0.14      0.00 
    3   10    6      0.13      0.00 
    4   10    6      0.35      0.00 
    5   10    6      0.12      0.00 
    6   10    6      0.07      0.00 
    7   10    6      0.75      0.00 
    8   10    6      0.35      0.00 
    9   10    6      0.75      0.00 
   10   10    6     -0.95      0.00 
   -5   11    6     -0.40      0.00 
   -4   11    6      0.31      0.00 
   -3   11    6     -0.85      0.00 
   -2   11    6      0.30      0.00 
   -1   11    6      0.74      0.00 
    0   11    6     -0.47      0.00 
    1   11    6      0.28      0.00 
    2   11    6      0.25      0.00 
    3   11    6     -0.54      0.00 
    4   11    6      0.55      0.00 
    5   11    6      0.61      0.00 
    6   11    6      0.95      0.00 
    7   11    6      0.68      0.00 
    8   11    6     -0.34      0.00 
    9   11    6     -0.10      0.00 
   10   11    6     -0.98      0.00 
   -3   12    6     -0.83      0.00 
   -2   12    6      0.04      0.00 
   -1   12    6      0.11      0.00 
    0   12    6     -0.61      0.00 
    1   12    6      0.51      0.00 
    2   12    6      0.44      0.00 
    3   12    6     -0.31      0.00 
    4   12    6      0.64      0.00 
    5   12    6      0.85      0.00 
    6   12    6      0.91      0.00 
    7   12    6      0.43      0.00 
    8   12    6     -0.37      0.00 
    9   12    6     -0.44      0.00 
   -2   13    6     -0.41      0.00 
   -1   13    6     -0.50      0.00 
    0   13    6     -0.26      0.00 
    1   13    6      0.79      0.00 
    2   13    6      0.70      0.00 
    3   13    6      0.08      0.00 
    4   13    6      0.04      0.00 
    5   13    6      0.38      0.00 
    6   13    6      0.15      0.00 
    7   13    6      0.37      0.00 
    8   13    6      0.17      0.00 
    0   14    6      0.42      0.00 
    1   14    6      0.64      0.00 
    2   14    6      0.53      0.00 
    3   14    6     -0.16      0.00 
    4   14    6     -0.48      0.00 
    5   14    6     -0.17      0.00 
    6   14    6     -0.20      0.00 
   -5  -13    7      0.78      0.00 
   -4  -13    7     -0.03      0.00 
   -3  -13    7     -0.03      0.00 
   -2  -13    7     -0.01      0.00 
   -1  -13    7     -0.47      0.00 
    0  -13    7      0.03      0.00 
    1  -13    7     -0.40      0.00 
   -7  -12    7     -0.09      0.00 
   -6  -12    7     -0.50      0.00 
   -5  -12    7      0.71      0.00 
   -4  -12    7     -0.13      0.00 
   -3  -12    7      0.01      0.00 
   -2  -12    7     -0.54      0.00 
   -1  -12    7     -0.48      0.00 
    0  -12    7      0.52      0.00 
    1  -12    7     -0.30      0.00 
    2  -12    7     -0.21      0.00 
    3  -12    7     -0.70      0.00 
   -8  -11    7      0.52      0.00 
   -7  -11    7     -0.13      0.00 
   -6  -11    7     -0.30      0.00 
   -5  -11    7      0.13      0.00 
   -4  -11    7     -0.20      0.00 
   -3  -11    7     -0.25      0.00 
   -2  -11    7     -0.62      0.00 
   -1  -11    7     -0.23      0.00 
    0  -11    7      0.66      0.00 
    1  -11    7     -0.11      0.00 
    2  -11    7      0.02      0.00 
    3  -11    7     -0.22      0.00 
    4  -11    7     -0.39      0.00 
   -9  -10    7      0.34      0.00 
   -8  -10    7      0.89      0.00 
   -7  -10    7      0.35      0.00 
   -6  -10    7     -0.06      0.00 
   -5  -10    7     -0.28      0.00 
   -4  -10    7     -0.19      0.00 
   -3  -10    7     -0.30      0.00 
   -2  -10    7     -0.18      0.00 
   -1  -10    7     -0.45      0.00 
    0  -10    7      0.75      0.00 
    1  -10    7      0.45      0.00 
    2  -10    7      0.58      0.00 
    3  -10    7      0.38      0.00 
    4  -10    7     -0.71      0.00 
    5  -10    7      0.05      0.00 
    6  -10    7      0.25      0.00 
   -9   -9    7     -0.02      0.00 
   -8   -9    7      0.90      0.00 
   -7   -9    7      0.62      0.00 
   -6   -9    7     -0.15      0.00 
   -5   -9    7     -0.08      0.00 
   -4   -9    7     -0.28      0.00 
   -3   -9    7      0.06      0.00 
   -2   -9    7      0.14      0.00 
   -1   -9    7     -0.79      0.00 
    0   -9    7      0.95      0.00 
    1   -9    7      0.74      0.00 
    2   -9    7      0.59      0.00 
    3   -9    7      0.50      0.00 
    4   -9    7     -1.00      0.00 
    5   -9    7      0.04      0.00 
    6   -9    7      0.00      0.00 
    7   -9    7      0.46      0.00 
  -10   -8    7     -0.07      0.00 
   -9   -8    7     -0.21      0.00 
   -8   -8    7      0.42      0.00 
   -7   -8    7      0.17      0.00 
   -6   -8    7     -0.21      0.00 
   -5   -8    7      0.08      0.00 
   -4   -8    7     -0.30      0.00 
   -3   -8    7      0.30      0.00 
   -2   -8    7      0.21      0.00 
   -1   -8    7     -1.14      0.00 
    0   -8    7      0.13      0.00 
    1   -8    7      0.30      0.00 
    2   -8    7      0.05      0.00 
    3   -8    7      0.59      0.00 
    4   -8    7     -0.96      0.00 
    5   -8    7      0.13      0.00 
    6   -8    7      0.29      0.00 
    7   -8    7      1.00      0.00 
  -10   -7    7     -0.16      0.00 
   -9   -7    7      0.03      0.00 
   -8   -7    7     -0.12      0.00 
   -7   -7    7     -0.52      0.00 
   -6   -7    7     -0.09      0.00 
   -5   -7    7     -0.22      0.00 
   -4   -7    7     -0.05      0.00 
   -3   -7    7     -0.20      0.00 
   -2   -7    7      0.11      0.00 
   -1   -7    7     -1.74      0.00 
    0   -7    7     -1.65      0.00 
    1   -7    7     -0.31      0.00 
    2   -7    7     -0.70      0.00 
    3   -7    7      0.56      0.00 
    4   -7    7     -0.78      0.00 
    5   -7    7      0.53      0.00 
    6   -7    7      0.60      0.00 
    7   -7    7      0.71      0.00 
    8   -7    7      0.17      0.00 
  -10   -6    7     -0.05      0.00 
   -9   -6    7      0.15      0.00 
   -8   -6    7     -0.36      0.00 
   -7   -6    7     -0.91      0.00 
   -6   -6    7      0.03      0.00 
   -5   -6    7     -0.40      0.00 
   -4   -6    7      0.12      0.00 
   -3   -6    7     -0.99      0.00 
   -2   -6    7      0.10      0.00 
   -1   -6    7     -1.93      0.00 
    0   -6    7     -4.06      0.00 
    1   -6    7     -1.27      0.00 
    2   -6    7     -2.02      0.00 
    3   -6    7      0.16      0.00 
    4   -6    7     -0.22      0.00 
    5   -6    7      0.68      0.00 
    6   -6    7      0.11      0.00 
    7   -6    7     -0.16      0.00 
    8   -6    7     -0.28      0.00 
    9   -6    7     -0.19      0.00 
  -10   -5    7     -0.48      0.00 
   -9   -5    7     -0.19      0.00 
   -8   -5    7     -0.36      0.00 
   -7   -5    7     -0.63      0.00 
   -6   -5    7      0.16      0.00 
   -5   -5    7     -0.17      0.00 
   -4   -5    7      0.08      0.00 
   -3   -5    7     -1.00      0.00 
   -2   -5    7      0.45      0.00 
   -1   -5    7     -2.17      0.00 
    0   -5    7     -8.28      0.00 
    1   -5    7     -2.60      0.00 
    2   -5    7     -3.24      0.00 
    3   -5    7      0.35      0.00 
    4   -5    7      0.76      0.00 
    5   -5    7     -0.04      0.00 
    6   -5    7     -0.45      0.00 
    7   -5    7     -0.56      0.00 
    8   -5    7     -0.34      0.00 
    9   -5    7      0.36      0.00 
  -11   -4    7      0.18      0.00 
  -10   -4    7     -1.09      0.00 
   -9   -4    7     -0.35      0.00 
   -8   -4    7     -0.08      0.00 
   -7   -4    7      0.15      0.00 
   -6   -4    7      0.07      0.00 
   -5   -4    7      0.03      0.00 
   -4   -4    7      0.15      0.00 
   -3   -4    7     -0.40      0.00 
   -2   -4    7      0.72      0.00 
   -1   -4    7     -3.79      0.00 
    0   -4    7    -14.02      0.00 
    1   -4    7     -2.63      0.00 
    2   -4    7     -3.05      0.00 
    3   -4    7      1.32      0.00 
    4   -4    7      1.21      0.00 
    5   -4    7     -1.01      0.00 
    6   -4    7     -0.33      0.00 
    7   -4    7     -0.44      0.00 
    8   -4    7      0.02      0.00 
    9   -4    7      0.22      0.00 
   10   -4    7     -0.24      0.00 
  -11   -3    7     -0.17      0.00 
  -10   -3    7     -0.69      0.00 
   -9   -3    7     -0.15      0.00 
   -8   -3    7      0.20      0.00 
   -7   -3    7      0.49      0.00 
   -6   -3    7     -0.25      0.00 
   -5   -3    7     -0.14      0.00 
   -4   -3    7      0.22      0.00 
   -3   -3    7      0.13      0.00 
   -2   -3    7      0.82      0.00 
   -1   -3    7     -5.76      0.00 
    0   -3    7    -18.99      0.00 
    1   -3    7     -0.40      0.00 
    2   -3    7     -1.87      0.00 
    3   -3    7      1.69      0.00 
    4   -3    7      0.67      0.00 
    5   -3    7     -1.52      0.00 
    6   -3    7     -0.28      0.00 
    7   -3    7     -0.21      0.00 
    8   -3    7      0.46      0.00 
    9   -3    7     -0.06      0.00 
   10   -3    7      0.33      0.00 
  -11   -2    7      0.14      0.00 
  -10   -2    7      0.09      0.00 
   -9   -2    7     -0.19      0.00 
   -8   -2    7      0.10      0.00 
   -7   -2    7      0.15      0.00 
   -6   -2    7     -0.37      0.00 
   -5   -2    7     -0.55      0.00 
   -4   -2    7      0.30      0.00 
   -3   -2    7      0.81      0.00 
   -2   -2    7      0.74      0.00 
   -1   -2    7     -6.69      0.00 
    0   -2    7    -21.30      0.00 
    1   -2    7      3.93      0.00 
    2   -2    7     -1.13      0.00 
    3   -2    7      0.84      0.00 
    4   -2    7     -0.40      0.00 
    5   -2    7     -1.86      0.00 
    6   -2    7     -0.48      0.00 
    7   -2    7      0.33      0.00 
    8   -2    7      0.68      0.00 
    9   -2    7     -0.02      0.00 
   10   -2    7      0.35      0.00 
   11   -2    7     -0.73      0.00 
  -10   -1    7     -0.06      0.00 
   -9   -1    7     -0.27      0.00 
   -8   -1    7     -0.19      0.00 
   -7   -1    7     -0.16      0.00 
   -6   -1    7     -0.21      0.00 
   -5   -1    7     -0.63      0.00 
   -4   -1    7      0.59      0.00 
   -3   -1    7      1.16      0.00 
   -2   -1    7     -0.32      0.00 
   -1   -1    7     -6.48      0.00 
    0   -1    7    -18.35      0.00 
    1   -1    7      8.98      0.00 
    2   -1    7     -1.93      0.00 
    3   -1    7     -0.67      0.00 
    4   -1    7     -1.50      0.00 
    5   -1    7     -1.80      0.00 
    6   -1    7     -0.05      0.00 
    7   -1    7      0.67      0.00 
    8   -1    7      0.22      0.00 
    9   -1    7     -0.28      0.00 
   10   -1    7     -0.24      0.00 
   11   -1    7     -0.74      0.00 
  -10    0    7     -0.40      0.00 
   -9    0    7      0.13      0.00 
   -8    0    7     -0.32      0.00 
   -7    0    7     -0.09      0.00 
   -6    0    7      0.02      0.00 
   -5    0    7     -0.31      0.00 
   -4    0    7      0.44      0.00 
   -3    0    7      0.34      0.00 
   -2    0    7     -1.72      0.00 
   -1    0    7     -4.45      0.00 
    0    0    7     -9.88      0.00 
    1    0    7     10.45      0.00 
    2    0    7     -4.13      0.00 
    3    0    7     -1.88      0.00 
    4    0    7     -1.51      0.00 
    5    0    7     -0.81      0.00 
    6    0    7      0.44      0.00 
    7    0    7      0.13      0.00 
    8    0    7     -0.51      0.00 
    9    0    7     -0.58      0.00 
   10    0    7     -0.19      0.00 
   11    0    7     -0.26      0.00 
  -10    1    7     -0.05      0.00 
   -9    1    7      0.50      0.00 
   -8    1    7     -0.25      0.00 
   -7    1    7      0.11      0.00 
   -6    1    7      0.22      0.00 
   -5    1    7     -0.26      0.00 
   -4    1    7     -0.36      0.00 
   -3    1    7     -0.66      0.00 
   -2    1    7     -1.59      0.00 
   -1    1    7     -0.97      0.00 
    0    1    7     -1.70      0.00 
    1    1    7      6.08      0.00 
    2    1    7     -5.46      0.00 
    3    1    7     -1.70      0.00 
    4    1    7      0.11      0.00 
    5    1    7      0.12      0.00 
    6    1    7      0.09      0.00 
    7    1    7     -0.42      0.00 
    8    1    7     -0.62      0.00 
    9    1    7     -0.29      0.00 
   10    1    7      0.33      0.00 
   11    1    7      0.02      0.00 
  -10    2    7      0.37      0.00 
   -9    2    7      0.46      0.00 
   -8    2    7     -0.09      0.00 
   -7    2    7      0.08      0.00 
   -6    2    7      0.03      0.00 
   -5    2    7     -0.61      0.00 
   -4    2    7     -0.92      0.00 
   -3    2    7     -0.60      0.00 
   -2    2    7     -0.25      0.00 
   -1    2    7      1.57      0.00 
    0    2    7      1.73      0.00 
    1    2    7      0.22      0.00 
    2    2    7     -4.32      0.00 
    3    2    7     -0.15      0.00 
    4    2    7      1.87      0.00 
    5    2    7      0.06      0.00 
    6    2    7     -0.29      0.00 
    7    2    7     -0.20      0.00 
    8    2    7     -0.36      0.00 
    9    2    7      0.13      0.00 
   10    2    7      0.51      0.00 
   11    2    7      0.20      0.00 
   12    2    7     -0.43      0.00 
  -10    3    7      0.36      0.00 
   -9    3    7      0.26      0.00 
   -8    3    7     -0.16      0.00 
   -7    3    7     -0.44      0.00 
   -6    3    7     -0.57      0.00 
   -5    3    7     -0.81      0.00 
   -4    3    7     -0.92      0.00 
   -3    3    7      0.16      0.00 
   -2    3    7      0.67      0.00 
   -1    3    7      2.46      0.00 
    0    3    7      2.22      0.00 
    1    3    7     -3.23      0.00 
    2    3    7     -1.90      0.00 
    3    3    7      1.54      0.00 
    4    3    7      2.28      0.00 
    5    3    7     -0.22      0.00 
    6    3    7     -0.09      0.00 
    7    3    7      0.10      0.00 
    8    3    7     -0.30      0.00 
    9    3    7      0.16      0.00 
   10    3    7      0.29      0.00 
   11    3    7      0.15      0.00 
   12    3    7     -0.86      0.00 
   -9    4    7     -0.03      0.00 
   -8    4    7     -0.42      0.00 
   -7    4    7     -1.04      0.00 
   -6    4    7     -0.86      0.00 
   -5    4    7     -0.81      0.00 
   -4    4    7     -0.59      0.00 
   -3    4    7      1.05      0.00 
   -2    4    7      0.63      0.00 
   -1    4    7      2.29      0.00 
    0    4    7      1.75      0.00 
    1    4    7     -4.65      0.00 
    2    4    7      0.69      0.00 
    3    4    7      2.29      0.00 
    4    4    7      1.59      0.00 
    5    4    7     -0.27      0.00 
    6    4    7      0.12      0.00 
    7    4    7      0.14      0.00 
    8    4    7     -0.16      0.00 
    9    4    7     -0.08      0.00 
   10    4    7     -0.24      0.00 
   11    4    7     -0.06      0.00 
   12    4    7     -0.37      0.00 
   -9    5    7     -0.26      0.00 
   -8    5    7     -0.24      0.00 
   -7    5    7     -0.87      0.00 
   -6    5    7     -0.49      0.00 
   -5    5    7     -0.80      0.00 
   -4    5    7      0.01      0.00 
   -3    5    7      1.50      0.00 
   -2    5    7     -0.44      0.00 
   -1    5    7      1.00      0.00 
    0    5    7      0.75      0.00 
    1    5    7     -4.20      0.00 
    2    5    7      2.62      0.00 
    3    5    7      1.63      0.00 
    4    5    7      0.63      0.00 
    5    5    7     -0.39      0.00 
    6    5    7      0.19      0.00 
    7    5    7      0.16      0.00 
    8    5    7      0.27      0.00 
    9    5    7     -0.24      0.00 
   10    5    7     -0.62      0.00 
   11    5    7      0.19      0.00 
   12    5    7      0.79      0.00 
   -8    6    7      0.37      0.00 
   -7    6    7     -0.15      0.00 
   -6    6    7     -0.01      0.00 
   -5    6    7     -0.56      0.00 
   -4    6    7      0.44      0.00 
   -3    6    7      1.18      0.00 
   -2    6    7     -1.74      0.00 
   -1    6    7     -0.29      0.00 
    0    6    7      0.59      0.00 
    1    6    7     -2.29      0.00 
    2    6    7      2.45      0.00 
    3    6    7      0.38      0.00 
    4    6    7     -0.06      0.00 
    5    6    7     -0.37      0.00 
    6    6    7      0.19      0.00 
    7    6    7      0.07      0.00 
    8    6    7      0.65      0.00 
    9    6    7     -0.02      0.00 
   10    6    7     -0.34      0.00 
   11    6    7      0.30      0.00 
   12    6    7      1.00      0.00 
   -8    7    7      0.59      0.00 
   -7    7    7      0.22      0.00 
   -6    7    7      0.17      0.00 
   -5    7    7      0.00      0.00 
   -4    7    7      0.63      0.00 
   -3    7    7      0.83      0.00 
   -2    7    7     -2.07      0.00 
   -1    7    7     -0.29      0.00 
    0    7    7      1.25      0.00 
    1    7    7     -1.05      0.00 
    2    7    7      1.05      0.00 
    3    7    7     -0.22      0.00 
    4    7    7     -0.40      0.00 
    5    7    7     -0.15      0.00 
    6    7    7      0.05      0.00 
    7    7    7     -0.04      0.00 
    8    7    7      0.57      0.00 
    9    7    7      0.14      0.00 
   10    7    7     -0.04      0.00 
   11    7    7     -0.59      0.00 
   -7    8    7      0.11      0.00 
   -6    8    7      0.01      0.00 
   -5    8    7      0.66      0.00 
   -4    8    7      0.89      0.00 
   -3    8    7      0.57      0.00 
   -2    8    7     -1.73      0.00 
   -1    8    7      0.11      0.00 
    0    8    7      1.28      0.00 
    1    8    7     -0.80      0.00 
    2    8    7      0.55      0.00 
    3    8    7     -0.47      0.00 
    4    8    7     -0.59      0.00 
    5    8    7     -0.03      0.00 
    6    8    7      0.13      0.00 
    7    8    7     -0.10      0.00 
    8    8    7     -0.16      0.00 
    9    8    7     -0.34      0.00 
   10    8    7     -0.02      0.00 
   11    8    7     -1.39      0.00 
   -6    9    7     -0.41      0.00 
   -5    9    7      1.01      0.00 
   -4    9    7      0.68      0.00 
   -3    9    7      0.10      0.00 
   -2    9    7     -1.30      0.00 
   -1    9    7     -0.09      0.00 
    0    9    7      0.71      0.00 
    1    9    7     -0.51      0.00 
    2    9    7      0.54      0.00 
    3    9    7     -0.66      0.00 
    4    9    7     -0.53      0.00 
    5    9    7      0.07      0.00 
    6    9    7      0.28      0.00 
    7    9    7     -0.51      0.00 
    8    9    7     -0.86      0.00 
    9    9    7     -0.76      0.00 
   10    9    7      0.44      0.00 
   11    9    7     -1.04      0.00 
   -5   10    7      0.78      0.00 
   -4   10    7     -0.04      0.00 
   -3   10    7      0.28      0.00 
   -2   10    7     -0.74      0.00 
   -1   10    7     -0.57      0.00 
    0   10    7      0.26      0.00 
    1   10    7     -0.38      0.00 
    2   10    7      0.15      0.00 
    3   10    7     -0.11      0.00 
    4   10    7     -0.36      0.00 
    5   10    7     -0.01      0.00 
    6   10    7     -0.22      0.00 
    7   10    7     -1.01      0.00 
    8   10    7     -0.65      0.00 
    9   10    7     -0.24      0.00 
   10   10    7      1.19      0.00 
   -4   11    7     -0.12      0.00 
   -3   11    7      0.99      0.00 
   -2   11    7     -0.41      0.00 
   -1   11    7     -0.58      0.00 
    0   11    7      0.17      0.00 
    1   11    7     -0.48      0.00 
    2   11    7     -0.08      0.00 
    3   11    7      0.52      0.00 
    4   11    7     -0.53      0.00 
    5   11    7     -0.34      0.00 
    6   11    7     -0.77      0.00 
    7   11    7     -0.91      0.00 
    8   11    7     -0.03      0.00 
    9   11    7      0.59      0.00 
   10   11    7      1.26      0.00 
   -3   12    7      0.72      0.00 
   -2   12    7     -0.17      0.00 
   -1   12    7      0.13      0.00 
    0   12    7      0.22      0.00 
    1   12    7     -0.65      0.00 
    2   12    7     -0.26      0.00 
    3   12    7      0.26      0.00 
    4   12    7     -0.49      0.00 
    5   12    7     -0.34      0.00 
    6   12    7     -0.38      0.00 
    7   12    7     -0.44      0.00 
    8   12    7     -0.07      0.00 
    9   12    7      0.70      0.00 
   -2   13    7      0.37      0.00 
   -1   13    7      0.62      0.00 
    0   13    7     -0.21      0.00 
    1   13    7     -0.93      0.00 
    2   13    7     -0.48      0.00 
    3   13    7      0.04      0.00 
    4   13    7      0.09      0.00 
    5   13    7      0.11      0.00 
    6   13    7      0.36      0.00 
    7   13    7     -0.17      0.00 
    8   13    7     -0.64      0.00 
    0   14    7     -0.73      0.00 
    1   14    7     -0.77      0.00 
    2   14    7     -0.24      0.00 
    3   14    7      0.33      0.00 
    4   14    7      0.39      0.00 
    5   14    7      0.35      0.00 
    6   14    7      0.41      0.00 
   -4  -13    8     -0.09      0.00 
   -3  -13    8      0.08      0.00 
   -2  -13    8     -0.05      0.00 
   -1  -13    8      0.47      0.00 
    0  -13    8     -0.08      0.00 
   -6  -12    8      0.45      0.00 
   -5  -12    8     -0.26      0.00 
   -4  -12    8      0.04      0.00 
   -3  -12    8      0.00      0.00 
   -2  -12    8      0.42      0.00 
   -1  -12    8      0.45      0.00 
    0  -12    8     -0.50      0.00 
    1  -12    8      0.32      0.00 
    2  -12    8      0.29      0.00 
    3  -12    8      0.59      0.00 
   -7  -11    8     -0.14      0.00 
   -6  -11    8      0.31      0.00 
   -5  -11    8      0.37      0.00 
   -4  -11    8      0.12      0.00 
   -3  -11    8      0.18      0.00 
   -2  -11    8      0.57      0.00 
   -1  -11    8      0.41      0.00 
    0  -11    8     -0.50      0.00 
    1  -11    8      0.19      0.00 
    2  -11    8     -0.04      0.00 
    3  -11    8      0.14      0.00 
    4  -11    8      0.25      0.00 
   -8  -10    8     -1.10      0.00 
   -7  -10    8     -0.77      0.00 
   -6  -10    8      0.16      0.00 
   -5  -10    8      0.63      0.00 
   -4  -10    8      0.08      0.00 
   -3  -10    8      0.21      0.00 
   -2  -10    8      0.34      0.00 
   -1  -10    8      0.81      0.00 
    0  -10    8     -0.57      0.00 
    1  -10    8     -0.39      0.00 
    2  -10    8     -0.73      0.00 
    3  -10    8     -0.46      0.00 
    4  -10    8      0.37      0.00 
    5  -10    8      0.13      0.00 
   -9   -9    8      0.19      0.00 
   -8   -9    8     -1.04      0.00 
   -7   -9    8     -0.89      0.00 
   -6   -9    8      0.20      0.00 
   -5   -9    8      0.20      0.00 
   -4   -9    8      0.16      0.00 
   -3   -9    8     -0.09      0.00 
   -2   -9    8      0.11      0.00 
   -1   -9    8      1.09      0.00 
    0   -9    8     -0.71      0.00 
    1   -9    8     -0.55      0.00 
    2   -9    8     -0.73      0.00 
    3   -9    8     -0.62      0.00 
    4   -9    8      0.61      0.00 
    5   -9    8      0.33      0.00 
    6   -9    8      0.10      0.00 
   -9   -8    8      0.40      0.00 
   -8   -8    8     -0.45      0.00 
   -7   -8    8     -0.32      0.00 
   -6   -8    8      0.07      0.00 
   -5   -8    8     -0.13      0.00 
   -4   -8    8      0.25      0.00 
   -3   -8    8     -0.25      0.00 
   -2   -8    8     -0.03      0.00 
   -1   -8    8      1.30      0.00 
    0   -8    8      0.34      0.00 
    1   -8    8      0.17      0.00 
    2   -8    8     -0.01      0.00 
    3   -8    8     -0.65      0.00 
    4   -8    8      0.72      0.00 
    5   -8    8      0.24      0.00 
    6   -8    8     -0.24      0.00 
    7   -8    8     -0.97      0.00 
  -10   -7    8     -0.01      0.00 
   -9   -7    8      0.20      0.00 
   -8   -7    8      0.04      0.00 
   -7   -7    8      0.34      0.00 
   -6   -7    8     -0.16      0.00 
   -5   -7    8      0.09      0.00 
   -4   -7    8      0.10      0.00 
   -3   -7    8      0.27      0.00 
   -2   -7    8      0.00      0.00 
   -1   -7    8      1.85      0.00 
    0   -7    8      2.36      0.00 
    1   -7    8      0.90      0.00 
    2   -7    8      0.94      0.00 
    3   -7    8     -0.58      0.00 
    4   -7    8      0.65      0.00 
    5   -7    8     -0.26      0.00 
    6   -7    8     -0.39      0.00 
    7   -7    8     -0.54      0.00 
    8   -7    8     -0.09      0.00 
  -10   -6    8     -0.07      0.00 
   -9   -6    8      0.06      0.00 
   -8   -6    8      0.12      0.00 
   -7   -6    8      0.66      0.00 
   -6   -6    8     -0.23      0.00 
   -5   -6    8      0.23      0.00 
   -4   -6    8     -0.03      0.00 
   -3   -6    8      1.01      0.00 
   -2   -6    8      0.02      0.00 
   -1   -6    8      2.14      0.00 
    0   -6    8      4.74      0.00 
    1   -6    8      1.63      0.00 
    2   -6    8      2.15      0.00 
    3   -6    8     -0.37      0.00 
    4   -6    8      0.16      0.00 
    5   -6    8     -0.37      0.00 
    6   -6    8      0.25      0.00 
    7   -6    8      0.33      0.00 
    8   -6    8      0.38      0.00 
    9   -6    8      0.02      0.00 
  -10   -5    8      0.44      0.00 
   -9   -5    8      0.19      0.00 
   -8   -5    8     -0.04      0.00 
   -7   -5    8      0.37      0.00 
   -6   -5    8     -0.19      0.00 
   -5   -5    8     -0.02      0.00 
   -4   -5    8     -0.01      0.00 
   -3   -5    8      0.99      0.00 
   -2   -5    8     -0.23      0.00 
   -1   -5    8      2.51      0.00 
    0   -5    8      8.48      0.00 
    1   -5    8      2.34      0.00 
    2   -5    8      2.90      0.00 
    3   -5    8     -0.74      0.00 
    4   -5    8     -0.62      0.00 
    5   -5    8      0.40      0.00 
    6   -5    8      0.68      0.00 
    7   -5    8      0.64      0.00 
    8   -5    8      0.39      0.00 
    9   -5    8     -0.51      0.00 
  -10   -4    8      1.01      0.00 
   -9   -4    8      0.11      0.00 
   -8   -4    8     -0.39      0.00 
   -7   -4    8     -0.31      0.00 
   -6   -4    8      0.00      0.00 
   -5   -4    8     -0.20      0.00 
   -4   -4    8     -0.05      0.00 
   -3   -4    8      0.39      0.00 
   -2   -4    8     -0.51      0.00 
   -1   -4    8      3.94      0.00 
    0   -4    8     13.14      0.00 
    1   -4    8      1.62      0.00 
    2   -4    8      2.46      0.00 
    3   -4    8     -1.50      0.00 
    4   -4    8     -0.80      0.00 
    5   -4    8      1.26      0.00 
    6   -4    8      0.35      0.00 
    7   -4    8      0.53      0.00 
    8   -4    8      0.07      0.00 
    9   -4    8     -0.27      0.00 
   10   -4    8      0.20      0.00 
  -10   -3    8      0.60      0.00 
   -9   -3    8     -0.11      0.00 
   -8   -3    8     -0.65      0.00 
   -7   -3    8     -0.50      0.00 
   -6   -3    8      0.26      0.00 
   -5   -3    8      0.07      0.00 
   -4   -3    8     -0.15      0.00 
   -3   -3    8     -0.18      0.00 
   -2   -3    8     -0.73      0.00 
   -1   -3    8      5.51      0.00 
    0   -3    8     16.47      0.00 
    1   -3    8     -1.15      0.00 
    2   -3    8      1.64      0.00 
    3   -3    8     -1.45      0.00 
    4   -3    8     -0.13      0.00 
    5   -3    8      1.61      0.00 
    6   -3    8      0.18      0.00 
    7   -3    8      0.36      0.00 
    8   -3    8     -0.18      0.00 
    9   -3    8      0.05      0.00 
   10   -3    8     -0.28      0.00 
  -10   -2    8     -0.02      0.00 
   -9   -2    8      0.01      0.00 
   -8   -2    8     -0.47      0.00 
   -7   -2    8     -0.08      0.00 
   -6   -2    8      0.25      0.00 
   -5   -2    8      0.58      0.00 
   -4   -2    8     -0.38      0.00 
   -3   -2    8     -0.77      0.00 
   -2   -2    8     -0.61      0.00 
   -1   -2    8      5.97      0.00 
    0   -2    8     16.81      0.00 
    1   -2    8     -5.29      0.00 
    2   -2    8      1.59      0.00 
    3   -2    8     -0.37      0.00 
    4   -2    8      0.89      0.00 
    5   -2    8      1.74      0.00 
    6   -2    8      0.26      0.00 
    7   -2    8     -0.08      0.00 
    8   -2    8     -0.23      0.00 
    9   -2    8     -0.03      0.00 
   10   -2    8     -0.24      0.00 
   11   -2    8      0.68      0.00 
  -10   -1    8      0.12      0.00 
   -9   -1    8      0.09      0.00 
   -8   -1    8     -0.04      0.00 
   -7   -1    8      0.18      0.00 
   -6   -1    8      0.08      0.00 
   -5   -1    8      0.72      0.00 
   -4   -1    8     -0.63      0.00 
   -3   -1    8     -0.83      0.00 
   -2   -1    8      0.57      0.00 
   -1   -1    8      5.08      0.00 
    0   -1    8     12.91      0.00 
    1   -1    8     -8.96      0.00 
    2   -1    8      2.81      0.00 
    3   -1    8      0.95      0.00 
    4   -1    8      1.56      0.00 
    5   -1    8      1.35      0.00 
    6   -1    8     -0.18      0.00 
    7   -1    8     -0.29      0.00 
    8   -1    8      0.15      0.00 
    9   -1    8      0.13      0.00 
   10   -1    8      0.19      0.00 
   11   -1    8      0.58      0.00 
  -10    0    8      0.18      0.00 
   -9    0    8     -0.25      0.00 
   -8    0    8      0.24      0.00 
   -7    0    8      0.04      0.00 
   -6    0    8     -0.06      0.00 
   -5    0    8      0.50      0.00 
   -4    0    8     -0.24      0.00 
   -3    0    8      0.05      0.00 
   -2    0    8      1.80      0.00 
   -1    0    8      2.55      0.00 
    0    0    8      5.98      0.00 
    1    0    8     -8.67      0.00 
    2    0    8      4.69      0.00 
    3    0    8      1.50      0.00 
    4    0    8      0.93      0.00 
    5    0    8      0.22      0.00 
    6    0    8     -0.45      0.00 
    7    0    8      0.26      0.00 
    8    0    8      0.58      0.00 
    9    0    8      0.35      0.00 
   10    0    8      0.01      0.00 
   11    0    8      0.26      0.00 
  -10    1    8     -0.33      0.00 
   -9    1    8     -0.43      0.00 
   -8    1    8      0.24      0.00 
   -7    1    8     -0.17      0.00 
   -6    1    8     -0.16      0.00 
   -5    1    8      0.53      0.00 
   -4    1    8      0.59      0.00 
   -3    1    8      0.74      0.00 
   -2    1    8      1.47      0.00 
   -1    1    8     -0.52      0.00 
    0    1    8      0.71      0.00 
    1    1    8     -3.84      0.00 
    2    1    8      5.25      0.00 
    3    1    8      0.68      0.00 
    5    1    8     -0.46      0.00 
    6    1    8      0.11      0.00 
    7    1    8      0.68      0.00 
    8    1    8      0.50      0.00 
    9    1    8      0.13      0.00 
   10    1    8     -0.43      0.00 
   11    1    8      0.20      0.00 
  -10    2    8     -0.59      0.00 
   -9    2    8     -0.25      0.00 
   -8    2    8      0.12      0.00 
   -7    2    8     -0.09      0.00 
   -6    2    8      0.05      0.00 
   -5    2    8      0.78      0.00 
   -4    2    8      0.87      0.00 
   -3    2    8      0.44      0.00 
   -2    2    8      0.28      0.00 
   -1    2    8     -2.20      0.00 
    0    2    8     -0.92      0.00 
    1    2    8      1.30      0.00 
    2    2    8      3.71      0.00 
    3    2    8     -0.89      0.00 
    4    2    8     -2.09      0.00 
    5    2    8     -0.16      0.00 
    6    2    8      0.44      0.00 
    7    2    8      0.35      0.00 
    8    2    8      0.27      0.00 
    9    2    8     -0.22      0.00 
   10    2    8     -0.46      0.00 
   11    2    8      0.05      0.00 
   -9    3    8     -0.05      0.00 
   -8    3    8      0.27      0.00 
   -7    3    8      0.45      0.00 
   -6    3    8      0.59      0.00 
   -5    3    8      0.75      0.00 
   -4    3    8      0.59      0.00 
   -3    3    8     -0.33      0.00 
   -2    3    8     -0.32      0.00 
   -1    3    8     -2.51      0.00 
    0    3    8     -1.03      0.00 
    1    3    8      4.06      0.00 
    2    3    8      1.24      0.00 
    3    3    8     -2.20      0.00 
    4    3    8     -2.02      0.00 
    5    3    8      0.14      0.00 
    6    3    8      0.10      0.00 
    7    3    8     -0.03      0.00 
    8    3    8      0.20      0.00 
    9    3    8     -0.27      0.00 
   10    3    8     -0.13      0.00 
   11    3    8     -0.04      0.00 
   12    3    8      0.67      0.00 
   -9    4    8      0.17      0.00 
   -8    4    8      0.51      0.00 
   -7    4    8      0.91      0.00 
   -6    4    8      0.82      0.00 
   -5    4    8      0.58      0.00 
   -4    4    8      0.16      0.00 
   -3    4    8     -1.09      0.00 
   -2    4    8      0.07      0.00 
   -1    4    8     -1.96      0.00 
    0    4    8     -0.65      0.00 
    1    4    8      4.85      0.00 
    2    4    8     -1.39      0.00 
    3    4    8     -2.59      0.00 
    4    4    8     -1.17      0.00 
    5    4    8      0.18      0.00 
    6    4    8     -0.15      0.00 
    7    4    8     -0.18      0.00 
    8    4    8     -0.02      0.00 
    9    4    8     -0.04      0.00 
   10    4    8      0.42      0.00 
   11    4    8      0.05      0.00 
   12    4    8      0.16      0.00 
   -9    5    8      0.30      0.00 
   -8    5    8      0.24      0.00 
   -7    5    8      0.60      0.00 
   -6    5    8      0.46      0.00 
   -5    5    8      0.49      0.00 
   -4    5    8     -0.39      0.00 
   -3    5    8     -1.34      0.00 
   -2    5    8      1.27      0.00 
   -1    5    8     -0.56      0.00 
    0    5    8     -0.11      0.00 
    1    5    8      3.71      0.00 
    2    5    8     -3.13      0.00 
    3    5    8     -1.70      0.00 
    4    5    8     -0.18      0.00 
    5    5    8      0.32      0.00 
    6    5    8     -0.13      0.00 
    7    5    8     -0.27      0.00 
    8    5    8     -0.42      0.00 
    9    5    8      0.10      0.00 
   10    5    8      0.67      0.00 
   11    5    8     -0.15      0.00 
   12    5    8     -0.85      0.00 
   -8    6    8     -0.39      0.00 
   -7    6    8     -0.14      0.00 
   -6    6    8      0.02      0.00 
   -5    6    8      0.25      0.00 
   -4    6    8     -0.70      0.00 
   -3    6    8     -0.97      0.00 
   -2    6    8      2.31      0.00 
   -1    6    8      0.37      0.00 
    0    6    8     -0.53      0.00 
    1    6    8      1.68      0.00 
    2    6    8     -2.58      0.00 
    3    6    8     -0.29      0.00 
    4    6    8      0.48      0.00 
    5    6    8      0.33      0.00 
    6    6    8      0.00      0.00 
    7    6    8     -0.21      0.00 
    8    6    8     -0.69      0.00 
    9    6    8     -0.16      0.00 
   10    6    8      0.28      0.00 
   11    6    8     -0.07      0.00 
   -8    7    8     -0.54      0.00 
   -7    7    8     -0.49      0.00 
   -6    7    8     -0.09      0.00 
   -5    7    8     -0.26      0.00 
   -4    7    8     -0.79      0.00 
   -3    7    8     -0.68      0.00 
   -2    7    8      2.34      0.00 
   -1    7    8      0.01      0.00 
    0    7    8     -1.32      0.00 
    1    7    8      0.80      0.00 
    2    7    8     -1.06      0.00 
    3    7    8      0.45      0.00 
    4    7    8      0.70      0.00 
    5    7    8      0.18      0.00 
    6    7    8      0.11      0.00 
    7    7    8     -0.14      0.00 
    8    7    8     -0.56      0.00 
    9    7    8     -0.30      0.00 
   10    7    8     -0.04      0.00 
   11    7    8      0.83      0.00 
   -7    8    8     -0.38      0.00 
   -6    8    8      0.10      0.00 
   -5    8    8     -0.78      0.00 
   -4    8    8     -0.88      0.00 
   -3    8    8     -0.40      0.00 
   -2    8    8      1.86      0.00 
   -1    8    8     -0.44      0.00 
    0    8    8     -1.21      0.00 
    1    8    8      0.80      0.00 
    2    8    8     -0.57      0.00 
    3    8    8      0.74      0.00 
    4    8    8      0.68      0.00 
    5    8    8      0.07      0.00 
    6    8    8     -0.07      0.00 
    7    8    8     -0.02      0.00 
    8    8    8      0.17      0.00 
    9    8    8      0.23      0.00 
   10    8    8     -0.15      0.00 
   11    8    8      1.43      0.00 
   -6    9    8      0.47      0.00 
   -5    9    8     -0.94      0.00 
   -4    9    8     -0.48      0.00 
   -3    9    8     -0.01      0.00 
   -2    9    8      1.29      0.00 
   -1    9    8     -0.11      0.00 
    0    9    8     -0.61      0.00 
    1    9    8      0.71      0.00 
    2    9    8     -0.48      0.00 
    3    9    8      0.75      0.00 
    4    9    8      0.40      0.00 
    5    9    8     -0.06      0.00 
    6    9    8     -0.23      0.00 
    7    9    8      0.56      0.00 
    8    9    8      0.87      0.00 
    9    9    8      0.55      0.00 
   10    9    8     -0.76      0.00 
   11    9    8      0.97      0.00 
   -5   10    8     -0.64      0.00 
   -4   10    8      0.16      0.00 
   -3   10    8     -0.39      0.00 
   -2   10    8      0.68      0.00 
   -1   10    8      0.47      0.00 
    0   10    8     -0.17      0.00 
    1   10    8      0.70      0.00 
    2   10    8     -0.16      0.00 
    3   10    8      0.06      0.00 
    4   10    8      0.15      0.00 
    5   10    8     -0.07      0.00 
    6   10    8      0.16      0.00 
    7   10    8      1.18      0.00 
    8   10    8      0.72      0.00 
    9   10    8     -0.10      0.00 
   10   10    8     -1.53      0.00 
   -4   11    8      0.05      0.00 
   -3   11    8     -1.02      0.00 
   -2   11    8      0.49      0.00 
   -1   11    8      0.46      0.00 
    0   11    8     -0.01      0.00 
    1   11    8      0.66      0.00 
    2   11    8     -0.01      0.00 
    3   11    8     -0.48      0.00 
    4   11    8      0.30      0.00 
    5   11    8      0.04      0.00 
    6   11    8      0.37      0.00 
    7   11    8      1.05      0.00 
    8   11    8      0.22      0.00 
    9   11    8     -0.87      0.00 
   10   11    8     -1.48      0.00 
   -3   12    8     -0.52      0.00 
   -2   12    8      0.29      0.00 
   -1   12    8     -0.28      0.00 
    0   12    8      0.11      0.00 
    1   12    8      0.62      0.00 
    2   12    8      0.23      0.00 
    3   12    8     -0.25      0.00 
    4   12    8      0.26      0.00 
    5   12    8     -0.16      0.00 
    6   12    8     -0.24      0.00 
    7   12    8      0.46      0.00 
    8   12    8      0.39      0.00 
    9   12    8     -0.81      0.00 
   -2   13    8     -0.30      0.00 
   -1   13    8     -0.63      0.00 
    0   13    8      0.64      0.00 
    1   13    8      0.79      0.00 
    2   13    8      0.40      0.00 
    3   13    8     -0.21      0.00 
    4   13    8     -0.14      0.00 
    5   13    8     -0.45      0.00 
    6   13    8     -0.81      0.00 
    7   13    8      0.07      0.00 
    8   13    8      0.96      0.00 
    0   14    8      0.98      0.00 
    1   14    8      0.60      0.00 
    2   14    8      0.10      0.00 
    3   14    8     -0.49      0.00 
    4   14    8     -0.17      0.00 
    5   14    8     -0.34      0.00 
    6   14    8     -0.59      0.00 
   -3  -13    9     -0.05      0.00 
   -2  -13    9      0.14      0.00 
   -1  -13    9     -0.31      0.00 
    0  -13    9     -0.03      0.00 
   -6  -12    9     -0.50      0.00 
   -5  -12    9     -0.07      0.00 
   -4  -12    9     -0.08      0.00 
   -3  -12    9      0.03      0.00 
   -2  -12    9     -0.24      0.00 
   -1  -12    9     -0.28      0.00 
    0  -12    9      0.20      0.00 
    1  -12    9     -0.28      0.00 
    2  -12    9     -0.36      0.00 
   -7  -11    9      0.42      0.00 
   -6  -11    9     -0.34      0.00 
   -5  -11    9     -0.67      0.00 
   -4  -11    9     -0.01      0.00 
   -3  -11    9     -0.12      0.00 
   -2  -11    9     -0.49      0.00 
   -1  -11    9     -0.45      0.00 
    0  -11    9      0.04      0.00 
    1  -11    9     -0.14      0.00 
    2  -11    9      0.05      0.00 
    3  -11    9      0.09      0.00 
    4  -11    9     -0.06      0.00 
   -8  -10    9      1.16      0.00 
   -7  -10    9      1.04      0.00 
   -6  -10    9     -0.18      0.00 
   -5  -10    9     -0.71      0.00 
   -4  -10    9      0.20      0.00 
   -3  -10    9     -0.17      0.00 
   -2  -10    9     -0.51      0.00 
   -1  -10    9     -0.98      0.00 
    0  -10    9      0.15      0.00 
    1  -10    9      0.52      0.00 
    2  -10    9      0.79      0.00 
    3  -10    9      0.73      0.00 
    4  -10    9     -0.11      0.00 
    5  -10    9     -0.44      0.00 
   -9   -9    9     -0.28      0.00 
   -8   -9    9      1.03      0.00 
   -7   -9    9      1.03      0.00 
   -6   -9    9     -0.11      0.00 
   -5   -9    9     -0.10      0.00 
   -4   -9    9      0.18      0.00 
   -3   -9    9      0.03      0.00 
   -2   -9    9     -0.40      0.00 
   -1   -9    9     -1.21      0.00 
    0   -9    9      0.31      0.00 
    1   -9    9      0.55      0.00 
    2   -9    9      0.71      0.00 
    3   -9    9      0.85      0.00 
    4   -9    9     -0.42      0.00 
    5   -9    9     -0.85      0.00 
    6   -9    9     -0.19      0.00 
   -9   -8    9     -0.43      0.00 
   -8   -8    9      0.40      0.00 
   -7   -8    9      0.49      0.00 
   -6   -8    9      0.16      0.00 
   -5   -8    9      0.26      0.00 
   -4   -8    9      0.01      0.00 
   -3   -8    9      0.12      0.00 
   -2   -8    9     -0.15      0.00 
   -1   -8    9     -1.36      0.00 
    0   -8    9     -0.84      0.00 
    1   -8    9     -0.40      0.00 
    2   -8    9     -0.17      0.00 
    3   -8    9      0.73      0.00 
    4   -8    9     -0.64      0.00 
    5   -8    9     -0.74      0.00 
    6   -8    9      0.19      0.00 
    7   -8    9      0.76      0.00 
   -9   -7    9     -0.21      0.00 
   -8   -7    9      0.00      0.00 
   -7   -7    9      0.04      0.00 
   -6   -7    9      0.40      0.00 
   -5   -7    9     -0.02      0.00 
   -4   -7    9      0.06      0.00 
   -3   -7    9     -0.34      0.00 
   -2   -7    9     -0.01      0.00 
   -1   -7    9     -1.95      0.00 
    0   -7    9     -2.91      0.00 
    1   -7    9     -1.18      0.00 
    2   -7    9     -1.19      0.00 
    3   -7    9      0.60      0.00 
    4   -7    9     -0.60      0.00 
    5   -7    9     -0.16      0.00 
    6   -7    9      0.20      0.00 
    7   -7    9      0.18      0.00 
    8   -7    9      0.05      0.00 
  -10   -6    9      0.07      0.00 
   -9   -6    9      0.02      0.00 
   -8   -6    9      0.08      0.00 
   -7   -6    9     -0.12      0.00 
   -6   -6    9      0.36      0.00 
   -5   -6    9     -0.20      0.00 
   -4   -6    9      0.14      0.00 
   -3   -6    9     -0.98      0.00 
   -2   -6    9      0.02      0.00 
   -1   -6    9     -2.36      0.00 
    0   -6    9     -5.13      0.00 
    1   -6    9     -1.64      0.00 
    2   -6    9     -2.13      0.00 
    3   -6    9      0.61      0.00 
    4   -6    9     -0.20      0.00 
    5   -6    9     -0.06      0.00 
    6   -6    9     -0.51      0.00 
    7   -6    9     -0.63      0.00 
    8   -6    9     -0.39      0.00 
    9   -6    9      0.21      0.00 
  -10   -5    9     -0.42      0.00 
   -9   -5    9      0.15      0.00 
   -8   -5    9      0.33      0.00 
   -7   -5    9      0.17      0.00 
   -6   -5    9      0.18      0.00 
   -5   -5    9      0.06      0.00 
   -4   -5    9      0.05      0.00 
   -3   -5    9     -0.96      0.00 
   -2   -5    9      0.17      0.00 
   -1   -5    9     -2.70      0.00 
    0   -5    9     -8.30      0.00 
    1   -5    9     -1.77      0.00 
    2   -5    9     -2.44      0.00 
    3   -5    9      1.14      0.00 
    4   -5    9      0.26      0.00 
    5   -5    9     -0.74      0.00 
    6   -5    9     -0.78      0.00 
    7   -5    9     -0.81      0.00 
    8   -5    9     -0.36      0.00 
    9   -5    9      0.69      0.00 
  -10   -4    9     -0.83      0.00 
   -9   -4    9      0.44      0.00 
   -8   -4    9      0.61      0.00 
   -7   -4    9      0.67      0.00 
   -6   -4    9     -0.09      0.00 
   -5   -4    9      0.27      0.00 
   -4   -4    9     -0.05      0.00 
   -3   -4    9     -0.40      0.00 
   -2   -4    9      0.43      0.00 
   -1   -4    9     -3.75      0.00 
    0   -4    9    -11.93      0.00 
    1   -4    9     -0.49      0.00 
    2   -4    9     -1.98      0.00 
    3   -4    9      1.70      0.00 
    4   -4    9      0.12      0.00 
    5   -4    9     -1.40      0.00 
    6   -4    9     -0.27      0.00 
    7   -4    9     -0.65      0.00 
    8   -4    9     -0.14      0.00 
    9   -4    9      0.35      0.00 
   10   -4    9     -0.03      0.00 
  -10   -3    9     -0.42      0.00 
   -9   -3    9      0.63      0.00 
   -8   -3    9      0.73      0.00 
   -7   -3    9      0.61      0.00 
   -6   -3    9     -0.29      0.00 
   -5   -3    9      0.01      0.00 
   -4   -3    9      0.01      0.00 
   -3   -3    9      0.21      0.00 
   -2   -3    9      0.72      0.00 
   -1   -3    9     -4.86      0.00 
    0   -3    9    -13.91      0.00 
    1   -3    9      2.40      0.00 
    2   -3    9     -1.71      0.00 
    3   -3    9      1.35      0.00 
    4   -3    9     -0.68      0.00 
    5   -3    9     -1.60      0.00 
    6   -3    9     -0.02      0.00 
    7   -3    9     -0.49      0.00 
    8   -3    9     -0.10      0.00 
    9   -3    9      0.00      0.00 
   10   -3    9      0.33      0.00 
  -10   -2    9     -0.03      0.00 
   -9   -2    9      0.39      0.00 
   -8   -2    9      0.43      0.00 
   -7   -2    9      0.07      0.00 
   -6   -2    9     -0.23      0.00 
   -5   -2    9     -0.48      0.00 
   -4   -2    9      0.33      0.00 
   -3   -2    9      0.71      0.00 
   -2   -2    9      0.51      0.00 
   -1   -2    9     -5.04      0.00 
    0   -2    9    -12.89      0.00 
    1   -2    9      5.85      0.00 
    2   -2    9     -2.28      0.00 
    3   -2    9      0.17      0.00 
    4   -2    9     -1.51      0.00 
    5   -2    9     -1.56      0.00 
    6   -2    9     -0.02      0.00 
    7   -2    9     -0.08      0.00 
    8   -2    9     -0.18      0.00 
    9   -2    9      0.13      0.00 
   10   -2    9      0.21      0.00 
   11   -2    9     -0.74      0.00 
  -10   -1    9     -0.20      0.00 
   -9   -1    9      0.27      0.00 
   -8   -1    9     -0.08      0.00 
   -7   -1    9     -0.16      0.00 
   -6   -1    9     -0.15      0.00 
   -5   -1    9     -0.67      0.00 
   -4   -1    9      0.51      0.00 
   -3   -1    9      0.51      0.00 
   -2   -1    9     -0.70      0.00 
   -1   -1    9     -3.86      0.00 
    0   -1    9     -8.68      0.00 
    1   -1    9      8.00      0.00 
    2   -1    9     -3.56      0.00 
    3   -1    9     -0.91      0.00 
    4   -1    9     -1.54      0.00 
    5   -1    9     -0.94      0.00 
    6   -1    9      0.36      0.00 
    7   -1    9      0.09      0.00 
    8   -1    9     -0.43      0.00 
    9   -1    9      0.09      0.00 
   10   -1    9     -0.13      0.00 
   11   -1    9     -0.54      0.00 
  -10    0    9     -0.07      0.00 
   -9    0    9      0.47      0.00 
   -8    0    9     -0.36      0.00 
   -7    0    9      0.04      0.00 
   -6    0    9     -0.13      0.00 
   -5    0    9     -0.58      0.00 
   -4    0    9     -0.04      0.00 
   -3    0    9     -0.40      0.00 
   -2    0    9     -1.66      0.00 
   -1    0    9     -1.31      0.00 
    0    0    9     -3.29      0.00 
    1    0    9      6.47      0.00 
    2    0    9     -4.73      0.00 
    3    0    9     -0.98      0.00 
    4    0    9     -0.23      0.00 
    5    0    9      0.14      0.00 
    6    0    9      0.39      0.00 
    7    0    9     -0.39      0.00 
    8    0    9     -0.59      0.00 
    9    0    9     -0.06      0.00 
   10    0    9      0.10      0.00 
   11    0    9     -0.37      0.00 
  -10    1    9      0.50      0.00 
   -9    1    9      0.39      0.00 
   -8    1    9     -0.26      0.00 
   -7    1    9      0.24      0.00 
   -6    1    9     -0.03      0.00 
   -5    1    9     -0.69      0.00 
   -4    1    9     -0.77      0.00 
   -3    1    9     -0.82      0.00 
   -2    1    9     -1.12      0.00 
   -1    1    9      1.18      0.00 
    0    1    9     -0.15      0.00 
    1    1    9      1.78      0.00 
    2    1    9     -4.44      0.00 
    3    1    9      0.07      0.00 
    4    1    9      1.56      0.00 
    5    1    9      0.49      0.00 
    6    1    9     -0.27      0.00 
    7    1    9     -0.67      0.00 
    8    1    9     -0.40      0.00 
    9    1    9      0.12      0.00 
   10    1    9      0.41      0.00 
   11    1    9     -0.45      0.00 
  -10    2    9      0.59      0.00 
   -9    2    9      0.07      0.00 
   -8    2    9     -0.05      0.00 
   -7    2    9      0.10      0.00 
   -6    2    9     -0.10      0.00 
   -5    2    9     -0.82      0.00 
   -4    2    9     -0.76      0.00 
   -3    2    9     -0.38      0.00 
   -2    2    9     -0.11      0.00 
   -1    2    9      2.18      0.00 
    0    2    9      0.42      0.00 
    1    2    9     -2.48      0.00 
    2    2    9     -2.57      0.00 
    3    2    9      1.35      0.00 
    4    2    9      2.32      0.00 
    5    2    9      0.02      0.00 
    6    2    9     -0.46      0.00 
    7    2    9     -0.33      0.00 
    8    2    9     -0.20      0.00 
    9    2    9      0.40      0.00 
   10    2    9      0.31      0.00 
   11    2    9     -0.23      0.00 
   -9    3    9     -0.11      0.00 
   -8    3    9     -0.14      0.00 
   -7    3    9     -0.41      0.00 
   -6    3    9     -0.46      0.00 
   -5    3    9     -0.60      0.00 
   -4    3    9     -0.32      0.00 
   -3    3    9      0.33      0.00 
   -2    3    9      0.10      0.00 
   -1    3    9      2.15      0.00 
    0    3    9      0.32      0.00 
    1    3    9     -4.60      0.00 
    2    3    9     -0.10      0.00 
    3    3    9      2.21      0.00 
    4    3    9      1.90      0.00 
    5    3    9     -0.26      0.00 
    6    3    9      0.03      0.00 
    7    3    9     -0.02      0.00 
    8    3    9     -0.04      0.00 
    9    3    9      0.42      0.00 
   10    3    9     -0.08      0.00 
   11    3    9      0.03      0.00 
   12    3    9     -0.59      0.00 
   -9    4    9     -0.25      0.00 
   -8    4    9     -0.29      0.00 
   -7    4    9     -0.77      0.00 
   -6    4    9     -0.59      0.00 
   -5    4    9     -0.31      0.00 
   -4    4    9      0.10      0.00 
   -3    4    9      0.95      0.00 
   -2    4    9     -0.60      0.00 
   -1    4    9      1.43      0.00 
    0    4    9     -0.03      0.00 
    1    4    9     -4.77      0.00 
    2    4    9      2.46      0.00 
    3    4    9      2.30      0.00 
    4    4    9      0.98      0.00 
    5    4    9     -0.32      0.00 
    6    4    9      0.31      0.00 
    7    4    9      0.10      0.00 
    8    4    9      0.33      0.00 
    9    4    9      0.14      0.00 
   10    4    9     -0.58      0.00 
   11    4    9      0.08      0.00 
   12    4    9     -0.18      0.00 
   -8    5    9      0.07      0.00 
   -7    5    9     -0.42      0.00 
   -6    5    9     -0.26      0.00 
   -5    5    9     -0.19      0.00 
   -4    5    9      0.57      0.00 
   -3    5    9      1.05      0.00 
   -2    5    9     -1.83      0.00 
   -1    5    9      0.17      0.00 
    0    5    9     -0.17      0.00 
    1    5    9     -3.09      0.00 
    2    5    9      3.78      0.00 
    3    5    9      1.25      0.00 
    4    5    9     -0.04      0.00 
    5    5    9     -0.49      0.00 
    6    5    9      0.23      0.00 
    7    5    9      0.21      0.00 
    8    5    9      0.73      0.00 
    9    5    9     -0.04      0.00 
   10    5    9     -0.67      0.00 
   11    5    9      0.30      0.00 
   12    5    9      0.58      0.00 
   -8    6    9      0.66      0.00 
   -7    6    9      0.23      0.00 
   -6    6    9      0.09      0.00 
   -5    6    9     -0.01      0.00 
   -4    6    9      0.82      0.00 
   -3    6    9      0.63      0.00 
   -2    6    9     -2.58      0.00 
   -1    6    9     -0.31      0.00 
    0    6    9      0.65      0.00 
    1    6    9     -1.17      0.00 
    2    6    9      2.77      0.00 
    3    6    9     -0.18      0.00 
    4    6    9     -0.69      0.00 
    5    6    9     -0.47      0.00 
    6    6    9      0.06      0.00 
    7    6    9      0.20      0.00 
    8    6    9      0.88      0.00 
    9    6    9      0.25      0.00 
   10    6    9     -0.24      0.00 
   11    6    9      0.20      0.00 
   -7    7    9      0.50      0.00 
   -6    7    9      0.11      0.00 
   -5    7    9      0.34      0.00 
   -4    7    9      0.85      0.00 
   -3    7    9      0.29      0.00 
   -2    7    9     -2.35      0.00 
   -1    7    9      0.32      0.00 
    0    7    9      1.33      0.00 
    1    7    9     -0.67      0.00 
    2    7    9      1.15      0.00 
    3    7    9     -0.88      0.00 
    4    7    9     -0.80      0.00 
    5    7    9     -0.29      0.00 
    6    7    9     -0.04      0.00 
    7    7    9      0.19      0.00 
    8    7    9      0.65      0.00 
    9    7    9      0.39      0.00 
   10    7    9     -0.02      0.00 
   11    7    9     -0.54      0.00 
   -7    8    9      0.41      0.00 
   -6    8    9     -0.13      0.00 
   -5    8    9      0.64      0.00 
   -4    8    9      0.78      0.00 
   -3    8    9     -0.07      0.00 
   -2    8    9     -1.77      0.00 
   -1    8    9      0.73      0.00 
    0    8    9      1.03      0.00 
    1    8    9     -0.82      0.00 
    2    8    9      0.62      0.00 
    3    8    9     -1.02      0.00 
    4    8    9     -0.60      0.00 
    5    8    9     -0.12      0.00 
    6    8    9      0.11      0.00 
    7    8    9      0.05      0.00 
    8    8    9     -0.09      0.00 
    9    8    9     -0.10      0.00 
   10    8    9      0.06      0.00 
   11    8    9     -0.89      0.00 
   -6    9    9     -0.42      0.00 
   -5    9    9      0.63      0.00 
   -4    9    9      0.29      0.00 
   -3    9    9     -0.33      0.00 
   -2    9    9     -1.08      0.00 
   -1    9    9      0.33      0.00 
    0    9    9      0.43      0.00 
    1    9    9     -0.85      0.00 
    2    9    9      0.41      0.00 
    3    9    9     -0.76      0.00 
    4    9    9     -0.20      0.00 
    5    9    9      0.12      0.00 
    6    9    9      0.16      0.00 
    7    9    9     -0.58      0.00 
    8    9    9     -0.74      0.00 
    9    9    9     -0.27      0.00 
   10    9    9      0.67      0.00 
   11    9    9     -0.45      0.00 
   -5   10    9      0.34      0.00 
   -4   10    9     -0.20      0.00 
   -3   10    9      0.29      0.00 
   -2   10    9     -0.52      0.00 
   -1   10    9     -0.25      0.00 
    0   10    9      0.04      0.00 
    1   10    9     -0.90      0.00 
    2   10    9      0.14      0.00 
    3   10    9      0.00      0.00 
    4   10    9      0.05      0.00 
    5   10    9      0.27      0.00 
    6   10    9     -0.12      0.00 
    7   10    9     -1.19      0.00 
    8   10    9     -0.61      0.00 
    9   10    9      0.43      0.00 
   10   10    9      1.31      0.00 
   -4   11    9      0.04      0.00 
   -3   11    9      0.87      0.00 
   -2   11    9     -0.53      0.00 
   -1   11    9     -0.20      0.00 
    0   11    9     -0.12      0.00 
    1   11    9     -0.71      0.00 
    2   11    9      0.08      0.00 
    3   11    9      0.35      0.00 
    4   11    9     -0.08      0.00 
    5   11    9      0.35      0.00 
    6   11    9     -0.02      0.00 
    7   11    9     -1.06      0.00 
    8   11    9     -0.25      0.00 
    9   11    9      1.05      0.00 
   10   11    9      1.16      0.00 
   -3   12    9      0.28      0.00 
   -2   12    9     -0.43      0.00 
   -1   12    9      0.48      0.00 
    0   12    9     -0.31      0.00 
    1   12    9     -0.52      0.00 
    2   12    9     -0.13      0.00 
    3   12    9      0.08      0.00 
    4   12    9     -0.07      0.00 
    5   12    9      0.58      0.00 
    6   12    9      0.66      0.00 
    7   12    9     -0.47      0.00 
    8   12    9     -0.53      0.00 
    9   12    9      0.88      0.00 
   -1   13    9      0.65      0.00 
    0   13    9     -0.80      0.00 
    1   13    9     -0.65      0.00 
    2   13    9     -0.20      0.00 
    3   13    9      0.17      0.00 
    4   13    9      0.09      0.00 
    5   13    9      0.63      0.00 
    6   13    9      0.99      0.00 
    7   13    9     -0.04      0.00 
    8   13    9     -1.06      0.00 
    1   14    9     -0.50      0.00 
    2   14    9      0.15      0.00 
    3   14    9      0.42      0.00 
    4   14    9     -0.13      0.00 
    5   14    9      0.28      0.00 
    6   14    9      0.58      0.00 
   -5  -12   10      0.37      0.00 
   -4  -12   10      0.09      0.00 
   -3  -12   10     -0.04      0.00 
   -2  -12   10     -0.11      0.00 
   -1  -12   10      0.31      0.00 
    0  -12   10     -0.04      0.00 
    1  -12   10      0.40      0.00 
    2  -12   10      0.35      0.00 
   -7  -11   10     -0.60      0.00 
   -6  -11   10      0.25      0.00 
   -5  -11   10      0.69      0.00 
   -4  -11   10     -0.14      0.00 
   -3  -11   10      0.05      0.00 
   -2  -11   10      0.21      0.00 
   -1  -11   10      0.68      0.00 
    0  -11   10      0.19      0.00 
    1  -11   10      0.20      0.00 
    2  -11   10     -0.19      0.00 
    3  -11   10     -0.33      0.00 
    4  -11   10     -0.08      0.00 
   -8  -10   10     -1.05      0.00 
   -7  -10   10     -1.12      0.00 
   -6  -10   10      0.08      0.00 
   -5  -10   10      0.39      0.00 
   -4  -10   10     -0.50      0.00 
   -3  -10   10      0.13      0.00 
   -2  -10   10      0.48      0.00 
   -1  -10   10      1.31      0.00 
    0  -10   10     -0.02      0.00 
    1  -10   10     -0.49      0.00 
    2  -10   10     -0.94      0.00 
    3  -10   10     -0.89      0.00 
    4  -10   10     -0.05      0.00 
    5  -10   10      0.84      0.00 
   -8   -9   10     -0.92      0.00 
   -7   -9   10     -0.97      0.00 
   -6   -9   10     -0.08      0.00 
   -5   -9   10     -0.37      0.00 
   -4   -9   10     -0.48      0.00 
   -3   -9   10      0.06      0.00 
   -2   -9   10      0.53      0.00 
   -1   -9   10      1.46      0.00 
    0   -9   10     -0.19      0.00 
    1   -9   10     -0.41      0.00 
    2   -9   10     -0.73      0.00 
    3   -9   10     -0.87      0.00 
    4   -9   10      0.32      0.00 
    5   -9   10      1.39      0.00 
    6   -9   10      0.17      0.00 
   -9   -8   10      0.46      0.00 
   -8   -8   10     -0.41      0.00 
   -7   -8   10     -0.51      0.00 
   -6   -8   10     -0.40      0.00 
   -5   -8   10     -0.63      0.00 
   -4   -8   10     -0.19      0.00 
   -3   -8   10      0.00      0.00 
   -2   -8   10      0.23      0.00 
   -1   -8   10      1.51      0.00 
    0   -8   10      1.06      0.00 
    1   -8   10      0.58      0.00 
    2   -8   10      0.30      0.00 
    3   -8   10     -0.61      0.00 
    4   -8   10      0.55      0.00 
    5   -8   10      1.15      0.00 
    6   -8   10     -0.14      0.00 
    7   -8   10     -0.51      0.00 
   -9   -7   10      0.30      0.00 
   -8   -7   10     -0.27      0.00 
   -7   -7   10     -0.29      0.00 
   -6   -7   10     -0.55      0.00 
   -5   -7   10     -0.18      0.00 
   -4   -7   10     -0.12      0.00 
   -3   -7   10      0.28      0.00 
   -2   -7   10     -0.04      0.00 
   -1   -7   10      2.05      0.00 
    0   -7   10      3.17      0.00 
    1   -7   10      1.19      0.00 
    2   -7   10      1.32      0.00 
    3   -7   10     -0.52      0.00 
    4   -7   10      0.47      0.00 
    5   -7   10      0.47      0.00 
    6   -7   10      0.09      0.00 
    7   -7   10      0.08      0.00 
    8   -7   10     -0.03      0.00 
  -10   -6   10     -0.23      0.00 
   -9   -6   10      0.06      0.00 
   -8   -6   10     -0.56      0.00 
   -7   -6   10     -0.28      0.00 
   -6   -6   10     -0.37      0.00 
   -5   -6   10      0.10      0.00 
   -4   -6   10     -0.16      0.00 
   -3   -6   10      0.73      0.00 
   -2   -6   10     -0.08      0.00 
   -1   -6   10      2.43      0.00 
    0   -6   10      5.22      0.00 
    1   -6   10      1.27      0.00 
    2   -6   10      1.94      0.00 
    3   -6   10     -0.71      0.00 
    4   -6   10      0.19      0.00 
    5   -6   10      0.35      0.00 
    6   -6   10      0.86      0.00 
    7   -6   10      0.75      0.00 
    8   -6   10      0.36      0.00 
  -10   -5   10      0.14      0.00 
   -9   -5   10     -0.26      0.00 
   -8   -5   10     -0.82      0.00 
   -7   -5   10     -0.53      0.00 
   -6   -5   10     -0.09      0.00 
   -5   -5   10     -0.11      0.00 
   -4   -5   10      0.01      0.00 
   -3   -5   10      0.76      0.00 
   -2   -5   10     -0.17      0.00 
   -1   -5   10      2.61      0.00 
    0   -5   10      7.84      0.00 
    1   -5   10      0.94      0.00 
    2   -5   10      1.84      0.00 
    3   -5   10     -1.21      0.00 
    4   -5   10      0.05      0.00 
    5   -5   10      0.92      0.00 
    6   -5   10      0.92      0.00 
    7   -5   10      0.78      0.00 
    8   -5   10      0.29      0.00 
    9   -5   10     -0.83      0.00 
  -10   -4   10      0.37      0.00 
   -9   -4   10     -0.68      0.00 
   -8   -4   10     -0.91      0.00 
   -7   -4   10     -0.77      0.00 
   -6   -4   10      0.17      0.00 
   -5   -4   10     -0.30      0.00 
   -4   -4   10      0.21      0.00 
   -3   -4   10      0.38      0.00 
   -2   -4   10     -0.49      0.00 
   -1   -4   10      3.21      0.00 
    0   -4   10     10.56      0.00 
    1   -4   10     -0.61      0.00 
    2   -4   10      1.40      0.00 
    3   -4   10     -1.47      0.00 
    4   -4   10      0.45      0.00 
    5   -4   10      1.39      0.00 
    6   -4   10      0.21      0.00 
    7   -4   10      0.61      0.00 
    8   -4   10      0.15      0.00 
    9   -4   10     -0.41      0.00 
   10   -4   10     -0.05      0.00 
  -10   -3   10      0.02      0.00 
   -9   -3   10     -0.78      0.00 
   -8   -3   10     -0.77      0.00 
   -7   -3   10     -0.42      0.00 
   -6   -3   10      0.25      0.00 
   -5   -3   10     -0.03      0.00 
   -4   -3   10      0.09      0.00 
   -3   -3   10     -0.09      0.00 
   -2   -3   10     -0.89      0.00 
   -1   -3   10      3.92      0.00 
    0   -3   10     11.47      0.00 
    1   -3   10     -3.26      0.00 
    2   -3   10      1.66      0.00 
    3   -3   10     -0.92      0.00 
    4   -3   10      1.33      0.00 
    5   -3   10      1.49      0.00 
    6   -3   10     -0.15      0.00 
    7   -3   10      0.49      0.00 
    8   -3   10      0.24      0.00 
    9   -3   10     -0.08      0.00 
   10   -3   10     -0.23      0.00 
  -10   -2   10     -0.10      0.00 
   -9   -2   10     -0.47      0.00 
   -8   -2   10     -0.33      0.00 
   -7   -2   10      0.23      0.00 
   -6   -2   10      0.13      0.00 
   -5   -2   10      0.48      0.00 
   -4   -2   10     -0.38      0.00 
   -3   -2   10     -0.37      0.00 
   -2   -2   10     -0.62      0.00 
   -1   -2   10      3.90      0.00 
    0   -2   10      9.64      0.00 
    1   -2   10     -5.79      0.00 
    2   -2   10      2.75      0.00 
    3   -2   10      0.11      0.00 
    4   -2   10      1.99      0.00 
    5   -2   10      1.31      0.00 
    6   -2   10     -0.24      0.00 
    7   -2   10      0.14      0.00 
    8   -2   10      0.34      0.00 
    9   -2   10     -0.25      0.00 
   10   -2   10     -0.01      0.00 
  -10   -1   10      0.14      0.00 
   -9   -1   10     -0.36      0.00 
   -8   -1   10      0.17      0.00 
   -7   -1   10      0.40      0.00 
   -6   -1   10      0.18      0.00 
   -5   -1   10      0.75      0.00 
   -4   -1   10     -0.55      0.00 
   -3   -1   10      0.05      0.00 
   -2   -1   10      0.62      0.00 
   -1   -1   10      2.57      0.00 
    0   -1   10      5.68      0.00 
    1   -1   10     -6.66      0.00 
    2   -1   10      4.04      0.00 
    3   -1   10      0.71      0.00 
    4   -1   10      1.52      0.00 
    5   -1   10      0.50      0.00 
    6   -1   10     -0.50      0.00 
    7   -1   10      0.01      0.00 
    8   -1   10      0.41      0.00 
    9   -1   10     -0.25      0.00 
   10   -1   10      0.21      0.00 
   11   -1   10      0.31      0.00 
  -10    0   10     -0.09      0.00 
   -9    0   10     -0.45      0.00 
   -8    0   10      0.35      0.00 
   -7    0   10      0.07      0.00 
   -6    0   10      0.32      0.00 
   -5    0   10      0.76      0.00 
   -4    0   10      0.09      0.00 
   -3    0   10      0.84      0.00 
   -2    0   10      1.38      0.00 
   -1    0   10      0.14      0.00 
    0    0   10      1.86      0.00 
    1    0   10     -4.55      0.00 
    2    0   10      4.65      0.00 
    3    0   10      0.23      0.00 
    4    0   10     -0.18      0.00 
    5    0   10     -0.50      0.00 
    6    0   10     -0.30      0.00 
    7    0   10      0.40      0.00 
    8    0   10      0.33      0.00 
    9    0   10     -0.10      0.00 
   10    0   10     -0.11      0.00 
   11    0   10      0.36      0.00 
  -10    1   10     -0.59      0.00 
   -9    1   10     -0.21      0.00 
   -8    1   10      0.10      0.00 
   -7    1   10     -0.22      0.00 
   -6    1   10      0.21      0.00 
   -5    1   10      0.86      0.00 
   -4    1   10      0.68      0.00 
   -3    1   10      0.93      0.00 
   -2    1   10      0.83      0.00 
   -1    1   10     -1.78      0.00 
    0    1   10      0.29      0.00 
    1    1   10     -0.51      0.00 
    2    1   10      3.81      0.00 
    3    1   10     -0.98      0.00 
    4    1   10     -1.74      0.00 
    5    1   10     -0.58      0.00 
    6    1   10      0.38      0.00 
    7    1   10      0.59      0.00 
    8    1   10      0.10      0.00 
    9    1   10     -0.20      0.00 
   10    1   10     -0.36      0.00 
   11    1   10      0.63      0.00 
   -9    2   10      0.11      0.00 
   -8    2   10     -0.21      0.00 
   -7    2   10     -0.16      0.00 
   -6    2   10      0.12      0.00 
   -5    2   10      0.86      0.00 
   -4    2   10      0.48      0.00 
   -3    2   10      0.38      0.00 
   -2    2   10      0.14      0.00 
   -1    2   10     -2.24      0.00 
    0    2   10      0.30      0.00 
    1    2   10      2.81      0.00 
    2    2   10      1.79      0.00 
    3    2   10     -1.94      0.00 
    4    2   10     -1.97      0.00 
    5    2   10     -0.06      0.00 
    6    2   10      0.43      0.00 
    7    2   10      0.31      0.00 
    8    2   10     -0.02      0.00 
    9    2   10     -0.43      0.00 
   10    2   10     -0.17      0.00 
   11    2   10      0.40      0.00 
   -9    3   10      0.14      0.00 
   -8    3   10     -0.12      0.00 
   -7    3   10      0.22      0.00 
   -6    3   10      0.31      0.00 
   -5    3   10      0.50      0.00 
   -4    3   10      0.05      0.00 
   -3    3   10     -0.22      0.00 
   -2    3   10      0.26      0.00 
   -1    3   10     -1.92      0.00 
    0    3   10      0.44      0.00 
    1    3   10      4.38      0.00 
    2    3   10     -0.70      0.00 
    3    3   10     -2.35      0.00 
    4    3   10     -1.31      0.00 
    5    3   10      0.15      0.00 
    6    3   10     -0.07      0.00 
    7    3   10      0.09      0.00 
    8    3   10     -0.19      0.00 
    9    3   10     -0.46      0.00 
   10    3   10      0.27      0.00 
   11    3   10      0.07      0.00 
   -9    4   10      0.14      0.00 
   -8    4   10      0.05      0.00 
   -7    4   10      0.46      0.00 
   -6    4   10      0.37      0.00 
   -5    4   10      0.16      0.00 
   -4    4   10     -0.28      0.00 
   -3    4   10     -0.74      0.00 
   -2    4   10      1.12      0.00 
   -1    4   10     -1.09      0.00 
    0    4   10      0.61      0.00 
    1    4   10      4.08      0.00 
    2    4   10     -3.10      0.00 
    3    4   10     -2.10      0.00 
    4    4   10     -0.36      0.00 
    5    4   10      0.23      0.00 
    6    4   10     -0.26      0.00 
    7    4   10     -0.08      0.00 
    8    4   10     -0.56      0.00 
    9    4   10     -0.19      0.00 
   10    4   10      0.70      0.00 
   11    4   10     -0.06      0.00 
   -8    5   10     -0.28      0.00 
   -7    5   10      0.14      0.00 
   -6    5   10      0.09      0.00 
   -5    5   10      0.02      0.00 
   -4    5   10     -0.64      0.00 
   -3    5   10     -0.80      0.00 
   -2    5   10      2.22      0.00 
   -1    5   10     -0.05      0.00 
    0    5   10      0.30      0.00 
    1    5   10      2.22      0.00 
    2    5   10     -3.89      0.00 
    3    5   10     -0.88      0.00 
    4    5   10      0.64      0.00 
    5    5   10      0.39      0.00 
    6    5   10     -0.15      0.00 
    7    5   10     -0.32      0.00 
    8    5   10     -0.79      0.00 
    9    5   10     -0.06      0.00 
   10    5   10      0.64      0.00 
   11    5   10     -0.29      0.00 
   -8    6   10     -0.73      0.00 
   -7    6   10     -0.38      0.00 
   -6    6   10     -0.11      0.00 
   -5    6   10     -0.14      0.00 
   -4    6   10     -0.74      0.00 
   -3    6   10     -0.40      0.00 
   -2    6   10      2.71      0.00 
   -1    6   10      0.04      0.00 
    0    6   10     -0.75      0.00 
    1    6   10      0.69      0.00 
    2    6   10     -2.51      0.00 
    3    6   10      0.53      0.00 
    4    6   10      1.14      0.00 
    5    6   10      0.31      0.00 
    6    6   10     -0.04      0.00 
    7    6   10     -0.40      0.00 
    8    6   10     -0.74      0.00 
    9    6   10     -0.39      0.00 
   10    6   10      0.16      0.00 
   11    6   10     -0.20      0.00 
   -7    7   10     -0.56      0.00 
   -6    7   10      0.03      0.00 
   -5    7   10     -0.37      0.00 
   -4    7   10     -0.55      0.00 
   -3    7   10     -0.06      0.00 
   -2    7   10      2.36      0.00 
   -1    7   10     -0.69      0.00 
    0    7   10     -1.23      0.00 
    1    7   10      0.57      0.00 
    2    7   10     -1.01      0.00 
    3    7   10      1.12      0.00 
    4    7   10      0.95      0.00 
    5    7   10      0.16      0.00 
    6    7   10      0.00      0.00 
    7    7   10     -0.38      0.00 
    8    7   10     -0.44      0.00 
    9    7   10     -0.47      0.00 
   10    7   10     -0.02      0.00 
   11    7   10      0.39      0.00 
   -6    8   10      0.32      0.00 
   -5    8   10     -0.49      0.00 
   -4    8   10     -0.25      0.00 
   -3    8   10      0.30      0.00 
   -2    8   10      1.72      0.00 
   -1    8   10     -0.99      0.00 
    0    8   10     -0.80      0.00 
    1    8   10      0.81      0.00 
    2    8   10     -0.55      0.00 
    3    8   10      1.11      0.00 
    4    8   10      0.45      0.00 
    5    8   10      0.09      0.00 
    6    8   10     -0.11      0.00 
    7    8   10     -0.15      0.00 
    8    8   10      0.16      0.00 
    9    8   10      0.04      0.00 
   10    8   10     -0.10      0.00 
   11    8   10      0.61      0.00 
   -6    9   10      0.50      0.00 
   -5    9   10     -0.39      0.00 
   -4    9   10      0.23      0.00 
   -3    9   10      0.38      0.00 
   -2    9   10      0.89      0.00 
   -1    9   10     -0.54      0.00 
    0    9   10     -0.31      0.00 
    1    9   10      0.96      0.00 
    2    9   10     -0.29      0.00 
    3    9   10      0.70      0.00 
    4    9   10     -0.09      0.00 
    5    9   10     -0.09      0.00 
    6    9   10     -0.08      0.00 
    7    9   10      0.48      0.00 
    8    9   10      0.59      0.00 
    9    9   10      0.17      0.00 
   10    9   10     -0.65      0.00 
   11    9   10      0.27      0.00 
   -5   10   10     -0.15      0.00 
   -4   10   10      0.43      0.00 
   -3   10   10     -0.36      0.00 
   -2   10   10      0.35      0.00 
   -1   10   10      0.04      0.00 
    0   10   10     -0.04      0.00 
    1   10   10      1.04      0.00 
    2   10   10     -0.09      0.00 
    3   10   10      0.01      0.00 
    4   10   10     -0.34      0.00 
    5   10   10     -0.29      0.00 
    6   10   10      0.07      0.00 
    7   10   10      1.01      0.00 
    8   10   10      0.38      0.00 
    9   10   10     -0.43      0.00 
   10   10   10     -1.09      0.00 
   -4   11   10      0.01      0.00 
   -3   11   10     -0.77      0.00 
   -2   11   10      0.52      0.00 
   -1   11   10     -0.04      0.00 
    0   11   10      0.09      0.00 
    1   11   10      0.64      0.00 
    2   11   10     -0.06      0.00 
    3   11   10     -0.13      0.00 
    4   11   10     -0.18      0.00 
    5   11   10     -0.49      0.00 
    6   11   10     -0.24      0.00 
    7   11   10      0.88      0.00 
    8   11   10      0.13      0.00 
    9   11   10     -0.84      0.00 
   10   11   10     -0.84      0.00 
   -3   12   10     -0.11      0.00 
   -2   12   10      0.47      0.00 
   -1   12   10     -0.66      0.00 
    0   12   10      0.34      0.00 
    1   12   10      0.25      0.00 
    2   12   10      0.21      0.00 
    3   12   10      0.10      0.00 
    4   12   10     -0.06      0.00 
    5   12   10     -0.70      0.00 
    6   12   10     -0.83      0.00 
    7   12   10      0.39      0.00 
    8   12   10      0.44      0.00 
    9   12   10     -0.65      0.00 
   -1   13   10     -0.68      0.00 
    0   13   10      0.83      0.00 
    1   13   10      0.30      0.00 
    2   13   10      0.25      0.00 
    3   13   10     -0.14      0.00 
    4   13   10      0.06      0.00 
    5   13   10     -0.58      0.00 
    6   13   10     -0.91      0.00 
    7   13   10     -0.01      0.00 
    8   13   10      0.86      0.00 
    1   14   10      0.20      0.00 
    2   14   10     -0.11      0.00 
    3   14   10     -0.36      0.00 
    4   14   10      0.42      0.00 
    5   14   10     -0.14      0.00 
    6   14   10     -0.45      0.00 
   -5  -12   11     -0.40      0.00 
   -4  -12   11     -0.10      0.00 
   -3  -12   11      0.14      0.00 
   -2  -12   11      0.34      0.00 
   -1  -12   11     -0.21      0.00 
    0  -12   11     -0.24      0.00 
    1  -12   11     -0.35      0.00 
   -6  -11   11     -0.12      0.00 
   -5  -11   11     -0.46      0.00 
   -4  -11   11      0.35      0.00 
   -3  -11   11      0.09      0.00 
   -2  -11   11      0.00      0.00 
   -1  -11   11     -0.71      0.00 
    0  -11   11     -0.49      0.00 
    1  -11   11     -0.04      0.00 
    2  -11   11      0.26      0.00 
    3  -11   11      0.51      0.00 
   -7  -10   11      1.08      0.00 
   -6  -10   11      0.15      0.00 
   -5  -10   11      0.08      0.00 
   -4  -10   11      0.85      0.00 
   -3  -10   11     -0.08      0.00 
   -2  -10   11     -0.49      0.00 
   -1  -10   11     -1.36      0.00 
    0  -10   11     -0.19      0.00 
    1  -10   11      0.64      0.00 
    2  -10   11      0.87      0.00 
    3  -10   11      0.97      0.00 
    4  -10   11     -0.01      0.00 
    5  -10   11     -1.09      0.00 
   -8   -9   11      0.65      0.00 
   -7   -9   11      0.78      0.00 
   -6   -9   11      0.40      0.00 
   -5   -9   11      0.81      0.00 
   -4   -9   11      0.80      0.00 
   -3   -9   11     -0.22      0.00 
   -2   -9   11     -0.69      0.00 
   -1   -9   11     -1.48      0.00 
    0   -9   11      0.00      0.00 
    1   -9   11      0.42      0.00 
    2   -9   11      0.50      0.00 
    3   -9   11      0.85      0.00 
    4   -9   11     -0.43      0.00 
    5   -9   11     -1.64      0.00 
    6   -9   11     -0.05      0.00 
   -8   -8   11      0.28      0.00 
   -7   -8   11      0.45      0.00 
   -6   -8   11      0.67      0.00 
   -5   -8   11      0.82      0.00 
   -4   -8   11      0.40      0.00 
   -3   -8   11     -0.22      0.00 
   -2   -8   11     -0.33      0.00 
   -1   -8   11     -1.54      0.00 
    0   -8   11     -1.20      0.00 
    1   -8   11     -0.57      0.00 
    2   -8   11     -0.56      0.00 
    3   -8   11      0.57      0.00 
    4   -8   11     -0.52      0.00 
    5   -8   11     -1.28      0.00 
    6   -8   11      0.22      0.00 
    7   -8   11      0.23      0.00 
   -9   -7   11     -0.20      0.00 
   -8   -7   11      0.38      0.00 
   -7   -7   11      0.48      0.00 
   -6   -7   11      0.66      0.00 
   -5   -7   11      0.17      0.00 
   -4   -7   11      0.29      0.00 
   -3   -7   11     -0.32      0.00 
   -2   -7   11      0.09      0.00 
   -1   -7   11     -2.08      0.00 
    0   -7   11     -3.09      0.00 
    1   -7   11     -0.99      0.00 
    2   -7   11     -1.42      0.00 
    3   -7   11      0.57      0.00 
    4   -7   11     -0.30      0.00 
    5   -7   11     -0.62      0.00 
    6   -7   11     -0.19      0.00 
    7   -7   11     -0.34      0.00 
    8   -7   11      0.02      0.00 
   -9   -6   11      0.05      0.00 
   -8   -6   11      0.82      0.00 
   -7   -6   11      0.63      0.00 
   -6   -6   11      0.34      0.00 
   -5   -6   11     -0.21      0.00 
   -4   -6   11      0.33      0.00 
   -3   -6   11     -0.57      0.00 
   -2   -6   11      0.22      0.00 
   -1   -6   11     -2.45      0.00 
    0   -6   11     -4.81      0.00 
    1   -6   11     -0.77      0.00 
    2   -6   11     -1.72      0.00 
    3   -6   11      0.85      0.00 
    4   -6   11     -0.18      0.00 
    5   -6   11     -0.59      0.00 
    6   -6   11     -0.94      0.00 
    7   -6   11     -0.81      0.00 
    8   -6   11     -0.27      0.00 
   -9   -5   11      0.45      0.00 
   -8   -5   11      0.99      0.00 
   -7   -5   11      0.81      0.00 
   -6   -5   11     -0.01      0.00 
   -5   -5   11     -0.04      0.00 
   -4   -5   11      0.06      0.00 
   -3   -5   11     -0.62      0.00 
   -2   -5   11      0.32      0.00 
   -1   -5   11     -2.46      0.00 
    0   -5   11     -6.93      0.00 
    1   -5   11     -0.12      0.00 
    2   -5   11     -1.38      0.00 
    3   -5   11      1.20      0.00 
    4   -5   11     -0.38      0.00 
    5   -5   11     -1.01      0.00 
    6   -5   11     -0.83      0.00 
    7   -5   11     -0.66      0.00 
    8   -5   11     -0.16      0.00 
    9   -5   11      0.90      0.00 
  -10   -4   11     -0.04      0.00 
   -9   -4   11      0.85      0.00 
   -8   -4   11      0.78      0.00 
   -7   -4   11      0.79      0.00 
   -6   -4   11     -0.26      0.00 
   -5   -4   11      0.17      0.00 
   -4   -4   11     -0.29      0.00 
   -3   -4   11     -0.39      0.00 
   -2   -4   11      0.68      0.00 
   -1   -4   11     -2.66      0.00 
    0   -4   11     -8.96      0.00 
    1   -4   11      1.55      0.00 
    2   -4   11     -1.11      0.00 
    3   -4   11      1.23      0.00 
    4   -4   11     -1.03      0.00 
    5   -4   11     -1.25      0.00 
    6   -4   11     -0.02      0.00 
    7   -4   11     -0.42      0.00 
    8   -4   11     -0.12      0.00 
    9   -4   11      0.45      0.00 
  -10   -3   11      0.23      0.00 
   -9   -3   11      0.79      0.00 
   -8   -3   11      0.36      0.00 
   -7   -3   11      0.19      0.00 
   -6   -3   11     -0.26      0.00 
   -5   -3   11      0.00      0.00 
   -4   -3   11     -0.20      0.00 
   -3   -3   11     -0.02      0.00 
   -2   -3   11      1.10      0.00 
   -1   -3   11     -3.00      0.00 
    0   -3   11     -9.16      0.00 
    1   -3   11      3.85      0.00 
    2   -3   11     -1.81      0.00 
    3   -3   11      0.66      0.00 
    4   -3   11     -1.98      0.00 
    5   -3   11     -1.23      0.00 
    6   -3   11      0.38      0.00 
    7   -3   11     -0.29      0.00 
    8   -3   11     -0.32      0.00 
    9   -3   11      0.17      0.00 
   10   -3   11      0.12      0.00 
  -10   -2   11      0.14      0.00 
   -9   -2   11      0.44      0.00 
   -8   -2   11     -0.13      0.00 
   -7   -2   11     -0.50      0.00 
   -6   -2   11     -0.15      0.00 
   -5   -2   11     -0.43      0.00 
   -4   -2   11      0.31      0.00 
   -3   -2   11      0.09      0.00 
   -2   -2   11      0.73      0.00 
   -1   -2   11     -2.78      0.00 
    0   -2   11     -6.97      0.00 
    1   -2   11      5.43      0.00 
    2   -2   11     -3.21      0.00 
    3   -2   11     -0.11      0.00 
    4   -2   11     -2.46      0.00 
    5   -2   11     -0.91      0.00 
    6   -2   11      0.47      0.00 
    7   -2   11      0.01      0.00 
    8   -2   11     -0.44      0.00 
    9   -2   11      0.36      0.00 
   10   -2   11     -0.16      0.00 
  -10   -1   11     -0.15      0.00 
   -9   -1   11      0.41      0.00 
   -8   -1   11     -0.50      0.00 
   -7   -1   11     -0.54      0.00 
   -6   -1   11     -0.37      0.00 
   -5   -1   11     -0.67      0.00 
   -4   -1   11      0.42      0.00 
   -3   -1   11     -0.46      0.00 
   -2   -1   11     -0.44      0.00 
   -1   -1   11     -1.42      0.00 
    0   -1   11     -3.54      0.00 
    1   -1   11      5.17      0.00 
    2   -1   11     -4.30      0.00 
    3   -1   11     -0.31      0.00 
    4   -1   11     -1.54      0.00 
    5   -1   11     -0.03      0.00 
    6   -1   11      0.56      0.00 
    7   -1   11      0.13      0.00 
    8   -1   11     -0.38      0.00 
    9   -1   11      0.39      0.00 
   10   -1   11     -0.27      0.00 
   11   -1   11     -0.18      0.00 
   -9    0   11      0.47      0.00 
   -8    0   11     -0.43      0.00 
   -7    0   11     -0.10      0.00 
   -6    0   11     -0.64      0.00 
   -5    0   11     -0.71      0.00 
   -4    0   11     -0.21      0.00 
   -3    0   11     -1.07      0.00 
   -2    0   11     -1.01      0.00 
   -1    0   11      0.66      0.00 
    0    0   11     -1.01      0.00 
    1    0   11      2.72      0.00 
    2    0   11     -4.33      0.00 
    3    0   11      0.45      0.00 
    4    0   11      0.43      0.00 
    5    0   11      0.71      0.00 
    6    0   11      0.16      0.00 
    7    0   11     -0.15      0.00 
    8    0   11     -0.19      0.00 
    9    0   11      0.25      0.00 
   10    0   11      0.09      0.00 
   11    0   11     -0.35      0.00 
   -9    1   11      0.15      0.00 
   -8    1   11      0.10      0.00 
   -7    1   11      0.24      0.00 
   -6    1   11     -0.45      0.00 
   -5    1   11     -0.79      0.00 
   -4    1   11     -0.62      0.00 
   -3    1   11     -0.92      0.00 
   -2    1   11     -0.54      0.00 
   -1    1   11      1.92      0.00 
    0    1   11     -0.44      0.00 
    1    1   11     -0.62      0.00 
    2    1   11     -3.01      0.00 
    3    1   11      1.55      0.00 
    4    1   11      1.75      0.00 
    5    1   11      0.51      0.00 
    6    1   11     -0.43      0.00 
    7    1   11     -0.28      0.00 
    8    1   11     -0.01      0.00 
    9    1   11      0.31      0.00 
   10    1   11      0.23      0.00 
   11    1   11     -0.64      0.00 
   -9    2   11     -0.10      0.00 
   -8    2   11      0.58      0.00 
   -7    2   11      0.22      0.00 
   -6    2   11     -0.16      0.00 
   -5    2   11     -0.73      0.00 
   -4    2   11     -0.30      0.00 
   -3    2   11     -0.39      0.00 
   -2    2   11     -0.19      0.00 
   -1    2   11      1.94      0.00 
    0    2   11     -0.66      0.00 
    1    2   11     -3.09      0.00 
    2    2   11     -0.80      0.00 
    3    2   11      2.06      0.00 
    4    2   11      1.66      0.00 
    5    2   11     -0.03      0.00 
    6    2   11     -0.33      0.00 
    7    2   11     -0.16      0.00 
    8    2   11      0.06      0.00 
    9    2   11      0.47      0.00 
   10    2   11     -0.09      0.00 
   11    2   11     -0.36      0.00 
   -9    3   11     -0.03      0.00 
   -8    3   11      0.50      0.00 
   -7    3   11     -0.09      0.00 
   -6    3   11     -0.19      0.00 
   -5    3   11     -0.36      0.00 
   -4    3   11      0.06      0.00 
   -3    3   11      0.09      0.00 
   -2    3   11     -0.57      0.00 
   -1    3   11      1.51      0.00 
    0    3   11     -0.78      0.00 
    1    3   11     -4.10      0.00 
    2    3   11      1.69      0.00 
    3    3   11      1.98      0.00 
    4    3   11      0.94      0.00 
    5    3   11     -0.23      0.00 
    6    3   11      0.13      0.00 
    7    3   11     -0.13      0.00 
    8    3   11      0.30      0.00 
    9    3   11      0.41      0.00 
   10    3   11     -0.60      0.00 
   11    3   11     -0.02      0.00 
   -8    4   11      0.30      0.00 
   -7    4   11     -0.27      0.00 
   -6    4   11     -0.19      0.00 
   -5    4   11     -0.03      0.00 
   -4    4   11      0.29      0.00 
   -3    4   11      0.57      0.00 
   -2    4   11     -1.46      0.00 
   -1    4   11      0.79      0.00 
    0    4   11     -0.81      0.00 
    1    4   11     -3.38      0.00 
    2    4   11      3.71      0.00 
    3    4   11      1.34      0.00 
    4    4   11      0.01      0.00 
    5    4   11     -0.38      0.00 
    6    4   11      0.26      0.00 
    7    4   11     -0.01      0.00 
    8    4   11      0.73      0.00 
    9    4   11      0.03      0.00 
   10    4   11     -0.93      0.00 
   11    4   11      0.14      0.00 
   -8    5   11      0.52      0.00 
   -7    5   11     -0.03      0.00 
   -6    5   11      0.06      0.00 
   -5    5   11      0.08      0.00 
   -4    5   11      0.58      0.00 
   -3    5   11      0.61      0.00 
   -2    5   11     -2.38      0.00 
   -1    5   11      0.09      0.00 
    0    5   11     -0.20      0.00 
    1    5   11     -1.55      0.00 
    2    5   11      3.83      0.00 
    3    5   11     -0.01      0.00 
    4    5   11     -0.93      0.00 
    5    5   11     -0.44      0.00 
    6    5   11      0.25      0.00 
    7    5   11      0.24      0.00 
    8    5   11      0.88      0.00 
    9    5   11     -0.11      0.00 
   10    5   11     -0.68      0.00 
   11    5   11      0.41      0.00 
   -8    6   11      0.81      0.00 
   -7    6   11      0.31      0.00 
   -6    6   11      0.15      0.00 
   -5    6   11      0.13      0.00 
   -4    6   11      0.58      0.00 
   -3    6   11      0.17      0.00 
   -2    6   11     -2.64      0.00 
   -1    6   11      0.26      0.00 
    0    6   11      0.84      0.00 
    1    6   11     -0.48      0.00 
    2    6   11      2.20      0.00 
    3    6   11     -1.20      0.00 
    4    6   11     -1.21      0.00 
    5    6   11     -0.18      0.00 
    6    6   11      0.28      0.00 
    7    6   11      0.29      0.00 
    8    6   11      0.71      0.00 
    9    6   11      0.23      0.00 
   10    6   11     -0.16      0.00 
   11    6   11      0.39      0.00 
   -7    7   11      0.39      0.00 
   -6    7   11     -0.10      0.00 
   -5    7   11      0.15      0.00 
   -4    7   11      0.22      0.00 
   -3    7   11     -0.24      0.00 
   -2    7   11     -2.19      0.00 
   -1    7   11      0.93      0.00 
    0    7   11      1.04      0.00 
    1    7   11     -0.59      0.00 
    2    7   11      0.92      0.00 
    3    7   11     -1.47      0.00 
    4    7   11     -0.76      0.00 
    5    7   11     -0.02      0.00 
    6    7   11      0.25      0.00 
    7    7   11      0.16      0.00 
    8    7   11      0.41      0.00 
    9    7   11      0.28      0.00 
   10    7   11     -0.08      0.00 
   11    7   11     -0.03      0.00 
   -6    8   11     -0.39      0.00 
   -5    8   11      0.10      0.00 
   -4    8   11     -0.16      0.00 
   -3    8   11     -0.57      0.00 
   -2    8   11     -1.43      0.00 
   -1    8   11      1.08      0.00 
    0    8   11      0.55      0.00 
    1    8   11     -0.78      0.00 
    2    8   11      0.51      0.00 
    3    8   11     -1.18      0.00 
    4    8   11     -0.17      0.00 
    5    8   11     -0.05      0.00 
    6    8   11      0.17      0.00 
    7    8   11     -0.11      0.00 
    8    8   11     -0.02      0.00 
    9    8   11     -0.17      0.00 
   10    8   11     -0.07      0.00 
   11    8   11     -0.14      0.00 
   -6    9   11     -0.45      0.00 
   -5    9   11     -0.02      0.00 
   -4    9   11     -0.48      0.00 
   -3    9   11     -0.44      0.00 
   -2    9   11     -0.47      0.00 
   -1    9   11      0.63      0.00 
    0    9   11      0.20      0.00 
    1    9   11     -0.98      0.00 
    2    9   11      0.14      0.00 
    3    9   11     -0.59      0.00 
    4    9   11      0.29      0.00 
    5    9   11      0.08      0.00 
    6    9   11      0.00      0.00 
    7    9   11     -0.56      0.00 
    8    9   11     -0.22      0.00 
    9    9   11     -0.23      0.00 
   10    9   11      0.33      0.00 
   11    9   11      0.04      0.00 
   -5   10   11     -0.12      0.00 
   -4   10   11     -0.41      0.00 
   -3   10   11      0.35      0.00 
   -2   10   11     -0.01      0.00 
   -1   10   11      0.12      0.00 
    0   10   11      0.04      0.00 
    1   10   11     -1.03      0.00 
    2   10   11      0.01      0.00 
    3   10   11     -0.02      0.00 
    4   10   11      0.43      0.00 
    5   10   11      0.31      0.00 
    6   10   11     -0.04      0.00 
    7   10   11     -0.84      0.00 
    8   10   11      0.02      0.00 
    9   10   11      0.25      0.00 
   10   10   11      0.55      0.00 
   -4   11   11      0.05      0.00 
   -3   11   11      0.63      0.00 
   -2   11   11     -0.37      0.00 
   -1   11   11      0.29      0.00 
    0   11   11     -0.03      0.00 
    1   11   11     -0.44      0.00 
    2   11   11      0.03      0.00 
    3   11   11     -0.09      0.00 
    4   11   11      0.25      0.00 
    5   11   11      0.53      0.00 
    6   11   11      0.38      0.00 
    7   11   11     -0.70      0.00 
    8   11   11      0.14      0.00 
    9   11   11      0.47      0.00 
   -2   12   11     -0.42      0.00 
   -1   12   11      0.85      0.00 
    0   12   11     -0.27      0.00 
    1   12   11      0.00      0.00 
    2   12   11     -0.26      0.00 
    3   12   11     -0.29      0.00 
    4   12   11      0.05      0.00 
    5   12   11      0.62      0.00 
    6   12   11      0.80      0.00 
    7   12   11     -0.30      0.00 
    8   12   11     -0.19      0.00 
    9   12   11      0.36      0.00 
   -1   13   11      0.71      0.00 
    0   13   11     -0.68      0.00 
    1   13   11     -0.13      0.00 
    2   13   11     -0.25      0.00 
    3   13   11      0.03      0.00 
    4   13   11     -0.23      0.00 
    5   13   11      0.38      0.00 
    6   13   11      0.68      0.00 
    7   13   11      0.07      0.00 
    2   14   11      0.13      0.00 
    3   14   11      0.23      0.00 
    4   14   11     -0.57      0.00 
    5   14   11      0.02      0.00 
   -4  -12   12      0.00      0.00 
   -3  -12   12     -0.21      0.00 
   -2  -12   12     -0.57      0.00 
   -1  -12   12      0.29      0.00 
    0  -12   12      0.25      0.00 
    1  -12   12      0.33      0.00 
   -6  -11   12     -0.14      0.00 
   -5  -11   12      0.11      0.00 
   -4  -11   12     -0.56      0.00 
   -3  -11   12     -0.22      0.00 
   -2  -11   12     -0.25      0.00 
   -1  -11   12      0.88      0.00 
    0  -11   12      0.40      0.00 
    1  -11   12     -0.04      0.00 
    2  -11   12     -0.31      0.00 
    3  -11   12     -0.52      0.00 
   -7  -10   12     -0.85      0.00 
   -6  -10   12     -0.42      0.00 
   -5  -10   12     -0.59      0.00 
   -4  -10   12     -1.03      0.00 
   -3  -10   12      0.07      0.00 
   -2  -10   12      0.38      0.00 
   -1  -10   12      1.54      0.00 
    0  -10   12      0.04      0.00 
    1  -10   12     -0.57      0.00 
    2  -10   12     -0.74      0.00 
    3  -10   12     -0.76      0.00 
    4  -10   12      0.08      0.00 
   -8   -9   12     -0.38      0.00 
   -7   -9   12     -0.43      0.00 
   -6   -9   12     -0.65      0.00 
   -5   -9   12     -1.19      0.00 
   -4   -9   12     -0.83      0.00 
   -3   -9   12      0.44      0.00 
   -2   -9   12      0.72      0.00 
   -1   -9   12      1.64      0.00 
    0   -9   12     -0.08      0.00 
    1   -9   12     -0.23      0.00 
    2   -9   12     -0.28      0.00 
    3   -9   12     -0.58      0.00 
    4   -9   12      0.41      0.00 
    5   -9   12      1.57      0.00 
    6   -9   12     -0.17      0.00 
   -8   -8   12     -0.20      0.00 
   -7   -8   12     -0.23      0.00 
   -6   -8   12     -0.79      0.00 
   -5   -8   12     -0.97      0.00 
   -4   -8   12     -0.31      0.00 
   -3   -8   12      0.48      0.00 
   -2   -8   12      0.38      0.00 
   -1   -8   12      1.63      0.00 
    0   -8   12      1.07      0.00 
    1   -8   12      0.59      0.00 
    2   -8   12      0.68      0.00 
    3   -8   12     -0.44      0.00 
    4   -8   12      0.27      0.00 
    5   -8   12      1.08      0.00 
    6   -8   12     -0.32      0.00 
    7   -8   12      0.01      0.00 
   -9   -7   12      0.19      0.00 
   -8   -7   12     -0.54      0.00 
   -7   -7   12     -0.45      0.00 
   -6   -7   12     -0.60      0.00 
   -5   -7   12     -0.22      0.00 
   -4   -7   12     -0.19      0.00 
   -3   -7   12      0.35      0.00 
   -2   -7   12     -0.09      0.00 
   -1   -7   12      2.01      0.00 
    0   -7   12      2.75      0.00 
    1   -7   12      0.68      0.00 
    2   -7   12      1.37      0.00 
    3   -7   12     -0.63      0.00 
    4   -7   12     -0.01      0.00 
    5   -7   12      0.54      0.00 
    6   -7   12      0.25      0.00 
    7   -7   12      0.44      0.00 
   -9   -6   12      0.02      0.00 
   -8   -6   12     -1.08      0.00 
   -7   -6   12     -0.69      0.00 
   -6   -6   12     -0.17      0.00 
   -5   -6   12      0.19      0.00 
   -4   -6   12     -0.25      0.00 
   -3   -6   12      0.36      0.00 
   -2   -6   12     -0.22      0.00 
   -1   -6   12      2.20      0.00 
    0   -6   12      4.22      0.00 
    1   -6   12      0.18      0.00 
    2   -6   12      1.51      0.00 
    3   -6   12     -0.89      0.00 
    4   -6   12      0.12      0.00 
    5   -6   12      0.63      0.00 
    6   -6   12      0.95      0.00 
    7   -6   12      0.66      0.00 
    8   -6   12      0.17      0.00 
   -9   -5   12     -0.33      0.00 
   -8   -5   12     -1.10      0.00 
   -7   -5   12     -0.77      0.00 
   -6   -5   12      0.22      0.00 
   -5   -5   12      0.07      0.00 
   -4   -5   12      0.05      0.00 
   -3   -5   12      0.41      0.00 
   -2   -5   12     -0.29      0.00 
   -1   -5   12      2.01      0.00 
    0   -5   12      5.99      0.00 
    1   -5   12     -0.66      0.00 
    2   -5   12      1.12      0.00 
    3   -5   12     -0.97      0.00 
    4   -5   12      0.59      0.00 
    5   -5   12      0.93      0.00 
    6   -5   12      0.66      0.00 
    7   -5   12      0.36      0.00 
    8   -5   12      0.01      0.00 
    9   -5   12     -0.76      0.00 
   -9   -4   12     -0.59      0.00 
   -8   -4   12     -0.58      0.00 
   -7   -4   12     -0.52      0.00 
   -6   -4   12      0.41      0.00 
   -5   -4   12     -0.10      0.00 
   -4   -4   12      0.43      0.00 
   -3   -4   12      0.32      0.00 
   -2   -4   12     -0.70      0.00 
   -1   -4   12      1.97      0.00 
    0   -4   12      7.50      0.00 
    1   -4   12     -2.30      0.00 
    2   -4   12      0.97      0.00 
    3   -4   12     -0.74      0.00 
    4   -4   12      1.30      0.00 
    5   -4   12      1.03      0.00 
    6   -4   12     -0.22      0.00 
    7   -4   12      0.11      0.00 
    8   -4   12     -0.01      0.00 
    9   -4   12     -0.35      0.00 
   -9   -3   12     -0.37      0.00 
   -8   -3   12      0.04      0.00 
   -7   -3   12      0.22      0.00 
   -6   -3   12      0.27      0.00 
   -5   -3   12      0.05      0.00 
   -4   -3   12      0.26      0.00 
   -3   -3   12      0.13      0.00 
   -2   -3   12     -1.15      0.00 
   -1   -3   12      2.11      0.00 
    0   -3   12      7.22      0.00 
    1   -3   12     -4.15      0.00 
    2   -3   12      1.85      0.00 
    3   -3   12     -0.21      0.00 
    4   -3   12      2.20      0.00 
    5   -3   12      0.95      0.00 
    6   -3   12     -0.65      0.00 
    7   -3   12      0.05      0.00 
    8   -3   12      0.24      0.00 
    9   -3   12     -0.16      0.00 
   10   -3   12      0.09      0.00 
   -9   -2   12     -0.07      0.00 
   -8   -2   12      0.49      0.00 
   -7   -2   12      0.83      0.00 
   -6   -2   12      0.13      0.00 
   -5   -2   12      0.43      0.00 
   -4   -2   12     -0.36      0.00 
   -3   -2   12      0.26      0.00 
   -2   -2   12     -0.79      0.00 
   -1   -2   12      1.81      0.00 
    0   -2   12      4.94      0.00 
    1   -2   12     -4.81      0.00 
    2   -2   12      3.26      0.00 
    3   -2   12      0.27      0.00 
    4   -2   12      2.53      0.00 
    5   -2   12      0.51      0.00 
    6   -2   12     -0.70      0.00 
    7   -2   12     -0.12      0.00 
    8   -2   12      0.34      0.00 
    9   -2   12     -0.37      0.00 
   10   -2   12      0.40      0.00 
   -9   -1   12     -0.20      0.00 
   -8   -1   12      0.64      0.00 
   -7   -1   12      0.71      0.00 
   -6   -1   12      0.44      0.00 
   -5   -1   12      0.65      0.00 
   -4   -1   12     -0.49      0.00 
   -3   -1   12      0.90      0.00 
   -2   -1   12      0.22      0.00 
   -1   -1   12      0.52      0.00 
    0   -1   12      2.19      0.00 
    1   -1   12     -3.66      0.00 
    2   -1   12      4.11      0.00 
    3   -1   12      0.09      0.00 
    4   -1   12      1.41      0.00 
    5   -1   12     -0.38      0.00 
    6   -1   12     -0.57      0.00 
    7   -1   12     -0.17      0.00 
    8   -1   12      0.21      0.00 
    9   -1   12     -0.37      0.00 
   10   -1   12      0.37      0.00 
   11   -1   12     -0.04      0.00 
   -9    0   12     -0.31      0.00 
   -8    0   12      0.31      0.00 
   -7    0   12      0.17      0.00 
   -6    0   12      0.78      0.00 
   -5    0   12      0.67      0.00 
   -4    0   12      0.08      0.00 
   -3    0   12      1.28      0.00 
   -2    0   12      0.65      0.00 
   -1    0   12     -1.14      0.00 
    0    0   12      0.76      0.00 
    1    0   12     -1.15      0.00 
    2    0   12      3.76      0.00 
    3    0   12     -0.94      0.00 
    4    0   12     -0.47      0.00 
    5    0   12     -0.88      0.00 
    6    0   12     -0.03      0.00 
    7    0   12      0.04      0.00 
    8    0   12     -0.04      0.00 
    9    0   12     -0.20      0.00 
   10    0   12     -0.09      0.00 
   11    0   12      0.25      0.00 
   -9    1   12     -0.04      0.00 
   -8    1   12     -0.45      0.00 
   -7    1   12     -0.21      0.00 
   -6    1   12      0.53      0.00 
   -5    1   12      0.72      0.00 
   -4    1   12      0.36      0.00 
   -3    1   12      0.92      0.00 
   -2    1   12      0.38      0.00 
   -1    1   12     -1.83      0.00 
    0    1   12      0.79      0.00 
    1    1   12      1.44      0.00 
    2    1   12      2.20      0.00 
    3    1   12     -1.98      0.00 
    4    1   12     -1.37      0.00 
    5    1   12     -0.50      0.00 
    6    1   12      0.42      0.00 
    7    1   12      0.14      0.00 
    8    1   12     -0.17      0.00 
    9    1   12     -0.19      0.00 
   10    1   12     -0.20      0.00 
   11    1   12      0.60      0.00 
   -9    2   12      0.05      0.00 
   -8    2   12     -0.97      0.00 
   -7    2   12     -0.23      0.00 
   -6    2   12      0.14      0.00 
   -5    2   12      0.64      0.00 
   -4    2   12      0.03      0.00 
   -3    2   12      0.45      0.00 
   -2    2   12      0.36      0.00 
   -1    2   12     -1.56      0.00 
    0    2   12      1.00      0.00 
    1    2   12      3.13      0.00 
    2    2   12     -0.05      0.00 
    3    2   12     -2.17      0.00 
    4    2   12     -1.01      0.00 
    5    2   12     -0.02      0.00 
    6    2   12      0.22      0.00 
    7    2   12      0.18      0.00 
    8    2   12     -0.18      0.00 
    9    2   12     -0.25      0.00 
   10    2   12      0.25      0.00 
   11    2   12      0.39      0.00 
   -9    3   12     -0.14      0.00 
   -8    3   12     -0.80      0.00 
   -7    3   12      0.00      0.00 
   -6    3   12      0.11      0.00 
   -5    3   12      0.32      0.00 
   -4    3   12     -0.21      0.00 
   -3    3   12      0.09      0.00 
   -2    3   12      0.85      0.00 
   -1    3   12     -1.14      0.00 
    0    3   12      0.98      0.00 
    1    3   12      3.60      0.00 
    2    3   12     -2.38      0.00 
    3    3   12     -1.67      0.00 
    4    3   12     -0.28      0.00 
    5    3   12      0.18      0.00 
    6    3   12     -0.09      0.00 
    7    3   12      0.27      0.00 
    8    3   12     -0.40      0.00 
    9    3   12     -0.05      0.00 
   10    3   12      0.86      0.00 
   11    3   12      0.15      0.00 
   -8    4   12     -0.47      0.00 
   -7    4   12      0.11      0.00 
   -6    4   12      0.07      0.00 
   -5    4   12      0.03      0.00 
   -4    4   12     -0.37      0.00 
   -3    4   12     -0.38      0.00 
   -2    4   12      1.64      0.00 
   -1    4   12     -0.60      0.00 
    0    4   12      0.78      0.00 
    1    4   12      2.60      0.00 
    2    4   12     -3.78      0.00 
    3    4   12     -0.69      0.00 
    4    4   12      0.58      0.00 
    5    4   12      0.34      0.00 
    6    4   12     -0.12      0.00 
    7    4   12      0.09      0.00 
    8    4   12     -0.72      0.00 
    9    4   12      0.35      0.00 
   10    4   12      1.14      0.00 
   11    4   12     -0.02      0.00 
   -8    5   12     -0.53      0.00 
   -7    5   12     -0.07      0.00 
   -6    5   12     -0.14      0.00 
   -5    5   12     -0.04      0.00 
   -4    5   12     -0.60      0.00 
   -3    5   12     -0.44      0.00 
   -2    5   12      2.38      0.00 
   -1    5   12     -0.22      0.00 
    0    5   12     -0.01      0.00 
    1    5   12      1.02      0.00 
    2    5   12     -3.19      0.00 
    3    5   12      0.66      0.00 
    4    5   12      1.36      0.00 
    5    5   12      0.19      0.00 
    6    5   12     -0.22      0.00 
    7    5   12     -0.25      0.00 
    8    5   12     -0.65      0.00 
    9    5   12      0.35      0.00 
   10    5   12      0.76      0.00 
   11    5   12     -0.39      0.00 
   -7    6   12     -0.29      0.00 
   -6    6   12     -0.12      0.00 
   -5    6   12      0.00      0.00 
   -4    6   12     -0.41      0.00 
   -3    6   12     -0.03      0.00 
   -2    6   12      2.53      0.00 
   -1    6   12     -0.55      0.00 
    0    6   12     -0.85      0.00 
    1    6   12      0.40      0.00 
    2    6   12     -1.54      0.00 
    3    6   12      1.51      0.00 
    4    6   12      1.30      0.00 
    5    6   12     -0.26      0.00 
    6    6   12     -0.36      0.00 
    7    6   12     -0.27      0.00 
    8    6   12     -0.30      0.00 
    9    6   12     -0.13      0.00 
   10    6   12      0.27      0.00 
   11    6   12     -0.46      0.00 
   -7    7   12     -0.27      0.00 
   -6    7   12      0.24      0.00 
   -5    7   12      0.11      0.00 
   -4    7   12      0.19      0.00 
   -3    7   12      0.28      0.00 
   -2    7   12      2.08      0.00 
   -1    7   12     -1.08      0.00 
    0    7   12     -0.77      0.00 
    1    7   12      0.54      0.00 
    2    7   12     -0.63      0.00 
    3    7   12      1.47      0.00 
    4    7   12      0.56      0.00 
    5    7   12     -0.33      0.00 
    6    7   12     -0.27      0.00 
    7    7   12      0.00      0.00 
    8    7   12     -0.03      0.00 
    9    7   12     -0.21      0.00 
   10    7   12      0.29      0.00 
   11    7   12     -0.15      0.00 
   -6    8   12      0.53      0.00 
   -5    8   12      0.20      0.00 
   -4    8   12      0.64      0.00 
   -3    8   12      0.37      0.00 
   -2    8   12      1.24      0.00 
   -1    8   12     -1.11      0.00 
    0    8   12     -0.30      0.00 
    1    8   12      0.64      0.00 
    2    8   12     -0.31      0.00 
    3    8   12      1.04      0.00 
    4    8   12     -0.10      0.00 
    5    8   12     -0.05      0.00 
    6    8   12     -0.02      0.00 
    7    8   12      0.28      0.00 
    8    8   12      0.13      0.00 
    9    8   12      0.18      0.00 
   10    8   12      0.30      0.00 
   11    8   12     -0.02      0.00 
   -5    9   12      0.22      0.00 
   -4    9   12      0.75      0.00 
   -3    9   12      0.03      0.00 
   -2    9   12      0.20      0.00 
   -1    9   12     -0.64      0.00 
    0    9   12     -0.10      0.00 
    1    9   12      0.91      0.00 
    2    9   12      0.07      0.00 
    3    9   12      0.47      0.00 
    4    9   12     -0.47      0.00 
    5    9   12     -0.01      0.00 
    6    9   12      0.21      0.00 
    7    9   12      0.46      0.00 
    8    9   12      0.04      0.00 
    9    9   12      0.24      0.00 
   10    9   12     -0.03      0.00 
   -4   10   12      0.46      0.00 
   -3   10   12     -0.66      0.00 
   -2   10   12     -0.20      0.00 
   -1   10   12     -0.20      0.00 
    0   10   12     -0.05      0.00 
    1   10   12      0.90      0.00 
    2   10   12      0.06      0.00 
    3   10   12      0.12      0.00 
    4   10   12     -0.54      0.00 
    5   10   12     -0.20      0.00 
    6   10   12      0.09      0.00 
    7   10   12      0.48      0.00 
    8   10   12     -0.26      0.00 
    9   10   12     -0.01      0.00 
   10   10   12     -0.15      0.00 
   -3   11   12     -0.68      0.00 
   -2   11   12      0.22      0.00 
   -1   11   12     -0.43      0.00 
    0   11   12     -0.03      0.00 
    1   11   12      0.17      0.00 
    2   11   12      0.01      0.00 
    3   11   12      0.33      0.00 
    4   11   12     -0.33      0.00 
    5   11   12     -0.36      0.00 
    6   11   12     -0.39      0.00 
    7   11   12      0.34      0.00 
    8   11   12     -0.30      0.00 
    9   11   12     -0.01      0.00 
   -2   12   12      0.29      0.00 
   -1   12   12     -0.94      0.00 
    0   12   12      0.23      0.00 
    1   12   12     -0.27      0.00 
    2   12   12      0.37      0.00 
    3   12   12      0.40      0.00 
    4   12   12     -0.04      0.00 
    5   12   12     -0.36      0.00 
    6   12   12     -0.61      0.00 
    7   12   12      0.08      0.00 
    8   12   12     -0.03      0.00 
   -1   13   12     -0.71      0.00 
    0   13   12      0.61      0.00 
    1   13   12     -0.06      0.00 
    2   13   12      0.40      0.00 
    3   13   12     -0.05      0.00 
    4   13   12      0.33      0.00 
    5   13   12     -0.15      0.00 
    6   13   12     -0.35      0.00 
    7   13   12     -0.23      0.00 
    2   14   12      0.05      0.00 
    3   14   12     -0.25      0.00 
    4   14   12      0.57      0.00 
    5   14   12      0.04      0.00 
   -2  -12   13      0.57      0.00 
   -1  -12   13     -0.20      0.00 
   -5  -11   13      0.23      0.00 
   -4  -11   13      0.71      0.00 
   -3  -11   13      0.32      0.00 
   -2  -11   13      0.27      0.00 
   -1  -11   13     -0.81      0.00 
    0  -11   13     -0.31      0.00 
    1  -11   13      0.22      0.00 
    2  -11   13      0.19      0.00 
   -6  -10   13      0.56      0.00 
   -5  -10   13      0.84      0.00 
   -4  -10   13      1.06      0.00 
   -3  -10   13     -0.12      0.00 
   -2  -10   13     -0.45      0.00 
   -1  -10   13     -1.45      0.00 
    0  -10   13      0.00      0.00 
    1  -10   13      0.56      0.00 
    2  -10   13      0.35      0.00 
    3  -10   13      0.49      0.00 
    4  -10   13     -0.18      0.00 
   -7   -9   13      0.11      0.00 
   -6   -9   13      0.75      0.00 
   -5   -9   13      1.17      0.00 
   -4   -9   13      0.69      0.00 
   -3   -9   13     -0.72      0.00 
   -2   -9   13     -0.86      0.00 
   -1   -9   13     -1.58      0.00 
    0   -9   13      0.03      0.00 
    1   -9   13      0.12      0.00 
    2   -9   13     -0.12      0.00 
    3   -9   13      0.38      0.00 
    4   -9   13     -0.35      0.00 
    5   -9   13     -1.10      0.00 
   -8   -8   13     -0.01      0.00 
   -7   -8   13      0.02      0.00 
   -6   -8   13      0.78      0.00 
   -5   -8   13      0.75      0.00 
   -4   -8   13      0.14      0.00 
   -3   -8   13     -0.85      0.00 
   -2   -8   13     -0.49      0.00 
   -1   -8   13     -1.57      0.00 
    0   -8   13     -0.96      0.00 
    1   -8   13     -0.51      0.00 
    2   -8   13     -0.81      0.00 
    3   -8   13      0.48      0.00 
    4   -8   13      0.01      0.00 
    5   -8   13     -0.56      0.00 
    6   -8   13      0.42      0.00 
   -8   -7   13      0.46      0.00 
   -7   -7   13      0.37      0.00 
   -6   -7   13      0.49      0.00 
   -5   -7   13      0.02      0.00 
   -4   -7   13      0.11      0.00 
   -3   -7   13     -0.57      0.00 
   -2   -7   13      0.05      0.00 
   -1   -7   13     -1.84      0.00 
    0   -7   13     -2.24      0.00 
    1   -7   13     -0.39      0.00 
    2   -7   13     -1.24      0.00 
    3   -7   13      0.80      0.00 
    4   -7   13      0.26      0.00 
    5   -7   13     -0.30      0.00 
    6   -7   13     -0.18      0.00 
    7   -7   13     -0.48      0.00 
   -9   -6   13      0.03      0.00 
   -8   -6   13      1.00      0.00 
   -7   -6   13      0.62      0.00 
   -6   -6   13      0.05      0.00 
   -5   -6   13     -0.35      0.00 
   -4   -6   13      0.24      0.00 
   -3   -6   13     -0.42      0.00 
   -2   -6   13      0.23      0.00 
   -1   -6   13     -1.93      0.00 
    0   -6   13     -3.36      0.00 
    1   -6   13      0.16      0.00 
    2   -6   13     -1.33      0.00 
    3   -6   13      0.91      0.00 
    4   -6   13     -0.13      0.00 
    5   -6   13     -0.57      0.00 
    6   -6   13     -0.71      0.00 
    7   -6   13     -0.47      0.00 
    8   -6   13     -0.14      0.00 
   -9   -5   13      0.26      0.00 
   -8   -5   13      0.85      0.00 
   -7   -5   13      0.57      0.00 
   -6   -5   13     -0.32      0.00 
   -5   -5   13     -0.28      0.00 
   -4   -5   13     -0.05      0.00 
   -3   -5   13     -0.45      0.00 
   -2   -5   13      0.31      0.00 
   -1   -5   13     -1.71      0.00 
    0   -5   13     -4.82      0.00 
    1   -5   13      0.99      0.00 
    2   -5   13     -1.08      0.00 
    3   -5   13      0.72      0.00 
    4   -5   13     -0.76      0.00 
    5   -5   13     -0.80      0.00 
    6   -5   13     -0.29      0.00 
    7   -5   13     -0.03      0.00 
    8   -5   13      0.05      0.00 
    9   -5   13      0.57      0.00 
   -9   -4   13      0.29      0.00 
   -8   -4   13      0.13      0.00 
   -7   -4   13      0.16      0.00 
   -6   -4   13     -0.45      0.00 
   -5   -4   13     -0.11      0.00 
   -4   -4   13     -0.42      0.00 
   -3   -4   13     -0.39      0.00 
   -2   -4   13      0.71      0.00 
   -1   -4   13     -1.61      0.00 
    0   -4   13     -5.98      0.00 
    1   -4   13      2.58      0.00 
    2   -4   13     -1.10      0.00 
    3   -4   13      0.40      0.00 
    4   -4   13     -1.42      0.00 
    5   -4   13     -0.79      0.00 
    6   -4   13      0.54      0.00 
    7   -4   13      0.24      0.00 
    8   -4   13      0.03      0.00 
    9   -4   13      0.24      0.00 
   -9   -3   13     -0.06      0.00 
   -8   -3   13     -0.51      0.00 
   -7   -3   13     -0.56      0.00 
   -6   -3   13     -0.22      0.00 
   -5   -3   13     -0.15      0.00 
   -4   -3   13     -0.21      0.00 
   -3   -3   13     -0.26      0.00 
   -2   -3   13      1.10      0.00 
   -1   -3   13     -1.65      0.00 
    0   -3   13     -5.46      0.00 
    1   -3   13      4.14      0.00 
    2   -3   13     -2.03      0.00 
    3   -3   13      0.05      0.00 
    4   -3   13     -2.22      0.00 
    5   -3   13     -0.63      0.00 
    6   -3   13      0.89      0.00 
    7   -3   13      0.22      0.00 
    8   -3   13     -0.27      0.00 
    9   -3   13      0.17      0.00 
   10   -3   13     -0.25      0.00 
   -9   -2   13     -0.25      0.00 
   -8   -2   13     -0.77      0.00 
   -7   -2   13     -0.98      0.00 
   -6   -2   13     -0.07      0.00 
   -5   -2   13     -0.37      0.00 
   -4   -2   13      0.41      0.00 
   -3   -2   13     -0.49      0.00 
   -2   -2   13      0.72      0.00 
   -1   -2   13     -1.26      0.00 
    0   -2   13     -3.40      0.00 
    1   -2   13      4.17      0.00 
    2   -2   13     -3.30      0.00 
    3   -2   13     -0.15      0.00 
    4   -2   13     -2.42      0.00 
    5   -2   13     -0.06      0.00 
    6   -2   13      0.76      0.00 
    7   -2   13      0.25      0.00 
    8   -2   13     -0.40      0.00 
    9   -2   13      0.38      0.00 
   10   -2   13     -0.55      0.00 
   -9   -1   13      0.06      0.00 
   -8   -1   13     -0.68      0.00 
   -7   -1   13     -0.68      0.00 
   -6   -1   13     -0.49      0.00 
   -5   -1   13     -0.46      0.00 
   -4   -1   13      0.48      0.00 
   -3   -1   13     -1.09      0.00 
   -2   -1   13     -0.13      0.00 
   -1   -1   13     -0.05      0.00 
    0   -1   13     -1.44      0.00 
    1   -1   13      2.45      0.00 
    2   -1   13     -3.84      0.00 
    3   -1   13      0.23      0.00 
    4   -1   13     -1.23      0.00 
    5   -1   13      0.75      0.00 
    6   -1   13      0.35      0.00 
    7   -1   13      0.24      0.00 
    8   -1   13     -0.26      0.00 
    9   -1   13      0.35      0.00 
   10   -1   13     -0.41      0.00 
   -9    0   13      0.24      0.00 
   -8    0   13     -0.13      0.00 
   -7    0   13     -0.10      0.00 
   -6    0   13     -0.85      0.00 
   -5    0   13     -0.39      0.00 
   -4    0   13     -0.06      0.00 
   -3    0   13     -1.22      0.00 
   -2    0   13     -0.44      0.00 
   -1    0   13      1.19      0.00 
    0    0   13     -0.86      0.00 
    1    0   13      0.03      0.00 
    2    0   13     -3.14      0.00 
    3    0   13      1.27      0.00 
    4    0   13      0.42      0.00 
    5    0   13      0.92      0.00 
    6    0   13     -0.26      0.00 
    7    0   13      0.14      0.00 
    8    0   13     -0.03      0.00 
    9    0   13      0.21      0.00 
   10    0   13      0.07      0.00 
   11    0   13     -0.16      0.00 
   -9    1   13      0.06      0.00 
   -8    1   13      0.76      0.00 
   -7    1   13      0.20      0.00 
   -6    1   13     -0.55      0.00 
   -5    1   13     -0.41      0.00 
   -4    1   13     -0.25      0.00 
   -3    1   13     -0.73      0.00 
   -2    1   13     -0.37      0.00 
   -1    1   13      1.44      0.00 
    0    1   13     -1.17      0.00 
    1    1   13     -1.93      0.00 
    2    1   13     -1.35      0.00 
    3    1   13      2.07      0.00 
    4    1   13      0.95      0.00 
    5    1   13      0.39      0.00 
    6    1   13     -0.49      0.00 
    7    1   13      0.09      0.00 
    8    1   13      0.05      0.00 
    9    1   13      0.18      0.00 
   10    1   13      0.06      0.00 
   11    1   13     -0.43      0.00 
   -9    2   13      0.10      0.00 
   -8    2   13      1.26      0.00 
   -7    2   13      0.13      0.00 
   -6    2   13     -0.13      0.00 
   -5    2   13     -0.40      0.00 
   -4    2   13      0.04      0.00 
   -3    2   13     -0.38      0.00 
   -2    2   13     -0.60      0.00 
   -1    2   13      1.09      0.00 
    0    2   13     -1.23      0.00 
    1    2   13     -2.98      0.00 
    2    2   13      0.94      0.00 
    3    2   13      1.88      0.00 
    4    2   13      0.52      0.00 
    5    2   13     -0.04      0.00 
    6    2   13     -0.20      0.00 
    7    2   13     -0.09      0.00 
    8    2   13      0.03      0.00 
    9    2   13      0.10      0.00 
   10    2   13     -0.58      0.00 
   11    2   13     -0.27      0.00 
   -8    3   13      0.96      0.00 
   -7    3   13     -0.08      0.00 
   -6    3   13     -0.10      0.00 
   -5    3   13     -0.15      0.00 
   -4    3   13      0.18      0.00 
   -3    3   13     -0.13      0.00 
   -2    3   13     -1.11      0.00 
   -1    3   13      0.85      0.00 
    0    3   13     -1.04      0.00 
    1    3   13     -3.00      0.00 
    2    3   13      2.97      0.00 
    3    3   13      0.97      0.00 
    4    3   13     -0.05      0.00 
    5    3   13     -0.28      0.00 
    6    3   13     -0.03      0.00 
    7    3   13     -0.31      0.00 
    8    3   13      0.25      0.00 
    9    3   13     -0.31      0.00 
   10    3   13     -1.31      0.00 
   11    3   13     -0.16      0.00 
   -8    4   13      0.54      0.00 
   -7    4   13     -0.13      0.00 
   -6    4   13     -0.05      0.00 
   -5    4   13      0.09      0.00 
   -4    4   13      0.32      0.00 
   -3    4   13      0.29      0.00 
   -2    4   13     -1.77      0.00 
   -1    4   13      0.60      0.00 
    0    4   13     -0.67      0.00 
    1    4   13     -1.89      0.00 
    2    4   13      3.62      0.00 
    3    4   13     -0.27      0.00 
    4    4   13     -0.76      0.00 
    5    4   13     -0.43      0.00 
    6    4   13      0.00      0.00 
    7    4   13     -0.15      0.00 
    8    4   13      0.49      0.00 
    9    4   13     -0.81      0.00 
   10    4   13     -1.46      0.00 
   11    4   13      0.02      0.00 
   -8    5   13      0.48      0.00 
   -7    5   13      0.05      0.00 
   -6    5   13      0.14      0.00 
   -5    5   13      0.08      0.00 
   -4    5   13      0.55      0.00 
   -3    5   13      0.30      0.00 
   -2    5   13     -2.37      0.00 
   -1    5   13      0.49      0.00 
    0    5   13      0.15      0.00 
    1    5   13     -0.70      0.00 
    2    5   13      2.48      0.00 
    3    5   13     -1.43      0.00 
    4    5   13     -1.31      0.00 
    5    5   13     -0.04      0.00 
    6    5   13      0.27      0.00 
    7    5   13      0.12      0.00 
    8    5   13      0.35      0.00 
    9    5   13     -0.73      0.00 
   10    5   13     -0.87      0.00 
   11    5   13      0.47      0.00 
   -7    6   13      0.18      0.00 
   -6    6   13      0.05      0.00 
   -5    6   13     -0.12      0.00 
   -4    6   13      0.27      0.00 
   -3    6   13     -0.11      0.00 
   -2    6   13     -2.39      0.00 
   -1    6   13      0.83      0.00 
    0    6   13      0.73      0.00 
    1    6   13     -0.45      0.00 
    2    6   13      1.02      0.00 
    3    6   13     -1.81      0.00 
    4    6   13     -0.94      0.00 
    5    6   13      0.59      0.00 
    6    6   13      0.50      0.00 
    7    6   13     -0.07      0.00 
    8    6   13      0.05      0.00 
    9    6   13     -0.19      0.00 
   10    6   13     -0.37      0.00 
   11    6   13      0.59      0.00 
   -6    7   13     -0.35      0.00 
   -5    7   13     -0.39      0.00 
   -4    7   13     -0.37      0.00 
   -3    7   13     -0.28      0.00 
   -2    7   13     -1.85      0.00 
   -1    7   13      1.13      0.00 
    0    7   13      0.48      0.00 
    1    7   13     -0.50      0.00 
    2    7   13      0.49      0.00 
    3    7   13     -1.42      0.00 
    4    7   13     -0.10      0.00 
    5    7   13      0.54      0.00 
    6    7   13      0.30      0.00 
    7    7   13     -0.52      0.00 
    8    7   13     -0.01      0.00 
    9    7   13     -0.09      0.00 
   10    7   13     -0.48      0.00 
   11    7   13      0.32      0.00 
   -6    8   13     -0.53      0.00 
   -5    8   13     -0.52      0.00 
   -4    8   13     -0.67      0.00 
   -3    8   13     -0.12      0.00 
   -2    8   13     -0.90      0.00 
   -1    8   13      0.96      0.00 
    0    8   13      0.12      0.00 
    1    8   13     -0.51      0.00 
    2    8   13      0.14      0.00 
    3    8   13     -0.86      0.00 
    4    8   13      0.38      0.00 
    5    8   13      0.10      0.00 
    6    8   13     -0.12      0.00 
    7    8   13     -0.73      0.00 
    8    8   13      0.15      0.00 
    9    8   13     -0.40      0.00 
   10    8   13     -0.52      0.00 
   11    8   13      0.14      0.00 
   -5    9   13     -0.43      0.00 
   -4    9   13     -0.53      0.00 
   -3    9   13      0.33      0.00 
   -2    9   13      0.16      0.00 
   -1    9   13      0.45      0.00 
    0    9   13      0.03      0.00 
    1    9   13     -0.82      0.00 
    2    9   13     -0.26      0.00 
    3    9   13     -0.32      0.00 
    4    9   13      0.50      0.00 
    5    9   13      0.02      0.00 
    6    9   13     -0.35      0.00 
    7    9   13     -0.56      0.00 
    8    9   13      0.45      0.00 
    9    9   13     -0.41      0.00 
   10    9   13     -0.25      0.00 
   -4   10   13     -0.18      0.00 
   -3   10   13      0.82      0.00 
   -2   10   13      0.45      0.00 
   -1   10   13      0.08      0.00 
    0   10   13      0.03      0.00 
    1   10   13     -0.71      0.00 
    2   10   13     -0.09      0.00 
    3   10   13     -0.13      0.00 
    4   10   13      0.46      0.00 
    5   10   13      0.19      0.00 
    6   10   13     -0.08      0.00 
    7   10   13     -0.30      0.00 
    8   10   13      0.67      0.00 
    9   10   13     -0.31      0.00 
   10   10   13     -0.19      0.00 
   -3   11   13      0.64      0.00 
   -2   11   13     -0.01      0.00 
   -1   11   13      0.41      0.00 
    0   11   13      0.03      0.00 
    1   11   13      0.10      0.00 
    2   11   13      0.01      0.00 
    3   11   13     -0.42      0.00 
    4   11   13      0.27      0.00 
    5   11   13      0.25      0.00 
    6   11   13      0.42      0.00 
    7   11   13     -0.19      0.00 
    8   11   13      0.55      0.00 
    9   11   13     -0.41      0.00 
   -2   12   13     -0.11      0.00 
   -1   12   13      0.88      0.00 
    0   12   13     -0.25      0.00 
    1   12   13      0.38      0.00 
    2   12   13     -0.38      0.00 
    3   12   13     -0.37      0.00 
    4   12   13     -0.04      0.00 
    5   12   13      0.14      0.00 
    6   12   13      0.48      0.00 
    7   12   13     -0.02      0.00 
    8   12   13      0.27      0.00 
    0   13   13     -0.55      0.00 
    1   13   13      0.00      0.00 
    2   13   13     -0.41      0.00 
    3   13   13      0.12      0.00 
    4   13   13     -0.38      0.00 
    5   13   13     -0.01      0.00 
    6   13   13      0.15      0.00 
    7   13   13      0.30      0.00 
   -4  -11   14     -0.70      0.00 
   -3  -11   14     -0.29      0.00 
   -2  -11   14     -0.29      0.00 
   -1  -11   14      0.84      0.00 
    0  -11   14     -0.03      0.00 
    1  -11   14     -0.24      0.00 
    2  -11   14      0.00      0.00 
   -6  -10   14     -0.57      0.00 
   -5  -10   14     -0.80      0.00 
   -4  -10   14     -0.82      0.00 
   -3  -10   14      0.29      0.00 
   -2  -10   14      0.44      0.00 
   -1  -10   14      1.48      0.00 
    0  -10   14     -0.26      0.00 
    1  -10   14     -0.33      0.00 
    2  -10   14      0.03      0.00 
    3  -10   14     -0.13      0.00 
    4  -10   14      0.11      0.00 
   -7   -9   14      0.28      0.00 
   -6   -9   14     -0.66      0.00 
   -5   -9   14     -0.88      0.00 
   -4   -9   14     -0.28      0.00 
   -3   -9   14      1.05      0.00 
   -2   -9   14      0.87      0.00 
   -1   -9   14      1.64      0.00 
    0   -9   14     -0.13      0.00 
    1   -9   14      0.14      0.00 
    2   -9   14      0.38      0.00 
    3   -9   14     -0.10      0.00 
    4   -9   14      0.03      0.00 
    5   -9   14      0.53      0.00 
   -7   -8   14      0.26      0.00 
   -6   -8   14     -0.59      0.00 
   -5   -8   14     -0.45      0.00 
   -4   -8   14      0.26      0.00 
   -3   -8   14      1.18      0.00 
   -2   -8   14      0.52      0.00 
   -1   -8   14      1.57      0.00 
    0   -8   14      0.75      0.00 
    1   -8   14      0.49      0.00 
    2   -8   14      0.73      0.00 
    3   -8   14     -0.44      0.00 
    4   -8   14     -0.50      0.00 
    5   -8   14      0.00      0.00 
    6   -8   14     -0.41      0.00 
   -8   -7   14     -0.45      0.00 
   -7   -7   14     -0.16      0.00 
   -6   -7   14     -0.27      0.00 
   -5   -7   14      0.07      0.00 
   -4   -7   14      0.20      0.00 
   -3   -7   14      0.77      0.00 
   -2   -7   14      0.04      0.00 
   -1   -7   14      1.58      0.00 
    0   -7   14      1.78      0.00 
    1   -7   14      0.16      0.00 
    2   -7   14      1.00      0.00 
    3   -7   14     -0.84      0.00 
    4   -7   14     -0.54      0.00 
    5   -7   14      0.00      0.00 
    6   -7   14      0.14      0.00 
    7   -7   14      0.41      0.00 
   -8   -6   14     -0.90      0.00 
   -7   -6   14     -0.36      0.00 
   -6   -6   14      0.13      0.00 
   -5   -6   14      0.31      0.00 
   -4   -6   14      0.04      0.00 
   -3   -6   14      0.46      0.00 
   -2   -6   14     -0.05      0.00 
   -1   -6   14      1.46      0.00 
    0   -6   14      2.76      0.00 
    1   -6   14     -0.38      0.00 
    2   -6   14      1.24      0.00 
    3   -6   14     -0.79      0.00 
    4   -6   14      0.17      0.00 
    5   -6   14      0.39      0.00 
    6   -6   14      0.44      0.00 
    7   -6   14      0.25      0.00 
    8   -6   14      0.09      0.00 
   -9   -5   14     -0.02      0.00 
   -8   -5   14     -0.58      0.00 
   -7   -5   14     -0.22      0.00 
   -6   -5   14      0.45      0.00 
   -5   -5   14      0.30      0.00 
   -4   -5   14      0.30      0.00 
   -3   -5   14      0.40      0.00 
   -2   -5   14     -0.06      0.00 
   -1   -5   14      1.20      0.00 
    0   -5   14      4.06      0.00 
    1   -5   14     -1.14      0.00 
    2   -5   14      1.24      0.00 
    3   -5   14     -0.42      0.00 
    4   -5   14      0.84      0.00 
    5   -5   14      0.57      0.00 
    6   -5   14     -0.08      0.00 
    7   -5   14     -0.20      0.00 
    8   -5   14     -0.12      0.00 
   -9   -4   14      0.12      0.00 
   -8   -4   14      0.20      0.00 
   -7   -4   14      0.21      0.00 
   -6   -4   14      0.48      0.00 
   -5   -4   14      0.18      0.00 
   -4   -4   14      0.56      0.00 
   -3   -4   14      0.33      0.00 
   -2   -4   14     -0.42      0.00 
   -1   -4   14      1.15      0.00 
    0   -4   14      4.95      0.00 
    1   -4   14     -2.66      0.00 
    2   -4   14      1.36      0.00 
    3   -4   14     -0.13      0.00 
    4   -4   14      1.30      0.00 
    5   -4   14      0.57      0.00 
    6   -4   14     -0.84      0.00 
    7   -4   14     -0.38      0.00 
    8   -4   14     -0.08      0.00 
    9   -4   14     -0.03      0.00 
   -9   -3   14      0.49      0.00 
   -8   -3   14      0.69      0.00 
   -7   -3   14      0.79      0.00 
   -6   -3   14      0.13      0.00 
   -5   -3   14      0.16      0.00 
   -4   -3   14      0.19      0.00 
   -3   -3   14      0.27      0.00 
   -2   -3   14     -0.76      0.00 
   -1   -3   14      1.24      0.00 
    0   -3   14      4.24      0.00 
    1   -3   14     -3.93      0.00 
    2   -3   14      2.13      0.00 
    3   -3   14      0.04      0.00 
    4   -3   14      1.88      0.00 
    5   -3   14      0.43      0.00 
    6   -3   14     -1.10      0.00 
    7   -3   14     -0.20      0.00 
    8   -3   14      0.23      0.00 
    9   -3   14     -0.08      0.00 
   -9   -2   14      0.51      0.00 
   -8   -2   14      0.71      0.00 
   -7   -2   14      0.97      0.00 
   -6   -2   14     -0.06      0.00 
   -5   -2   14      0.29      0.00 
   -4   -2   14     -0.51      0.00 
   -3   -2   14      0.65      0.00 
   -2   -2   14     -0.44      0.00 
   -1   -2   14      0.88      0.00 
    0   -2   14      2.40      0.00 
    1   -2   14     -3.48      0.00 
    2   -2   14      3.07      0.00 
    3   -2   14      0.08      0.00 
    4   -2   14      1.93      0.00 
    5   -2   14     -0.19      0.00 
    6   -2   14     -0.79      0.00 
    7   -2   14     -0.04      0.00 
    8   -2   14      0.37      0.00 
    9   -2   14     -0.27      0.00 
   10   -2   14      0.66      0.00 
   -9   -1   14      0.07      0.00 
   -8   -1   14      0.46      0.00 
   -7   -1   14      0.55      0.00 
   -6   -1   14      0.36      0.00 
   -5   -1   14      0.27      0.00 
   -4   -1   14     -0.60      0.00 
   -3   -1   14      1.21      0.00 
   -2   -1   14      0.15      0.00 
   -1   -1   14     -0.14      0.00 
    0   -1   14      1.08      0.00 
    1   -1   14     -1.45      0.00 
    2   -1   14      3.25      0.00 
    3   -1   14     -0.37      0.00 
    4   -1   14      0.83      0.00 
    5   -1   14     -0.85      0.00 
    6   -1   14     -0.09      0.00 
    7   -1   14      0.00      0.00 
    8   -1   14      0.21      0.00 
    9   -1   14     -0.21      0.00 
   10   -1   14      0.43      0.00 
   -9    0   14     -0.13      0.00 
   -8    0   14     -0.16      0.00 
   -7    0   14      0.02      0.00 
   -6    0   14      0.70      0.00 
   -5    0   14      0.14      0.00 
   -4    0   14     -0.10      0.00 
   -3    0   14      1.12      0.00 
   -2    0   14      0.34      0.00 
   -1    0   14     -0.98      0.00 
    0    0   14      1.03      0.00 
    1    0   14      0.76      0.00 
    2    0   14      2.30      0.00 
    3    0   14     -1.31      0.00 
    4    0   14     -0.37      0.00 
    5    0   14     -0.76      0.00 
    6    0   14      0.51      0.00 
    7    0   14     -0.05      0.00 
    8    0   14     -0.05      0.00 
    9    0   14     -0.08      0.00 
   10    0   14     -0.09      0.00 
   -9    1   14     -0.04      0.00 
   -8    1   14     -1.00      0.00 
   -7    1   14     -0.12      0.00 
   -6    1   14      0.39      0.00 
   -5    1   14      0.19      0.00 
   -4    1   14      0.05      0.00 
   -3    1   14      0.54      0.00 
   -2    1   14      0.43      0.00 
   -1    1   14     -0.93      0.00 
    0    1   14      1.35      0.00 
    1    1   14      2.16      0.00 
    2    1   14      0.44      0.00 
    3    1   14     -1.89      0.00 
    4    1   14     -0.49      0.00 
    5    1   14     -0.23      0.00 
    6    1   14      0.49      0.00 
    7    1   14     -0.07      0.00 
    8    1   14     -0.13      0.00 
    9    1   14      0.00      0.00 
   10    1   14      0.00      0.00 
   11    1   14      0.37      0.00 
   -8    2   14     -1.32      0.00 
   -7    2   14      0.06      0.00 
   -6    2   14      0.06      0.00 
   -5    2   14      0.26      0.00 
   -4    2   14     -0.16      0.00 
   -3    2   14      0.34      0.00 
   -2    2   14      0.79      0.00 
   -1    2   14     -0.61      0.00 
    0    2   14      1.19      0.00 
    1    2   14      2.70      0.00 
    2    2   14     -1.74      0.00 
    3    2   14     -1.44      0.00 
    4    2   14     -0.04      0.00 
    5    2   14      0.05      0.00 
    6    2   14      0.16      0.00 
    7    2   14      0.19      0.00 
    8    2   14     -0.09      0.00 
    9    2   14      0.26      0.00 
   10    2   14      0.77      0.00 
   11    2   14      0.40      0.00 
   -8    3   14     -0.87      0.00 
   -7    3   14      0.23      0.00 
   -6    3   14      0.08      0.00 
   -5    3   14      0.08      0.00 
   -4    3   14     -0.23      0.00 
   -3    3   14      0.25      0.00 
   -2    3   14      1.22      0.00 
   -1    3   14     -0.55      0.00 
    0    3   14      0.81      0.00 
    1    3   14      2.39      0.00 
    2    3   14     -3.28      0.00 
    3    3   14     -0.30      0.00 
    4    3   14      0.35      0.00 
    5    3   14      0.28      0.00 
    6    3   14      0.12      0.00 
    7    3   14      0.44      0.00 
    8    3   14     -0.17      0.00 
    9    3   14      0.86      0.00 
   10    3   14      1.55      0.00 
   11    3   14      0.47      0.00 
   -8    4   14     -0.39      0.00 
   -7    4   14      0.16      0.00 
   -6    4   14      0.04      0.00 
   -5    4   14     -0.11      0.00 
   -4    4   14     -0.38      0.00 
   -3    4   14     -0.07      0.00 
   -2    4   14      1.73      0.00 
   -1    4   14     -0.52      0.00 
    0    4   14      0.31      0.00 
    1    4   14      1.34      0.00 
    2    4   14     -3.15      0.00 
    3    4   14      0.94      0.00 
    4    4   14      0.92      0.00 
    5    4   14      0.36      0.00 
    6    4   14      0.11      0.00 
    7    4   14      0.25      0.00 
    8    4   14     -0.18      0.00 
    9    4   14      1.33      0.00 
   10    4   14      1.56      0.00 
   11    4   14      0.21      0.00 
   -7    5   14     -0.06      0.00 
   -6    5   14     -0.14      0.00 
   -5    5   14     -0.05      0.00 
   -4    5   14     -0.59      0.00 
   -3    5   14     -0.03      0.00 
   -2    5   14      2.20      0.00 
   -1    5   14     -0.63      0.00 
    0    5   14     -0.40      0.00 
    1    5   14      0.56      0.00 
    2    5   14     -1.64      0.00 
    3    5   14      1.72      0.00 
    4    5   14      1.23      0.00 
    5    5   14     -0.27      0.00 
    6    5   14     -0.23      0.00 
    7    5   14      0.00      0.00 
    8    5   14      0.14      0.00 
    9    5   14      1.01      0.00 
   10    5   14      0.85      0.00 
   11    5   14     -0.38      0.00 
   -7    6   14     -0.17      0.00 
   -6    6   14      0.01      0.00 
   -5    6   14      0.25      0.00 
   -4    6   14     -0.23      0.00 
   -3    6   14      0.25      0.00 
   -2    6   14      2.16      0.00 
   -1    6   14     -0.98      0.00 
    0    6   14     -0.64      0.00 
    1    6   14      0.50      0.00 
    2    6   14     -0.53      0.00 
    3    6   14      1.61      0.00 
    4    6   14      0.63      0.00 
    5    6   14     -0.95      0.00 
    6    6   14     -0.41      0.00 
    7    6   14      0.28      0.00 
    8    6   14      0.40      0.00 
    9    6   14      0.26      0.00 
   10    6   14      0.47      0.00 
   11    6   14     -0.59      0.00 
   -6    7   14      0.43      0.00 
   -5    7   14      0.55      0.00 
   -4    7   14      0.41      0.00 
   -3    7   14      0.07      0.00 
   -2    7   14      1.60      0.00 
   -1    7   14     -1.11      0.00 
    0    7   14     -0.25      0.00 
    1    7   14      0.40      0.00 
    2    7   14     -0.29      0.00 
    3    7   14      1.03      0.00 
    4    7   14     -0.23      0.00 
    5    7   14     -0.70      0.00 
    6    7   14     -0.09      0.00 
    7    7   14      0.75      0.00 
    8    7   14      0.25      0.00 
    9    7   14      0.08      0.00 
   10    7   14      0.72      0.00 
   11    7   14     -0.37      0.00 
   -6    8   14      0.53      0.00 
   -5    8   14      0.58      0.00 
   -4    8   14      0.54      0.00 
   -3    8   14     -0.44      0.00 
   -2    8   14      0.71      0.00 
   -1    8   14     -0.81      0.00 
    0    8   14      0.04      0.00 
    1    8   14      0.37      0.00 
    2    8   14      0.12      0.00 
    3    8   14      0.54      0.00 
    4    8   14     -0.54      0.00 
    5    8   14     -0.12      0.00 
    6    8   14      0.40      0.00 
    7    8   14      0.76      0.00 
    8    8   14     -0.18      0.00 
    9    8   14      0.30      0.00 
   10    8   14      0.77      0.00 
   -5    9   14      0.35      0.00 
   -4    9   14      0.26      0.00 
   -3    9   14     -0.89      0.00 
   -2    9   14     -0.19      0.00 
   -1    9   14     -0.23      0.00 
    0    9   14      0.07      0.00 
    1    9   14      0.72      0.00 
    2    9   14      0.44      0.00 
    3    9   14      0.16      0.00 
    4    9   14     -0.53      0.00 
    5    9   14     -0.05      0.00 
    6    9   14      0.54      0.00 
    7    9   14      0.27      0.00 
    8    9   14     -0.60      0.00 
    9    9   14      0.30      0.00 
   10    9   14      0.50      0.00 
   -4   10   14      0.02      0.00 
   -3   10   14     -1.07      0.00 
   -2   10   14     -0.38      0.00 
   -1   10   14      0.10      0.00 
    0   10   14      0.04      0.00 
    1   10   14      0.47      0.00 
    2   10   14      0.04      0.00 
    3   10   14      0.18      0.00 
    4   10   14     -0.50      0.00 
    5   10   14     -0.19      0.00 
    6   10   14      0.13      0.00 
    7   10   14     -0.10      0.00 
    8   10   14     -0.73      0.00 
    9   10   14      0.35      0.00 
   10   10   14      0.38      0.00 
   -3   11   14     -0.69      0.00 
   -2   11   14     -0.04      0.00 
   -1   11   14     -0.29      0.00 
    0   11   14      0.08      0.00 
    1   11   14     -0.36      0.00 
    2   11   14     -0.09      0.00 
    3   11   14      0.50      0.00 
    4   11   14     -0.35      0.00 
    5   11   14     -0.14      0.00 
    6   11   14     -0.35      0.00 
    7   11   14     -0.07      0.00 
    8   11   14     -0.51      0.00 
    9   11   14      0.55      0.00 
   -1   12   14     -0.69      0.00 
    0   12   14      0.43      0.00 
    1   12   14     -0.46      0.00 
    2   12   14      0.36      0.00 
    3   12   14      0.31      0.00 
    4   12   14      0.00      0.00 
    5   12   14      0.00      0.00 
    6   12   14     -0.30      0.00 
    7   12   14     -0.12      0.00 
    8   12   14     -0.27      0.00 
    0   13   14      0.67      0.00 
    1   13   14      0.00      0.00 
    2   13   14      0.43      0.00 
    3   13   14     -0.24      0.00 
    4   13   14      0.33      0.00 
    5   13   14      0.03      0.00 
    6   13   14      0.02      0.00 
    7   13   14     -0.41      0.00 
   -3  -11   15      0.20      0.00 
   -2  -11   15      0.12      0.00 
   -1  -11   15     -0.65      0.00 
    0  -11   15      0.22      0.00 
    1  -11   15      0.23      0.00 
   -5  -10   15      0.49      0.00 
   -4  -10   15      0.43      0.00 
   -3  -10   15     -0.46      0.00 
   -2  -10   15     -0.57      0.00 
   -1  -10   15     -1.26      0.00 
    0  -10   15      0.31      0.00 
    1  -10   15      0.14      0.00 
    2  -10   15     -0.47      0.00 
    3  -10   15     -0.09      0.00 
   -6   -9   15      0.38      0.00 
   -5   -9   15      0.37      0.00 
   -4   -9   15     -0.17      0.00 
   -3   -9   15     -1.30      0.00 
   -2   -9   15     -0.92      0.00 
   -1   -9   15     -1.48      0.00 
    0   -9   15      0.05      0.00 
    1   -9   15     -0.26      0.00 
    2   -9   15     -0.66      0.00 
    3   -9   15      0.04      0.00 
    4   -9   15      0.28      0.00 
   -7   -8   15     -0.36      0.00 
   -6   -8   15      0.30      0.00 
   -5   -8   15      0.04      0.00 
   -4   -8   15     -0.56      0.00 
   -3   -8   15     -1.44      0.00 
   -2   -8   15     -0.54      0.00 
   -1   -8   15     -1.41      0.00 
    0   -8   15     -0.69      0.00 
    1   -8   15     -0.38      0.00 
    2   -8   15     -0.67      0.00 
    3   -8   15      0.53      0.00 
    4   -8   15      0.84      0.00 
    5   -8   15      0.49      0.00 
    6   -8   15      0.27      0.00 
   -7   -7   15      0.06      0.00 
   -6   -7   15      0.06      0.00 
   -5   -7   15     -0.22      0.00 
   -4   -7   15     -0.38      0.00 
   -3   -7   15     -1.00      0.00 
   -2   -7   15     -0.09      0.00 
   -1   -7   15     -1.33      0.00 
    0   -7   15     -1.44      0.00 
    1   -7   15     -0.03      0.00 
    2   -7   15     -0.80      0.00 
    3   -7   15      0.86      0.00 
    4   -7   15      0.64      0.00 
    5   -7   15      0.26      0.00 
    6   -7   15     -0.10      0.00 
    7   -7   15     -0.30      0.00 
   -8   -6   15      0.58      0.00 
   -7   -6   15      0.16      0.00 
   -6   -6   15     -0.20      0.00 
   -5   -6   15     -0.39      0.00 
   -4   -6   15     -0.20      0.00 
   -3   -6   15     -0.65      0.00 
   -2   -6   15     -0.02      0.00 
   -1   -6   15     -1.16      0.00 
    0   -6   15     -2.23      0.00 
    1   -6   15      0.29      0.00 
    2   -6   15     -1.16      0.00 
    3   -6   15      0.61      0.00 
    4   -6   15     -0.28      0.00 
    5   -6   15     -0.18      0.00 
    6   -6   15     -0.14      0.00 
    7   -6   15     -0.10      0.00 
   -8   -5   15      0.17      0.00 
   -7   -5   15     -0.06      0.00 
   -6   -5   15     -0.40      0.00 
   -5   -5   15     -0.50      0.00 
   -4   -5   15     -0.40      0.00 
   -3   -5   15     -0.54      0.00 
   -2   -5   15      0.01      0.00 
   -1   -5   15     -1.00      0.00 
    0   -5   15     -3.32      0.00 
    1   -5   15      0.90      0.00 
    2   -5   15     -1.37      0.00 
    3   -5   15      0.20      0.00 
    4   -5   15     -0.87      0.00 
    5   -5   15     -0.34      0.00 
    6   -5   15      0.38      0.00 
    7   -5   15      0.27      0.00 
    8   -5   15      0.05      0.00 
   -8   -4   15     -0.49      0.00 
   -7   -4   15     -0.44      0.00 
   -6   -4   15     -0.32      0.00 
   -5   -4   15     -0.41      0.00 
   -4   -4   15     -0.52      0.00 
   -3   -4   15     -0.39      0.00 
   -2   -4   15      0.35      0.00 
   -1   -4   15     -1.09      0.00 
    0   -4   15     -3.92      0.00 
    1   -4   15      2.32      0.00 
    2   -4   15     -1.57      0.00 
    3   -4   15      0.09      0.00 
    4   -4   15     -1.11      0.00 
    5   -4   15     -0.43      0.00 
    6   -4   15      0.99      0.00 
    7   -4   15      0.34      0.00 
    8   -4   15     -0.08      0.00 
    9   -4   15     -0.03      0.00 
   -8   -3   15     -0.68      0.00 
   -7   -3   15     -0.82      0.00 
   -6   -3   15      0.14      0.00 
   -5   -3   15     -0.27      0.00 
   -4   -3   15     -0.06      0.00 
   -3   -3   15     -0.35      0.00 
   -2   -3   15      0.60      0.00 
   -1   -3   15     -1.21      0.00 
    0   -3   15     -3.12      0.00 
    1   -3   15      3.44      0.00 
    2   -3   15     -2.19      0.00 
    3   -3   15      0.15      0.00 
    4   -3   15     -1.49      0.00 
    5   -3   15     -0.29      0.00 
    6   -3   15      1.13      0.00 
    7   -3   15      0.06      0.00 
    8   -3   15     -0.43      0.00 
    9   -3   15      0.11      0.00 
   -8   -2   15     -0.46      0.00 
   -7   -2   15     -0.80      0.00 
   -6   -2   15      0.33      0.00 
   -5   -2   15     -0.21      0.00 
   -4   -2   15      0.60      0.00 
   -3   -2   15     -0.76      0.00 
   -2   -2   15      0.28      0.00 
   -1   -2   15     -0.82      0.00 
    0   -2   15     -1.63      0.00 
    1   -2   15      2.81      0.00 
    2   -2   15     -2.86      0.00 
    3   -2   15      0.25      0.00 
    4   -2   15     -1.41      0.00 
    5   -2   15      0.35      0.00 
    6   -2   15      0.59      0.00 
    7   -2   15     -0.19      0.00 
    8   -2   15     -0.55      0.00 
    9   -2   15      0.26      0.00 
   10   -2   15     -0.65      0.00 
   -8   -1   15     -0.15      0.00 
   -7   -1   15     -0.34      0.00 
   -6   -1   15     -0.11      0.00 
   -5   -1   15     -0.01      0.00 
   -4   -1   15      0.60      0.00 
   -3   -1   15     -1.20      0.00 
   -2   -1   15     -0.15      0.00 
   -1   -1   15      0.11      0.00 
    0   -1   15     -0.87      0.00 
    1   -1   15      0.83      0.00 
    2   -1   15     -2.76      0.00 
    3   -1   15      0.66      0.00 
    4   -1   15     -0.47      0.00 
    5   -1   15      0.80      0.00 
    6   -1   15     -0.34      0.00 
    7   -1   15     -0.14      0.00 
    8   -1   15     -0.34      0.00 
    9   -1   15      0.19      0.00 
   10   -1   15     -0.41      0.00 
   -8    0   15      0.39      0.00 
   -7    0   15      0.04      0.00 
   -6    0   15     -0.44      0.00 
   -5    0   15      0.20      0.00 
   -4    0   15      0.08      0.00 
   -3    0   15     -0.86      0.00 
   -2    0   15     -0.28      0.00 
   -1    0   15      0.71      0.00 
    0    0   15     -1.15      0.00 
    1    0   15     -0.98      0.00 
    2    0   15     -1.65      0.00 
    3    0   15      1.36      0.00 
    4    0   15      0.28      0.00 
    5    0   15      0.47      0.00 
    6    0   15     -0.87      0.00 
    7    0   15      0.15      0.00 
    8    0   15     -0.02      0.00 
    9    0   15      0.10      0.00 
   10    0   15      0.00      0.00 
   -8    1   15      1.08      0.00 
   -7    1   15     -0.04      0.00 
   -6    1   15     -0.20      0.00 
   -5    1   15      0.09      0.00 
   -4    1   15     -0.08      0.00 
   -3    1   15     -0.22      0.00 
   -2    1   15     -0.53      0.00 
   -1    1   15      0.57      0.00 
    0    1   15     -1.41      0.00 
    1    1   15     -1.88      0.00 
    2    1   15      0.22      0.00 
    3    1   15      1.58      0.00 
    4    1   15      0.14      0.00 
    5    1   15      0.01      0.00 
    6    1   15     -0.59      0.00 
    7    1   15      0.28      0.00 
    8    1   15      0.09      0.00 
    9    1   15      0.02      0.00 
   10    1   15     -0.25      0.00 
   11    1   15     -0.25      0.00 
   -8    2   15      1.19      0.00 
   -7    2   15     -0.36      0.00 
   -6    2   15      0.00      0.00 
   -5    2   15     -0.06      0.00 
   -4    2   15      0.07      0.00 
   -3    2   15     -0.17      0.00 
   -2    2   15     -1.01      0.00 
   -1    2   15      0.39      0.00 
    0    2   15     -1.11      0.00 
    1    2   15     -2.05      0.00 
    2    2   15      2.21      0.00 
    3    2   15      0.83      0.00 
    4    2   15     -0.15      0.00 
    5    2   15     -0.11      0.00 
    6    2   15     -0.20      0.00 
    7    2   15     -0.03      0.00 
    8    2   15     -0.01      0.00 
    9    2   15     -0.38      0.00 
   10    2   15     -1.17      0.00 
   11    2   15     -0.40      0.00 
   -8    3   15      0.66      0.00 
   -7    3   15     -0.46      0.00 
   -6    3   15     -0.10      0.00 
   -5    3   15      0.08      0.00 
   -4    3   15      0.07      0.00 
   -3    3   15     -0.24      0.00 
   -2    3   15     -1.38      0.00 
   -1    3   15      0.50      0.00 
    0    3   15     -0.66      0.00 
    1    3   15     -1.54      0.00 
    2    3   15      3.24      0.00 
    3    3   15     -0.44      0.00 
    4    3   15     -0.28      0.00 
    5    3   15     -0.32      0.00 
    6    3   15     -0.23      0.00 
    7    3   15     -0.35      0.00 
    8    3   15     -0.10      0.00 
    9    3   15     -1.10      0.00 
   10    3   15     -1.92      0.00 
   11    3   15     -0.56      0.00 
   -7    4   15     -0.23      0.00 
   -6    4   15     -0.08      0.00 
   -5    4   15      0.25      0.00 
   -4    4   15      0.22      0.00 
   -3    4   15     -0.05      0.00 
   -2    4   15     -1.77      0.00 
   -1    4   15      0.66      0.00 
    0    4   15     -0.13      0.00 
    1    4   15     -0.68      0.00 
    2    4   15      2.53      0.00 
    3    4   15     -1.54      0.00 
    4    4   15     -0.69      0.00 
    5    4   15     -0.31      0.00 
    6    4   15     -0.17      0.00 
    7    4   15     -0.24      0.00 
    8    4   15     -0.29      0.00 
    9    4   15     -1.52      0.00 
   10    4   15     -1.68      0.00 
   11    4   15     -0.24      0.00 
   -7    5   15      0.07      0.00 
   -6    5   15      0.07      0.00 
   -5    5   15      0.15      0.00 
   -4    5   15      0.43      0.00 
   -3    5   15     -0.13      0.00 
   -2    5   15     -2.09      0.00 
   -1    5   15      0.91      0.00 
    0    5   15      0.40      0.00 
    1    5   15     -0.34      0.00 
    2    5   15      0.99      0.00 
    3    5   15     -1.85      0.00 
    4    5   15     -0.84      0.00 
    5    5   15      0.45      0.00 
    6    5   15      0.20      0.00 
    7    5   15     -0.16      0.00 
    8    5   15     -0.60      0.00 
    9    5   15     -1.04      0.00 
   10    5   15     -0.79      0.00 
   11    5   15      0.42      0.00 
   -6    6   15     -0.10      0.00 
   -5    6   15     -0.21      0.00 
   -4    6   15      0.14      0.00 
   -3    6   15     -0.27      0.00 
   -2    6   15     -1.86      0.00 
   -1    6   15      1.20      0.00 
    0    6   15      0.38      0.00 
    1    6   15     -0.45      0.00 
    2    6   15      0.31      0.00 
    3    6   15     -1.32      0.00 
    4    6   15     -0.16      0.00 
    5    6   15      1.03      0.00 
    6    6   15      0.32      0.00 
    7    6   15     -0.55      0.00 
    8    6   15     -0.60      0.00 
    9    6   15     -0.28      0.00 
   10    6   15     -0.46      0.00 
   11    6   15      0.60      0.00 
   -6    7   15     -0.47      0.00 
   -5    7   15     -0.53      0.00 
   -4    7   15     -0.26      0.00 
   -3    7   15      0.18      0.00 
   -2    7   15     -1.22      0.00 
   -1    7   15      1.10      0.00 
    0    7   15     -0.02      0.00 
    1    7   15     -0.30      0.00 
    2    7   15      0.23      0.00 
    3    7   15     -0.66      0.00 
    4    7   15      0.52      0.00 
    5    7   15      0.61      0.00 
    6    7   15     -0.03      0.00 
    7    7   15     -0.96      0.00 
    8    7   15     -0.09      0.00 
    9    7   15     -0.18      0.00 
   10    7   15     -0.77      0.00 
   11    7   15      0.35      0.00 
   -5    8   15     -0.50      0.00 
   -4    8   15     -0.09      0.00 
   -3    8   15      0.81      0.00 
   -2    8   15     -0.47      0.00 
   -1    8   15      0.58      0.00 
    0    8   15     -0.17      0.00 
    1    8   15     -0.35      0.00 
    2    8   15     -0.29      0.00 
    3    8   15     -0.21      0.00 
    4    8   15      0.56      0.00 
    5    8   15      0.08      0.00 
    6    8   15     -0.47      0.00 
    7    8   15     -0.74      0.00 
    8    8   15      0.58      0.00 
    9    8   15     -0.42      0.00 
   10    8   15     -0.78      0.00 
   -4    9   15      0.28      0.00 
   -3    9   15      1.05      0.00 
   -2    9   15      0.17      0.00 
   -1    9   15     -0.10      0.00 
    0    9   15     -0.13      0.00 
    1    9   15     -0.67      0.00 
    2    9   15     -0.50      0.00 
    3    9   15      0.07      0.00 
    4    9   15      0.42      0.00 
    5    9   15      0.18      0.00 
    6    9   15     -0.54      0.00 
    7    9   15     -0.07      0.00 
    8    9   15      1.01      0.00 
    9    9   15     -0.43      0.00 
   10    9   15     -0.49      0.00 
   -3   10   15      0.91      0.00 
   -2   10   15      0.28      0.00 
   -1   10   15     -0.37      0.00 
    0   10   15     -0.07      0.00 
    1   10   15     -0.25      0.00 
    2   10   15      0.07      0.00 
    3   10   15     -0.10      0.00 
    4   10   15      0.42      0.00 
    5   10   15      0.33      0.00 
    6   10   15     -0.09      0.00 
    7   10   15      0.24      0.00 
    8   10   15      0.97      0.00 
    9   10   15     -0.50      0.00 
   -2   11   15      0.08      0.00 
   -1   11   15      0.06      0.00 
    0   11   15     -0.16      0.00 
    1   11   15      0.52      0.00 
    2   11   15      0.18      0.00 
    3   11   15     -0.44      0.00 
    4   11   15      0.32      0.00 
    5   11   15      0.19      0.00 
    6   11   15      0.35      0.00 
    7   11   15      0.01      0.00 
    8   11   15      0.62      0.00 
    9   11   15     -0.66      0.00 
   -1   12   15      0.36      0.00 
    0   12   15     -0.57      0.00 
    1   12   15      0.41      0.00 
    2   12   15     -0.28      0.00 
    3   12   15     -0.20      0.00 
    4   12   15     -0.03      0.00 
    5   12   15      0.04      0.00 
    6   12   15      0.26      0.00 
    7   12   15     -0.03      0.00 
    8   12   15      0.35      0.00 
    1   13   15     -0.12      0.00 
    2   13   15     -0.32      0.00 
    3   13   15      0.30      0.00 
    4   13   15     -0.30      0.00 
    5   13   15      0.07      0.00 
    6   13   15      0.01      0.00 
   -4  -10   16      0.02      0.00 
   -3  -10   16      0.64      0.00 
   -2  -10   16      0.50      0.00 
   -1  -10   16      1.13      0.00 
    0  -10   16     -0.43      0.00 
    1  -10   16      0.13      0.00 
    2  -10   16      0.73      0.00 
   -5   -9   16      0.11      0.00 
   -4   -9   16      0.58      0.00 
   -3   -9   16      1.42      0.00 
   -2   -9   16      0.73      0.00 
   -1   -9   16      1.39      0.00 
    0   -9   16     -0.05      0.00 
    1   -9   16      0.40      0.00 
    2   -9   16      0.73      0.00 
    3   -9   16      0.03      0.00 
    4   -9   16     -0.65      0.00 
   -6   -8   16     -0.06      0.00 
   -5   -8   16      0.19      0.00 
   -4   -8   16      0.81      0.00 
   -3   -8   16      1.50      0.00 
   -2   -8   16      0.39      0.00 
   -1   -8   16      1.33      0.00 
    0   -8   16      0.65      0.00 
    1   -8   16      0.31      0.00 
    2   -8   16      0.49      0.00 
    3   -8   16     -0.45      0.00 
    4   -8   16     -1.18      0.00 
    5   -8   16     -0.68      0.00 
   -7   -7   16      0.11      0.00 
   -6   -7   16      0.10      0.00 
   -5   -7   16      0.17      0.00 
   -4   -7   16      0.60      0.00 
   -3   -7   16      1.02      0.00 
   -2   -7   16      0.11      0.00 
   -1   -7   16      1.11      0.00 
    0   -7   16      1.36      0.00 
    1   -7   16     -0.06      0.00 
    2   -7   16      0.58      0.00 
    3   -7   16     -0.67      0.00 
    4   -7   16     -0.71      0.00 
    5   -7   16     -0.38      0.00 
    6   -7   16      0.09      0.00 
   -7   -6   16      0.08      0.00 
   -6   -6   16      0.25      0.00 
   -5   -6   16      0.31      0.00 
   -4   -6   16      0.50      0.00 
   -3   -6   16      0.61      0.00 
   -2   -6   16      0.19      0.00 
   -1   -6   16      0.82      0.00 
    0   -6   16      2.15      0.00 
    1   -6   16     -0.28      0.00 
    2   -6   16      1.12      0.00 
    3   -6   16     -0.35      0.00 
    4   -6   16      0.33      0.00 
    5   -6   16     -0.04      0.00 
    6   -6   16     -0.04      0.00 
    7   -6   16      0.06      0.00 
   -8   -5   16      0.04      0.00 
   -7   -5   16      0.27      0.00 
   -6   -5   16      0.36      0.00 
   -5   -5   16      0.55      0.00 
   -4   -5   16      0.68      0.00 
   -3   -5   16      0.38      0.00 
   -2   -5   16      0.18      0.00 
   -1   -5   16      0.64      0.00 
    0   -5   16      3.09      0.00 
    1   -5   16     -0.82      0.00 
    2   -5   16      1.51      0.00 
    3   -5   16     -0.08      0.00 
    4   -5   16      0.82      0.00 
    5   -5   16      0.12      0.00 
    6   -5   16     -0.48      0.00 
    7   -5   16     -0.09      0.00 
    8   -5   16     -0.07      0.00 
   -8   -4   16      0.50      0.00 
   -7   -4   16      0.49      0.00 
   -6   -4   16      0.16      0.00 
   -5   -4   16      0.51      0.00 
   -4   -4   16      0.64      0.00 
   -3   -4   16      0.15      0.00 
   -2   -4   16     -0.17      0.00 
   -1   -4   16      0.77      0.00 
    0   -4   16      3.40      0.00 
    1   -4   16     -2.11      0.00 
    2   -4   16      1.74      0.00 
    3   -4   16     -0.21      0.00 
    4   -4   16      0.90      0.00 
    5   -4   16      0.36      0.00 
    6   -4   16     -0.98      0.00 
    7   -4   16      0.03      0.00 
    8   -4   16      0.11      0.00 
   -8   -3   16      0.42      0.00 
   -7   -3   16      0.64      0.00 
   -6   -3   16     -0.38      0.00 
   -5   -3   16      0.29      0.00 
   -4   -3   16      0.06      0.00 
   -3   -3   16      0.16      0.00 
   -2   -3   16     -0.36      0.00 
   -1   -3   16      0.91      0.00 
    0   -3   16      2.51      0.00 
    1   -3   16     -2.99      0.00 
    2   -3   16      2.18      0.00 
    3   -3   16     -0.42      0.00 
    4   -3   16      1.09      0.00 
    5   -3   16      0.29      0.00 
    6   -3   16     -1.11      0.00 
    7   -3   16      0.43      0.00 
    8   -3   16      0.44      0.00 
    9   -3   16     -0.05      0.00 
   -8   -2   16      0.09      0.00 
   -7   -2   16      0.51      0.00 
   -6   -2   16     -0.59      0.00 
   -5   -2   16      0.09      0.00 
   -4   -2   16     -0.59      0.00 
   -3   -2   16      0.69      0.00 
   -2   -2   16     -0.11      0.00 
   -1   -2   16      0.55      0.00 
    0   -2   16      1.22      0.00 
    1   -2   16     -2.21      0.00 
    2   -2   16      2.53      0.00 
    3   -2   16     -0.55      0.00 
    4   -2   16      0.86      0.00 
    5   -2   16     -0.29      0.00 
    6   -2   16     -0.47      0.00 
    7   -2   16      0.68      0.00 
    8   -2   16      0.50      0.00 
    9   -2   16     -0.17      0.00 
   -8   -1   16     -0.12      0.00 
   -7   -1   16      0.12      0.00 
   -6   -1   16     -0.18      0.00 
   -5   -1   16     -0.21      0.00 
   -4   -1   16     -0.56      0.00 
   -3   -1   16      1.09      0.00 
   -2   -1   16      0.12      0.00 
   -1   -1   16     -0.21      0.00 
    0   -1   16      0.74      0.00 
    1   -1   16     -0.40      0.00 
    2   -1   16      2.15      0.00 
    3   -1   16     -0.87      0.00 
    4   -1   16      0.11      0.00 
    5   -1   16     -0.49      0.00 
    6   -1   16      0.56      0.00 
    7   -1   16      0.41      0.00 
    8   -1   16      0.18      0.00 
    9   -1   16     -0.09      0.00 
   10   -1   16      0.37      0.00 
   -8    0   16     -0.48      0.00 
   -7    0   16     -0.07      0.00 
   -6    0   16      0.13      0.00 
   -5    0   16     -0.41      0.00 
   -4    0   16     -0.05      0.00 
   -3    0   16      0.61      0.00 
   -2    0   16      0.19      0.00 
   -1    0   16     -0.60      0.00 
    0    0   16      1.03      0.00 
    1    0   16      1.02      0.00 
    2    0   16      0.94      0.00 
    3    0   16     -1.29      0.00 
    4    0   16     -0.21      0.00 
    5    0   16      0.00      0.00 
    6    0   16      0.94      0.00 
    7    0   16     -0.14      0.00 
    8    0   16     -0.24      0.00 
    9    0   16     -0.02      0.00 
   10    0   16      0.08      0.00 
   -8    1   16     -0.93      0.00 
   -7    1   16      0.23      0.00 
   -6    1   16      0.00      0.00 
   -5    1   16     -0.19      0.00 
   -4    1   16      0.09      0.00 
   -3    1   16     -0.01      0.00 
   -2    1   16      0.55      0.00 
   -1    1   16     -0.39      0.00 
    0    1   16      1.12      0.00 
    1    1   16      1.57      0.00 
    2    1   16     -0.82      0.00 
    3    1   16     -1.16      0.00 
    4    1   16      0.09      0.00 
    5    1   16      0.28      0.00 
    6    1   16      0.44      0.00 
    7    1   16     -0.37      0.00 
    8    1   16     -0.39      0.00 
    9    1   16      0.12      0.00 
   10    1   16      0.41      0.00 
   -8    2   16     -0.84      0.00 
   -7    2   16      0.62      0.00 
   -6    2   16     -0.05      0.00 
   -5    2   16      0.06      0.00 
   -4    2   16     -0.02      0.00 
   -3    2   16      0.12      0.00 
   -2    2   16      1.06      0.00 
   -1    2   16     -0.25      0.00 
    0    2   16      0.70      0.00 
    1    2   16      1.48      0.00 
    2    2   16     -2.50      0.00 
    3    2   16     -0.22      0.00 
    4    2   16      0.15      0.00 
    5    2   16      0.17      0.00 
    6    2   16      0.04      0.00 
    7    2   16     -0.02      0.00 
    8    2   16     -0.21      0.00 
    9    2   16      0.62      0.00 
   10    2   16      1.30      0.00 
   11    2   16      0.59      0.00 
   -7    3   16      0.58      0.00 
   -6    3   16      0.12      0.00 
   -5    3   16     -0.05      0.00 
   -4    3   16      0.01      0.00 
   -3    3   16      0.39      0.00 
   -2    3   16      1.34      0.00 
   -1    3   16     -0.37      0.00 
    0    3   16      0.19      0.00 
    1    3   16      0.90      0.00 
    2    3   16     -3.03      0.00 
    3    3   16      1.03      0.00 
    4    3   16      0.08      0.00 
    5    3   16      0.30      0.00 
    6    3   16      0.13      0.00 
    7    3   16      0.34      0.00 
    8    3   16      0.13      0.00 
    9    3   16      1.36      0.00 
   10    3   16      1.87      0.00 
   11    3   16      0.86      0.00 
   -7    4   16      0.20      0.00 
   -6    4   16      0.09      0.00 
   -5    4   16     -0.20      0.00 
   -4    4   16     -0.14      0.00 
   -3    4   16      0.31      0.00 
   -2    4   16      1.58      0.00 
   -1    4   16     -0.58      0.00 
    0    4   16     -0.31      0.00 
    1    4   16      0.28      0.00 
    2    4   16     -1.93      0.00 
    3    4   16      1.82      0.00 
    4    4   16      0.43      0.00 
    5    4   16      0.18      0.00 
    6    4   16      0.09      0.00 
    7    4   16      0.33      0.00 
    8    4   16      0.59      0.00 
    9    4   16      1.58      0.00 
   10    4   16      1.41      0.00 
   11    4   16      0.46      0.00 
   -7    5   16     -0.14      0.00 
   -6    5   16     -0.07      0.00 
   -5    5   16     -0.09      0.00 
   -4    5   16     -0.36      0.00 
   -3    5   16      0.36      0.00 
   -2    5   16      1.69      0.00 
   -1    5   16     -0.93      0.00 
    0    5   16     -0.58      0.00 
    1    5   16      0.28      0.00 
    2    5   16     -0.54      0.00 
    3    5   16      1.66      0.00 
    4    5   16      0.51      0.00 
    5    5   16     -0.61      0.00 
    6    5   16     -0.19      0.00 
    7    5   16      0.34      0.00 
    8    5   16      0.96      0.00 
    9    5   16      0.84      0.00 
   10    5   16      0.49      0.00 
   11    5   16     -0.25      0.00 
   -6    6   16      0.09      0.00 
   -5    6   16      0.22      0.00 
   -4    6   16     -0.14      0.00 
   -3    6   16      0.24      0.00 
   -2    6   16      1.31      0.00 
   -1    6   16     -1.20      0.00 
    0    6   16     -0.27      0.00 
    1    6   16      0.44      0.00 
    2    6   16     -0.22      0.00 
    3    6   16      0.86      0.00 
    4    6   16     -0.11      0.00 
    5    6   16     -0.98      0.00 
    6    6   16     -0.20      0.00 
    7    6   16      0.63      0.00 
    8    6   16      0.78      0.00 
    9    6   16      0.01      0.00 
   10    6   16      0.34      0.00 
   11    6   16     -0.46      0.00 
   -6    7   16      0.41      0.00 
   -5    7   16      0.40      0.00 
   -4    7   16      0.07      0.00 
   -3    7   16     -0.51      0.00 
   -2    7   16      0.76      0.00 
   -1    7   16     -0.99      0.00 
    0    7   16      0.19      0.00 
    1    7   16      0.29      0.00 
    2    7   16     -0.16      0.00 
    3    7   16      0.22      0.00 
    4    7   16     -0.58      0.00 
    5    7   16     -0.40      0.00 
    6    7   16      0.10      0.00 
    7    7   16      0.73      0.00 
    8    7   16      0.10      0.00 
    9    7   16     -0.03      0.00 
   10    7   16      0.79      0.00 
   -5    8   16      0.25      0.00 
   -4    8   16     -0.27      0.00 
   -3    8   16     -1.16      0.00 
   -2    8   16      0.40      0.00 
   -1    8   16     -0.36      0.00 
    0    8   16      0.29      0.00 
    1    8   16      0.41      0.00 
    2    8   16      0.42      0.00 
    3    8   16     -0.11      0.00 
    4    8   16     -0.46      0.00 
    5    8   16     -0.01      0.00 
    6    8   16      0.43      0.00 
    7    8   16      0.22      0.00 
    8    8   16     -0.60      0.00 
    9    8   16      0.23      0.00 
   10    8   16      0.81      0.00 
   -4    9   16     -0.56      0.00 
   -3    9   16     -1.08      0.00 
   -2    9   16      0.15      0.00 
   -1    9   16      0.30      0.00 
    0    9   16      0.19      0.00 
    1    9   16      0.63      0.00 
    2    9   16      0.42      0.00 
    3    9   16     -0.21      0.00 
    4    9   16     -0.36      0.00 
    5    9   16     -0.26      0.00 
    6    9   16      0.49      0.00 
    7    9   16     -0.50      0.00 
    8    9   16     -0.90      0.00 
    9    9   16      0.25      0.00 
   10    9   16      0.52      0.00 
   -3   10   16     -0.70      0.00 
   -2   10   16      0.06      0.00 
   -1   10   16      0.47      0.00 
    0   10   16      0.10      0.00 
    1   10   16      0.04      0.00 
    2   10   16     -0.25      0.00 
    3   10   16      0.14      0.00 
    4   10   16     -0.49      0.00 
    5   10   16     -0.39      0.00 
    6   10   16      0.12      0.00 
    7   10   16     -0.59      0.00 
    8   10   16     -0.73      0.00 
    9   10   16      0.33      0.00 
   -2   11   16      0.04      0.00 
   -1   11   16      0.06      0.00 
    0   11   16      0.26      0.00 
    1   11   16     -0.62      0.00 
    2   11   16     -0.25      0.00 
    3   11   16      0.51      0.00 
    4   11   16     -0.44      0.00 
    5   11   16     -0.20      0.00 
    6   11   16     -0.23      0.00 
    7   11   16     -0.10      0.00 
    8   11   16     -0.39      0.00 
    0   12   16      0.72      0.00 
    1   12   16     -0.38      0.00 
    2   12   16      0.25      0.00 
    3   12   16      0.25      0.00 
    4   12   16     -0.06      0.00 
    5   12   16     -0.14      0.00 
    6   12   16     -0.15      0.00 
    7   12   16      0.04      0.00 
    2   13   16      0.27      0.00 
    3   13   16     -0.21      0.00 
    4   13   16      0.21      0.00 
    5   13   16     -0.25      0.00 
   -3  -10   17     -0.63      0.00 
   -2  -10   17     -0.46      0.00 
   -1  -10   17     -0.80      0.00 
    0  -10   17      0.35      0.00 
    1  -10   17     -0.25      0.00 
   -5   -9   17     -0.41      0.00 
   -4   -9   17     -0.79      0.00 
   -3   -9   17     -1.28      0.00 
   -2   -9   17     -0.54      0.00 
   -1   -9   17     -1.13      0.00 
    0   -9   17     -0.11      0.00 
    1   -9   17     -0.37      0.00 
    2   -9   17     -0.78      0.00 
    3   -9   17      0.05      0.00 
   -6   -8   17     -0.13      0.00 
   -5   -8   17     -0.25      0.00 
   -4   -8   17     -0.84      0.00 
   -3   -8   17     -1.31      0.00 
   -2   -8   17     -0.22      0.00 
   -1   -8   17     -1.19      0.00 
    0   -8   17     -0.77      0.00 
    1   -8   17     -0.17      0.00 
    2   -8   17     -0.43      0.00 
    3   -8   17      0.45      0.00 
    4   -8   17      1.20      0.00 
    5   -8   17      0.69      0.00 
   -6   -7   17     -0.21      0.00 
   -5   -7   17     -0.06      0.00 
   -4   -7   17     -0.61      0.00 
   -3   -7   17     -0.90      0.00 
   -2   -7   17     -0.06      0.00 
   -1   -7   17     -1.04      0.00 
    0   -7   17     -1.40      0.00 
    1   -7   17      0.14      0.00 
    2   -7   17     -0.46      0.00 
    3   -7   17      0.52      0.00 
    4   -7   17      0.61      0.00 
    5   -7   17      0.42      0.00 
    6   -7   17     -0.09      0.00 
   -7   -6   17     -0.13      0.00 
   -6   -6   17     -0.26      0.00 
   -5   -6   17     -0.31      0.00 
   -4   -6   17     -0.58      0.00 
   -3   -6   17     -0.54      0.00 
   -2   -6   17     -0.14      0.00 
   -1   -6   17     -0.78      0.00 
    0   -6   17     -2.06      0.00 
    1   -6   17      0.25      0.00 
    2   -6   17     -1.01      0.00 
    3   -6   17      0.20      0.00 
    4   -6   17     -0.36      0.00 
    5   -6   17      0.22      0.00 
    6   -6   17      0.08      0.00 
    7   -6   17     -0.07      0.00 
   -7   -5   17     -0.27      0.00 
   -6   -5   17     -0.24      0.00 
   -5   -5   17     -0.73      0.00 
   -4   -5   17     -0.70      0.00 
   -3   -5   17     -0.26      0.00 
   -2   -5   17      0.02      0.00 
   -1   -5   17     -0.65      0.00 
    0   -5   17     -2.69      0.00 
    1   -5   17      0.67      0.00 
    2   -5   17     -1.47      0.00 
    3   -5   17      0.09      0.00 
    4   -5   17     -0.70      0.00 
    5   -5   17      0.01      0.00 
    6   -5   17      0.34      0.00 
    7   -5   17     -0.14      0.00 
    8   -5   17     -0.01      0.00 
   -8   -4   17     -0.44      0.00 
   -7   -4   17     -0.33      0.00 
   -6   -4   17      0.09      0.00 
   -5   -4   17     -0.74      0.00 
   -4   -4   17     -0.53      0.00 
   -3   -4   17      0.00      0.00 
   -2   -4   17      0.46      0.00 
   -1   -4   17     -0.80      0.00 
    0   -4   17     -2.70      0.00 
    1   -4   17      1.75      0.00 
    2   -4   17     -1.72      0.00 
    3   -4   17      0.38      0.00 
    4   -4   17     -0.73      0.00 
    5   -4   17     -0.38      0.00 
    6   -4   17      0.73      0.00 
    7   -4   17     -0.39      0.00 
    8   -4   17     -0.27      0.00 
   -8   -3   17     -0.13      0.00 
   -7   -3   17     -0.37      0.00 
   -6   -3   17      0.68      0.00 
   -5   -3   17     -0.43      0.00 
   -4   -3   17      0.07      0.00 
   -3   -3   17     -0.08      0.00 
   -2   -3   17      0.62      0.00 
   -1   -3   17     -0.89      0.00 
    0   -3   17     -1.79      0.00 
    1   -3   17      2.37      0.00 
    2   -3   17     -2.07      0.00 
    3   -3   17      0.68      0.00 
    4   -3   17     -0.80      0.00 
    5   -3   17     -0.29      0.00 
    6   -3   17      0.89      0.00 
    7   -3   17     -0.79      0.00 
    8   -3   17     -0.58      0.00 
    9   -3   17      0.18      0.00 
   -8   -2   17      0.19      0.00 
   -7   -2   17     -0.26      0.00 
   -6   -2   17      0.88      0.00 
   -5   -2   17     -0.07      0.00 
   -4   -2   17      0.60      0.00 
   -3   -2   17     -0.69      0.00 
   -2   -2   17      0.35      0.00 
   -1   -2   17     -0.46      0.00 
    0   -2   17     -0.78      0.00 
    1   -2   17      1.60      0.00 
    2   -2   17     -2.21      0.00 
    3   -2   17      0.88      0.00 
    4   -2   17     -0.49      0.00 
    5   -2   17      0.25      0.00 
    6   -2   17      0.25      0.00 
    7   -2   17     -0.87      0.00 
    8   -2   17     -0.53      0.00 
    9   -2   17      0.26      0.00 
   -8   -1   17      0.24      0.00 
   -7   -1   17     -0.01      0.00 
   -6   -1   17      0.49      0.00 
   -5   -1   17      0.35      0.00 
   -4   -1   17      0.44      0.00 
   -3   -1   17     -1.00      0.00 
   -2   -1   17      0.16      0.00 
   -1   -1   17      0.29      0.00 
    0   -1   17     -0.53      0.00 
    1   -1   17      0.16      0.00 
    2   -1   17     -1.68      0.00 
    3   -1   17      1.16      0.00 
    4   -1   17      0.06      0.00 
    5   -1   17      0.20      0.00 
    6   -1   17     -0.76      0.00 
    7   -1   17     -0.30      0.00 
    8   -1   17     -0.09      0.00 
    9   -1   17      0.16      0.00 
   10   -1   17     -0.36      0.00 
   -8    0   17      0.42      0.00 
   -7    0   17     -0.02      0.00 
   -6    0   17      0.17      0.00 
   -5    0   17      0.52      0.00 
   -4    0   17     -0.11      0.00 
   -3    0   17     -0.38      0.00 
   -2    0   17      0.02      0.00 
   -1    0   17      0.62      0.00 
    0    0   17     -0.83      0.00 
    1    0   17     -0.79      0.00 
    2    0   17     -0.51      0.00 
    3    0   17      1.31      0.00 
    4    0   17      0.05      0.00 
    5    0   17     -0.40      0.00 
    6    0   17     -0.94      0.00 
    7    0   17      0.52      0.00 
    8    0   17      0.40      0.00 
    9    0   17      0.09      0.00 
   10    0   17     -0.24      0.00 
   -8    1   17      0.69      0.00 
   -7    1   17     -0.50      0.00 
   -6    1   17      0.16      0.00 
   -5    1   17      0.20      0.00 
   -4    1   17     -0.26      0.00 
   -3    1   17      0.22      0.00 
   -2    1   17     -0.52      0.00 
   -1    1   17      0.48      0.00 
    0    1   17     -0.89      0.00 
    1    1   17     -1.00      0.00 
    2    1   17      1.03      0.00 
    3    1   17      0.85      0.00 
    4    1   17     -0.22      0.00 
    5    1   17     -0.46      0.00 
    6    1   17     -0.29      0.00 
    7    1   17      0.79      0.00 
    8    1   17      0.53      0.00 
    9    1   17     -0.05      0.00 
   10    1   17     -0.67      0.00 
   -7    2   17     -0.89      0.00 
   -6    2   17      0.05      0.00 
   -5    2   17     -0.08      0.00 
   -4    2   17     -0.18      0.00 
   -3    2   17     -0.05      0.00 
   -2    2   17     -1.12      0.00 
   -1    2   17      0.42      0.00 
    0    2   17     -0.52      0.00 
    1    2   17     -0.71      0.00 
    2    2   17      2.36      0.00 
    3    2   17     -0.26      0.00 
    4    2   17      0.01      0.00 
    5    2   17     -0.16      0.00 
    6    2   17      0.08      0.00 
    7    2   17      0.39      0.00 
    8    2   17      0.24      0.00 
    9    2   17     -0.53      0.00 
   10    2   17     -1.49      0.00 
   -7    3   17     -0.69      0.00 
   -6    3   17     -0.18      0.00 
   -5    3   17      0.03      0.00 
   -4    3   17     -0.26      0.00 
   -3    3   17     -0.39      0.00 
   -2    3   17     -1.35      0.00 
   -1    3   17      0.55      0.00 
    0    3   17     -0.05      0.00 
    1    3   17     -0.10      0.00 
    2    3   17      2.47      0.00 
    3    3   17     -1.45      0.00 
    4    3   17      0.24      0.00 
    5    3   17     -0.20      0.00 
    6    3   17     -0.04      0.00 
    7    3   17     -0.07      0.00 
    8    3   17     -0.33      0.00 
    9    3   17     -1.16      0.00 
   10    3   17     -1.88      0.00 
   -7    4   17     -0.17      0.00 
   -6    4   17     -0.15      0.00 
   -5    4   17      0.20      0.00 
   -4    4   17     -0.14      0.00 
   -3    4   17     -0.31      0.00 
   -2    4   17     -1.47      0.00 
   -1    4   17      0.78      0.00 
    0    4   17      0.37      0.00 
    1    4   17      0.25      0.00 
    2    4   17      1.23      0.00 
    3    4   17     -1.95      0.00 
    4    4   17     -0.09      0.00 
    5    4   17      0.01      0.00 
    6    4   17     -0.04      0.00 
    7    4   17     -0.27      0.00 
    8    4   17     -0.96      0.00 
    9    4   17     -1.18      0.00 
   10    4   17     -1.24      0.00 
   -6    5   17      0.01      0.00 
   -5    5   17      0.13      0.00 
   -4    5   17      0.10      0.00 
   -3    5   17     -0.24      0.00 
   -2    5   17     -1.36      0.00 
   -1    5   17      1.16      0.00 
    0    5   17      0.42      0.00 
    1    5   17     -0.05      0.00 
    2    5   17      0.18      0.00 
    3    5   17     -1.44      0.00 
    4    5   17     -0.17      0.00 
    5    5   17      0.73      0.00 
    6    5   17      0.12      0.00 
    7    5   17     -0.46      0.00 
    8    5   17     -1.22      0.00 
    9    5   17     -0.33      0.00 
   10    5   17     -0.31      0.00 
   -6    6   17     -0.10      0.00 
   -5    6   17     -0.07      0.00 
   -4    6   17      0.01      0.00 
   -3    6   17      0.06      0.00 
   -2    6   17     -0.80      0.00 
   -1    6   17      1.32      0.00 
    0    6   17     -0.05      0.00 
    1    6   17     -0.32      0.00 
    2    6   17      0.17      0.00 
    3    6   17     -0.52      0.00 
    4    6   17      0.31      0.00 
    5    6   17      0.82      0.00 
    6    6   17      0.13      0.00 
    7    6   17     -0.63      0.00 
    8    6   17     -0.77      0.00 
    9    6   17      0.37      0.00 
   10    6   17     -0.26      0.00 
   -5    7   17     -0.15      0.00 
   -4    7   17      0.06      0.00 
   -3    7   17      0.84      0.00 
   -2    7   17     -0.35      0.00 
   -1    7   17      0.89      0.00 
    0    7   17     -0.44      0.00 
    1    7   17     -0.29      0.00 
    2    7   17      0.11      0.00 
    3    7   17      0.08      0.00 
    4    7   17      0.49      0.00 
    5    7   17      0.18      0.00 
    6    7   17      0.04      0.00 
    7    7   17     -0.43      0.00 
    8    7   17      0.08      0.00 
    9    7   17      0.16      0.00 
   10    7   17     -0.67      0.00 
   -5    8   17      0.02      0.00 
   -4    8   17      0.57      0.00 
   -3    8   17      1.17      0.00 
   -2    8   17     -0.35      0.00 
   -1    8   17      0.15      0.00 
    0    8   17     -0.39      0.00 
    1    8   17     -0.52      0.00 
    2    8   17     -0.41      0.00 
    3    8   17      0.36      0.00 
    4    8   17      0.19      0.00 
    5    8   17      0.03      0.00 
    6    8   17     -0.14      0.00 
    7    8   17      0.25      0.00 
    8    8   17      0.72      0.00 
    9    8   17     -0.28      0.00 
   10    8   17     -0.59      0.00 
   -4    9   17      0.77      0.00 
   -3    9   17      0.66      0.00 
   -2    9   17     -0.39      0.00 
   -1    9   17     -0.45      0.00 
    0    9   17     -0.16      0.00 
    1    9   17     -0.60      0.00 
    2    9   17     -0.23      0.00 
    3    9   17      0.36      0.00 
    4    9   17      0.11      0.00 
    5    9   17      0.42      0.00 
    6    9   17     -0.29      0.00 
    7    9   17      0.82      0.00 
    8    9   17      0.86      0.00 
    9    9   17     -0.38      0.00 
   -3   10   17      0.14      0.00 
   -2   10   17     -0.24      0.00 
   -1   10   17     -0.48      0.00 
    0   10   17     -0.01      0.00 
    1   10   17      0.08      0.00 
    2   10   17      0.37      0.00 
    3   10   17     -0.12      0.00 
    4   10   17      0.33      0.00 
    5   10   17      0.47      0.00 
    6   10   17     -0.11      0.00 
    7   10   17      0.60      0.00 
    8   10   17      0.64      0.00 
    9   10   17     -0.41      0.00 
   -1   11   17     -0.13      0.00 
    0   11   17     -0.22      0.00 
    1   11   17      0.58      0.00 
    2   11   17      0.18      0.00 
    3   11   17     -0.53      0.00 
    4   11   17      0.35      0.00 
    5   11   17      0.25      0.00 
    6   11   17      0.18      0.00 
    7   11   17     -0.08      0.00 
    8   11   17      0.40      0.00 
    0   12   17     -0.67      0.00 
    1   12   17      0.26      0.00 
    2   12   17     -0.29      0.00 
    3   12   17     -0.30      0.00 
    4   12   17      0.03      0.00 
    5   12   17      0.28      0.00 
    6   12   17      0.16      0.00 
    7   12   17     -0.25      0.00 
    3   13   17      0.05      0.00 
    4   13   17     -0.18      0.00 
   -1  -10   18      0.61      0.00 
    0  -10   18     -0.31      0.00 
   -4   -9   18      0.78      0.00 
   -3   -9   18      1.01      0.00 
   -2   -9   18      0.17      0.00 
   -1   -9   18      0.99      0.00 
    0   -9   18      0.21      0.00 
    1   -9   18      0.30      0.00 
    2   -9   18      0.70      0.00 
    3   -9   18     -0.05      0.00 
   -5   -8   18      0.15      0.00 
   -4   -8   18      0.70      0.00 
   -3   -8   18      0.96      0.00 
   -2   -8   18     -0.05      0.00 
   -1   -8   18      1.16      0.00 
    0   -8   18      0.91      0.00 
    1   -8   18      0.04      0.00 
    2   -8   18      0.32      0.00 
    3   -8   18     -0.31      0.00 
    4   -8   18     -1.16      0.00 
   -6   -7   18      0.19      0.00 
   -5   -7   18     -0.10      0.00 
   -4   -7   18      0.57      0.00 
   -3   -7   18      0.57      0.00 
   -2   -7   18      0.01      0.00 
   -1   -7   18      1.02      0.00 
    0   -7   18      1.57      0.00 
    1   -7   18     -0.29      0.00 
    2   -7   18      0.33      0.00 
    3   -7   18     -0.31      0.00 
    4   -7   18     -0.55      0.00 
    5   -7   18     -0.33      0.00 
   -6   -6   18      0.21      0.00 
   -5   -6   18      0.26      0.00 
   -4   -6   18      0.67      0.00 
   -3   -6   18      0.18      0.00 
   -2   -6   18      0.16      0.00 
   -1   -6   18      0.67      0.00 
    0   -6   18      2.16      0.00 
    1   -6   18     -0.48      0.00 
    2   -6   18      0.89      0.00 
    3   -6   18     -0.13      0.00 
    4   -6   18      0.28      0.00 
    5   -6   18     -0.30      0.00 
    6   -6   18     -0.03      0.00 
   -7   -5   18      0.23      0.00 
   -6   -5   18      0.12      0.00 
   -5   -5   18      0.79      0.00 
   -4   -5   18      0.76      0.00 
   -3   -5   18     -0.20      0.00 
   -2   -5   18     -0.08      0.00 
   -1   -5   18      0.43      0.00 
    0   -5   18      2.56      0.00 
    1   -5   18     -0.91      0.00 
    2   -5   18      1.43      0.00 
    3   -5   18     -0.24      0.00 
    4   -5   18      0.56      0.00 
    5   -5   18     -0.02      0.00 
    6   -5   18     -0.06      0.00 
    7   -5   18      0.46      0.00 
   -7   -4   18      0.11      0.00 
   -6   -4   18     -0.25      0.00 
   -5   -4   18      0.80      0.00 
   -4   -4   18      0.52      0.00 
   -3   -4   18     -0.47      0.00 
   -2   -4   18     -0.58      0.00 
   -1   -4   18      0.48      0.00 
    0   -4   18      2.35      0.00 
    1   -4   18     -1.70      0.00 
    2   -4   18      1.76      0.00 
    3   -4   18     -0.58      0.00 
    4   -4   18      0.63      0.00 
    5   -4   18      0.44      0.00 
    6   -4   18     -0.42      0.00 
    7   -4   18      0.81      0.00 
    8   -4   18      0.18      0.00 
   -7   -3   18      0.08      0.00 
   -6   -3   18     -0.83      0.00 
   -5   -3   18      0.43      0.00 
   -4   -3   18     -0.05      0.00 
   -3   -3   18     -0.25      0.00 
   -2   -3   18     -0.70      0.00 
   -1   -3   18      0.50      0.00 
    0   -3   18      1.48      0.00 
    1   -3   18     -1.94      0.00 
    2   -3   18      2.03      0.00 
    3   -3   18     -0.86      0.00 
    4   -3   18      0.65      0.00 
    5   -3   18      0.28      0.00 
    6   -3   18     -0.75      0.00 
    7   -3   18      1.19      0.00 
    8   -3   18      0.40      0.00 
   -7   -2   18      0.03      0.00 
   -6   -2   18     -1.00      0.00 
   -5   -2   18     -0.01      0.00 
   -4   -2   18     -0.48      0.00 
   -3   -2   18      0.49      0.00 
   -2   -2   18     -0.45      0.00 
   -1   -2   18      0.08      0.00 
    0   -2   18      0.63      0.00 
    1   -2   18     -1.12      0.00 
    2   -2   18      1.94      0.00 
    3   -2   18     -1.09      0.00 
    4   -2   18      0.27      0.00 
    5   -2   18     -0.19      0.00 
    6   -2   18     -0.24      0.00 
    7   -2   18      1.08      0.00 
    8   -2   18      0.20      0.00 
    9   -2   18     -0.23      0.00 
   -7   -1   18     -0.09      0.00 
   -6   -1   18     -0.65      0.00 
   -5   -1   18     -0.45      0.00 
   -4   -1   18     -0.24      0.00 
   -3   -1   18      0.81      0.00 
   -2   -1   18     -0.32      0.00 
   -1   -1   18     -0.54      0.00 
    0   -1   18      0.43      0.00 
    1   -1   18      0.03      0.00 
    2   -1   18      1.24      0.00 
    3   -1   18     -1.34      0.00 
    4   -1   18     -0.07      0.00 
    5   -1   18      0.09      0.00 
    6   -1   18      0.61      0.00 
    7   -1   18      0.23      0.00 
    8   -1   18     -0.33      0.00 
    9   -1   18     -0.13      0.00 
   -7    0   18      0.07      0.00 
   -6    0   18     -0.31      0.00 
   -5    0   18     -0.51      0.00 
   -4    0   18      0.30      0.00 
   -3    0   18      0.18      0.00 
   -2    0   18     -0.14      0.00 
   -1    0   18     -0.76      0.00 
    0    0   18      0.62      0.00 
    1    0   18      0.66      0.00 
    2    0   18      0.10      0.00 
    3    0   18     -1.27      0.00 
    4    0   18      0.16      0.00 
    5    0   18      0.71      0.00 
    6    0   18      0.57      0.00 
    7    0   18     -0.75      0.00 
    8    0   18     -0.79      0.00 
    9    0   18     -0.04      0.00 
   10    0   18      0.30      0.00 
   -7    1   18      0.62      0.00 
   -6    1   18     -0.17      0.00 
   -5    1   18     -0.07      0.00 
   -4    1   18      0.39      0.00 
   -3    1   18     -0.31      0.00 
   -2    1   18      0.46      0.00 
   -1    1   18     -0.60      0.00 
    0    1   18      0.61      0.00 
    1    1   18      0.69      0.00 
    2    1   18     -1.20      0.00 
    3    1   18     -0.57      0.00 
    4    1   18      0.30      0.00 
    5    1   18      0.56      0.00 
    6    1   18     -0.17      0.00 
    7    1   18     -0.99      0.00 
    8    1   18     -0.85      0.00 
    9    1   18      0.13      0.00 
   10    1   18      0.65      0.00 
   -7    2   18      0.93      0.00 
   -6    2   18      0.06      0.00 
   -5    2   18      0.24      0.00 
   -4    2   18      0.28      0.00 
   -3    2   18      0.11      0.00 
   -2    2   18      0.99      0.00 
   -1    2   18     -0.50      0.00 
    0    2   18      0.26      0.00 
    1    2   18      0.30      0.00 
    2    2   18     -2.16      0.00 
    3    2   18      0.64      0.00 
    4    2   18     -0.20      0.00 
    5    2   18      0.14      0.00 
    6    2   18     -0.47      0.00 
    7    2   18     -0.53      0.00 
    8    2   18     -0.44      0.00 
    9    2   18      0.58      0.00 
   10    2   18      1.24      0.00 
   -7    3   18      0.58      0.00 
   -6    3   18      0.28      0.00 
   -5    3   18      0.13      0.00 
   -4    3   18      0.34      0.00 
   -3    3   18      0.50      0.00 
   -2    3   18      1.07      0.00 
   -1    3   18     -0.53      0.00 
    0    3   18     -0.26      0.00 
    1    3   18     -0.24      0.00 
    2    3   18     -1.95      0.00 
    3    3   18      1.73      0.00 
    4    3   18     -0.49      0.00 
    5    3   18      0.11      0.00 
    6    3   18     -0.28      0.00 
    7    3   18      0.00      0.00 
    8    3   18      0.30      0.00 
    9    3   18      1.06      0.00 
   10    3   18      1.39      0.00 
   -6    4   18      0.21      0.00 
   -5    4   18     -0.01      0.00 
   -4    4   18      0.20      0.00 
   -3    4   18      0.34      0.00 
   -2    4   18      1.01      0.00 
   -1    4   18     -0.70      0.00 
    0    4   18     -0.65      0.00 
    1    4   18     -0.32      0.00 
    2    4   18     -0.73      0.00 
    3    4   18      1.99      0.00 
    4    4   18     -0.17      0.00 
    5    4   18     -0.18      0.00 
    6    4   18     -0.17      0.00 
    7    4   18      0.38      0.00 
    8    4   18      1.03      0.00 
    9    4   18      0.86      0.00 
   10    4   18      0.70      0.00 
   -6    5   18     -0.02      0.00 
   -5    5   18      0.00      0.00 
   -4    5   18     -0.05      0.00 
   -3    5   18      0.11      0.00 
   -2    5   18      0.74      0.00 
   -1    5   18     -1.05      0.00 
    0    5   18     -0.49      0.00 
    1    5   18      0.15      0.00 
    2    5   18      0.02      0.00 
    3    5   18      1.27      0.00 
    4    5   18     -0.12      0.00 
    5    5   18     -0.76      0.00 
    6    5   18     -0.13      0.00 
    7    5   18      0.64      0.00 
    8    5   18      1.21      0.00 
    9    5   18     -0.09      0.00 
   10    5   18     -0.03      0.00 
   -5    6   18      0.07      0.00 
   -4    6   18     -0.02      0.00 
   -3    6   18     -0.34      0.00 
   -2    6   18      0.17      0.00 
   -1    6   18     -1.12      0.00 
    0    6   18      0.12      0.00 
    1    6   18      0.43      0.00 
    2    6   18     -0.16      0.00 
    3    6   18      0.32      0.00 
    4    6   18     -0.47      0.00 
    5    6   18     -0.60      0.00 
    6    6   18     -0.14      0.00 
    7    6   18      0.57      0.00 
    8    6   18      0.66      0.00 
    9    6   18     -0.71      0.00 
   10    6   18      0.12      0.00 
   -5    7   18      0.01      0.00 
   -4    7   18     -0.15      0.00 
   -3    7   18     -1.06      0.00 
   -2    7   18      0.00      0.00 
   -1    7   18     -0.63      0.00 
    0    7   18      0.49      0.00 
    1    7   18      0.44      0.00 
    2    7   18     -0.08      0.00 
    3    7   18     -0.21      0.00 
    4    7   18     -0.41      0.00 
    5    7   18      0.02      0.00 
    6    7   18     -0.28      0.00 
    7    7   18      0.00      0.00 
    8    7   18     -0.09      0.00 
    9    7   18     -0.37      0.00 
   10    7   18      0.57      0.00 
   -4    8   18     -0.62      0.00 
   -3    8   18     -1.07      0.00 
   -2    8   18      0.44      0.00 
   -1    8   18      0.03      0.00 
    0    8   18      0.38      0.00 
    1    8   18      0.64      0.00 
    2    8   18      0.27      0.00 
    3    8   18     -0.40      0.00 
    4    8   18      0.00      0.00 
    5    8   18     -0.03      0.00 
    6    8   18     -0.19      0.00 
    7    8   18     -0.79      0.00 
    8    8   18     -0.43      0.00 
    9    8   18      0.14      0.00 
   10    8   18      0.48      0.00 
   -3    9   18     -0.24      0.00 
   -2    9   18      0.68      0.00 
   -1    9   18      0.37      0.00 
    0    9   18      0.09      0.00 
    1    9   18      0.54      0.00 
    2    9   18     -0.06      0.00 
    3    9   18     -0.24      0.00 
    4    9   18      0.02      0.00 
    5    9   18     -0.43      0.00 
    6    9   18      0.15      0.00 
    7    9   18     -1.17      0.00 
    8    9   18     -0.33      0.00 
    9    9   18      0.25      0.00 
   -2   10   18      0.40      0.00 
   -1   10   18      0.23      0.00 
    0   10   18     -0.07      0.00 
    1   10   18     -0.15      0.00 
    2   10   18     -0.47      0.00 
    3   10   18      0.37      0.00 
    4   10   18     -0.29      0.00 
    5   10   18     -0.36      0.00 
    6   10   18      0.19      0.00 
    7   10   18     -0.72      0.00 
    8   10   18     -0.15      0.00 
   -1   11   18     -0.02      0.00 
    0   11   18      0.20      0.00 
    1   11   18     -0.45      0.00 
    2   11   18     -0.06      0.00 
    3   11   18      0.76      0.00 
    4   11   18     -0.37      0.00 
    5   11   18     -0.18      0.00 
    6   11   18     -0.05      0.00 
    7   11   18      0.03      0.00 
    8   11   18     -0.11      0.00 
    1   12   18     -0.17      0.00 
    2   12   18      0.38      0.00 
    3   12   18      0.52      0.00 
    4   12   18     -0.11      0.00 
    5   12   18     -0.35      0.00 
    6   12   18     -0.08      0.00 
   -3   -9   19     -0.58      0.00 
   -2   -9   19      0.05      0.00 
   -1   -9   19     -0.78      0.00 
    0   -9   19     -0.39      0.00 
    1   -9   19     -0.13      0.00 
    2   -9   19     -0.64      0.00 
   -4   -8   19     -0.47      0.00 
   -3   -8   19     -0.48      0.00 
   -2   -8   19      0.19      0.00 
   -1   -8   19     -1.11      0.00 
    0   -8   19     -1.07      0.00 
    1   -8   19      0.13      0.00 
    2   -8   19     -0.29      0.00 
    3   -8   19      0.28      0.00 
    4   -8   19      0.88      0.00 
   -5   -7   19      0.23      0.00 
   -4   -7   19     -0.43      0.00 
   -3   -7   19     -0.17      0.00 
   -2   -7   19      0.05      0.00 
   -1   -7   19     -1.10      0.00 
    0   -7   19     -1.63      0.00 
    1   -7   19      0.48      0.00 
    2   -7   19     -0.24      0.00 
    3   -7   19      0.29      0.00 
    4   -7   19      0.38      0.00 
    5   -7   19      0.29      0.00 
   -6   -6   19     -0.20      0.00 
   -5   -6   19     -0.26      0.00 
   -4   -6   19     -0.57      0.00 
   -3   -6   19      0.17      0.00 
   -2   -6   19     -0.02      0.00 
   -1   -6   19     -0.80      0.00 
    0   -6   19     -1.98      0.00 
    1   -6   19      0.73      0.00 
    2   -6   19     -0.73      0.00 
    3   -6   19      0.26      0.00 
    4   -6   19     -0.20      0.00 
    5   -6   19      0.32      0.00 
    6   -6   19     -0.10      0.00 
   -6   -5   19     -0.03      0.00 
   -5   -5   19     -0.84      0.00 
   -4   -5   19     -0.57      0.00 
   -3   -5   19      0.49      0.00 
   -2   -5   19      0.42      0.00 
   -1   -5   19     -0.57      0.00 
    0   -5   19     -2.06      0.00 
    1   -5   19      1.06      0.00 
    2   -5   19     -1.29      0.00 
    3   -5   19      0.45      0.00 
    4   -5   19     -0.41      0.00 
    5   -5   19     -0.04      0.00 
    6   -5   19     -0.31      0.00 
    7   -5   19     -0.56      0.00 
   -7   -4   19      0.14      0.00 
   -6   -4   19      0.38      0.00 
   -5   -4   19     -0.84      0.00 
   -4   -4   19     -0.28      0.00 
   -3   -4   19      0.63      0.00 
   -2   -4   19      1.00      0.00 
   -1   -4   19     -0.59      0.00 
    0   -4   19     -1.68      0.00 
    1   -4   19      1.46      0.00 
    2   -4   19     -1.71      0.00 
    3   -4   19      0.68      0.00 
    4   -4   19     -0.55      0.00 
    5   -4   19     -0.49      0.00 
    6   -4   19      0.05      0.00 
    7   -4   19     -0.88      0.00 
    8   -4   19     -0.23      0.00 
   -7   -3   19      0.12      0.00 
   -6   -3   19      0.88      0.00 
   -5   -3   19     -0.45      0.00 
   -4   -3   19      0.21      0.00 
   -3   -3   19      0.24      0.00 
   -2   -3   19      1.07      0.00 
   -1   -3   19     -0.55      0.00 
    0   -3   19     -0.93      0.00 
    1   -3   19      1.35      0.00 
    2   -3   19     -1.95      0.00 
    3   -3   19      0.83      0.00 
    4   -3   19     -0.52      0.00 
    5   -3   19     -0.19      0.00 
    6   -3   19      0.52      0.00 
    7   -3   19     -1.14      0.00 
    8   -3   19     -0.35      0.00 
   -7   -2   19      0.05      0.00 
   -6   -2   19      1.01      0.00 
   -5   -2   19      0.03      0.00 
   -4   -2   19      0.49      0.00 
   -3   -2   19     -0.57      0.00 
   -2   -2   19      0.76      0.00 
   -1   -2   19     -0.10      0.00 
    0   -2   19     -0.33      0.00 
    1   -2   19      0.57      0.00 
    2   -2   19     -1.70      0.00 
    3   -2   19      1.09      0.00 
    4   -2   19     -0.14      0.00 
    5   -2   19      0.24      0.00 
    6   -2   19      0.14      0.00 
    7   -2   19     -0.83      0.00 
    8   -2   19     -0.03      0.00 
    9   -2   19      0.34      0.00 
   -7   -1   19      0.06      0.00 
   -6   -1   19      0.71      0.00 
   -5   -1   19      0.44      0.00 
   -4   -1   19      0.13      0.00 
   -3   -1   19     -0.83      0.00 
   -2   -1   19      0.56      0.00 
   -1   -1   19      0.50      0.00 
    0   -1   19     -0.29      0.00 
    1   -1   19     -0.23      0.00 
    2   -1   19     -0.91      0.00 
    3   -1   19      1.36      0.00 
    4   -1   19      0.00      0.00 
    5   -1   19     -0.19      0.00 
    6   -1   19     -0.52      0.00 
    7   -1   19      0.20      0.00 
    8   -1   19      0.52      0.00 
    9   -1   19      0.24      0.00 
   -7    0   19     -0.18      0.00 
   -6    0   19      0.37      0.00 
   -5    0   19      0.38      0.00 
   -4    0   19     -0.43      0.00 
   -3    0   19     -0.15      0.00 
   -2    0   19      0.25      0.00 
   -1    0   19      0.74      0.00 
    0    0   19     -0.57      0.00 
    1    0   19     -0.53      0.00 
    2    0   19      0.11      0.00 
    3    0   19      1.18      0.00 
    4    0   19     -0.36      0.00 
    5    0   19     -0.73      0.00 
    6    0   19     -0.26      0.00 
    7    0   19      1.17      0.00 
    8    0   19      0.85      0.00 
    9    0   19      0.14      0.00 
   -7    1   19     -0.74      0.00 
   -6    1   19      0.13      0.00 
   -5    1   19     -0.13      0.00 
   -4    1   19     -0.50      0.00 
   -3    1   19      0.28      0.00 
   -2    1   19     -0.43      0.00 
   -1    1   19      0.70      0.00 
    0    1   19     -0.69      0.00 
    1    1   19     -0.35      0.00 
    2    1   19      1.13      0.00 
    3    1   19      0.34      0.00 
    4    1   19     -0.32      0.00 
    5    1   19     -0.42      0.00 
    6    1   19      0.49      0.00 
    7    1   19      1.30      0.00 
    8    1   19      0.76      0.00 
    9    1   19     -0.01      0.00 
   10    1   19     -0.60      0.00 
   -7    2   19     -0.95      0.00 
   -6    2   19     -0.14      0.00 
   -5    2   19     -0.39      0.00 
   -4    2   19     -0.37      0.00 
   -3    2   19     -0.15      0.00 
   -2    2   19     -0.85      0.00 
   -1    2   19      0.72      0.00 
    0    2   19     -0.43      0.00 
    1    2   19      0.18      0.00 
    2    2   19      1.74      0.00 
    3    2   19     -0.89      0.00 
    4    2   19      0.33      0.00 
    5    2   19      0.03      0.00 
    6    2   19      0.69      0.00 
    7    2   19      0.82      0.00 
    8    2   19      0.25      0.00 
    9    2   19     -0.33      0.00 
   10    2   19     -0.98      0.00 
   -6    3   19     -0.35      0.00 
   -5    3   19     -0.24      0.00 
   -4    3   19     -0.44      0.00 
   -3    3   19     -0.40      0.00 
   -2    3   19     -0.79      0.00 
   -1    3   19      0.76      0.00 
    0    3   19      0.08      0.00 
    1    3   19      0.65      0.00 
    2    3   19      1.26      0.00 
    3    3   19     -1.88      0.00 
    4    3   19      0.60      0.00 
    5    3   19      0.09      0.00 
    6    3   19      0.44      0.00 
    7    3   19      0.26      0.00 
    8    3   19     -0.53      0.00 
    9    3   19     -0.64      0.00 
   10    3   19     -1.05      0.00 
   -6    4   19     -0.26      0.00 
   -5    4   19     -0.07      0.00 
   -4    4   19     -0.31      0.00 
   -3    4   19     -0.04      0.00 
   -2    4   19     -0.68      0.00 
   -1    4   19      0.92      0.00 
    0    4   19      0.43      0.00 
    1    4   19      0.48      0.00 
    2    4   19      0.13      0.00 
    3    4   19     -1.96      0.00 
    4    4   19      0.33      0.00 
    5    4   19      0.44      0.00 
    6    4   19      0.18      0.00 
    7    4   19     -0.30      0.00 
    8    4   19     -1.19      0.00 
    9    4   19     -0.33      0.00 
   10    4   19     -0.47      0.00 
   -5    5   19      0.00      0.00 
   -4    5   19     -0.08      0.00 
   -3    5   19      0.32      0.00 
   -2    5   19     -0.41      0.00 
   -1    5   19      1.19      0.00 
    0    5   19      0.18      0.00 
    1    5   19     -0.13      0.00 
    2    5   19     -0.31      0.00 
    3    5   19     -1.12      0.00 
    4    5   19      0.39      0.00 
    5    5   19      0.87      0.00 
    6    5   19     -0.05      0.00 
    7    5   19     -0.66      0.00 
    8    5   19     -1.19      0.00 
    9    5   19      0.56      0.00 
   10    5   19      0.04      0.00 
   -5    6   19      0.04      0.00 
   -4    6   19     -0.10      0.00 
   -3    6   19      0.76      0.00 
   -2    6   19      0.08      0.00 
   -1    6   19      1.09      0.00 
    0    6   19     -0.39      0.00 
    1    6   19     -0.43      0.00 
    2    6   19      0.00      0.00 
    3    6   19     -0.17      0.00 
    4    6   19      0.64      0.00 
    5    6   19      0.51      0.00 
    6    6   19      0.05      0.00 
    7    6   19     -0.44      0.00 
    8    6   19     -0.51      0.00 
    9    6   19      0.98      0.00 
   10    6   19     -0.20      0.00 
   -4    7   19      0.08      0.00 
   -3    7   19      1.22      0.00 
   -2    7   19      0.05      0.00 
   -1    7   19      0.48      0.00 
    0    7   19     -0.58      0.00 
    1    7   19     -0.51      0.00 
    2    7   19      0.00      0.00 
    3    7   19      0.29      0.00 
    4    7   19      0.32      0.00 
    5    7   19     -0.03      0.00 
    6    7   19      0.46      0.00 
    7    7   19      0.28      0.00 
    8    7   19      0.11      0.00 
    9    7   19      0.46      0.00 
   10    7   19     -0.51      0.00 
   -4    8   19      0.52      0.00 
   -3    8   19      0.81      0.00 
   -2    8   19     -0.56      0.00 
   -1    8   19     -0.11      0.00 
    0    8   19     -0.31      0.00 
    1    8   19     -0.69      0.00 
    2    8   19     -0.12      0.00 
    3    8   19      0.39      0.00 
    4    8   19     -0.25      0.00 
    5    8   19      0.20      0.00 
    6    8   19      0.42      0.00 
    7    8   19      0.98      0.00 
    8    8   19      0.19      0.00 
    9    8   19     -0.17      0.00 
   -3    9   19     -0.25      0.00 
   -2    9   19     -0.75      0.00 
   -1    9   19     -0.22      0.00 
    0    9   19      0.05      0.00 
    1    9   19     -0.47      0.00 
    2    9   19      0.26      0.00 
    3    9   19      0.09      0.00 
    4    9   19     -0.31      0.00 
    5    9   19      0.53      0.00 
    6    9   19     -0.11      0.00 
    7    9   19      1.09      0.00 
    8    9   19     -0.04      0.00 
    9    9   19     -0.33      0.00 
   -2   10   19     -0.27      0.00 
   -1   10   19      0.03      0.00 
    0   10   19      0.19      0.00 
    1   10   19      0.11      0.00 
    2   10   19      0.38      0.00 
    3   10   19     -0.54      0.00 
    4   10   19      0.01      0.00 
    5   10   19      0.30      0.00 
    6   10   19     -0.26      0.00 
    7   10   19      0.50      0.00 
    8   10   19     -0.10      0.00 
    0   11   19     -0.11      0.00 
    1   11   19      0.22      0.00 
    2   11   19     -0.20      0.00 
    3   11   19     -0.83      0.00 
    4   11   19      0.17      0.00 
    5   11   19      0.15      0.00 
    6   11   19      0.04      0.00 
    7   11   19     -0.17      0.00 
    2   12   19     -0.50      0.00 
    3   12   19     -0.57      0.00 
    4   12   19      0.05      0.00 
    5   12   19      0.39      0.00 
   -3   -8   20      0.13      0.00 
   -2   -8   20     -0.30      0.00 
   -1   -8   20      1.12      0.00 
    0   -8   20      1.13      0.00 
    1   -8   20     -0.28      0.00 
    2   -8   20      0.19      0.00 
    3   -8   20     -0.16      0.00 
   -4   -7   20      0.26      0.00 
   -3   -7   20     -0.19      0.00 
   -2   -7   20     -0.04      0.00 
   -1   -7   20      1.09      0.00 
    0   -7   20      1.62      0.00 
    1   -7   20     -0.71      0.00 
    2   -7   20      0.10      0.00 
    3   -7   20     -0.27      0.00 
    4   -7   20     -0.29      0.00 
   -5   -6   20      0.30      0.00 
   -4   -6   20      0.44      0.00 
   -3   -6   20     -0.55      0.00 
   -2   -6   20      0.04      0.00 
   -1   -6   20      0.72      0.00 
    0   -6   20      1.83      0.00 
    1   -6   20     -1.11      0.00 
    2   -6   20      0.58      0.00 
    3   -6   20     -0.44      0.00 
    4   -6   20      0.09      0.00 
    5   -6   20     -0.26      0.00 
   -6   -5   20     -0.10      0.00 
   -5   -5   20      0.79      0.00 
   -4   -5   20      0.41      0.00 
   -3   -5   20     -0.84      0.00 
   -2   -5   20     -0.40      0.00 
   -1   -5   20      0.43      0.00 
    0   -5   20      1.77      0.00 
    1   -5   20     -1.37      0.00 
    2   -5   20      1.28      0.00 
    3   -5   20     -0.70      0.00 
    4   -5   20      0.30      0.00 
    5   -5   20      0.14      0.00 
    6   -5   20      0.54      0.00 
   -6   -4   20     -0.44      0.00 
   -5   -4   20      0.71      0.00 
   -4   -4   20      0.17      0.00 
   -3   -4   20     -0.83      0.00 
   -2   -4   20     -0.91      0.00 
   -1   -4   20      0.41      0.00 
    0   -4   20      1.37      0.00 
    1   -4   20     -1.39      0.00 
    2   -4   20      1.83      0.00 
    3   -4   20     -0.76      0.00 
    4   -4   20      0.50      0.00 
    5   -4   20      0.48      0.00 
    6   -4   20      0.12      0.00 
    7   -4   20      0.87      0.00 
   -6   -3   20     -0.79      0.00 
   -5   -3   20      0.30      0.00 
   -4   -3   20     -0.19      0.00 
   -3   -3   20     -0.29      0.00 
   -2   -3   20     -0.87      0.00 
   -1   -3   20      0.33      0.00 
    0   -3   20      0.77      0.00 
    1   -3   20     -0.95      0.00 
    2   -3   20      2.01      0.00 
    3   -3   20     -0.74      0.00 
    4   -3   20      0.43      0.00 
    5   -3   20      0.04      0.00 
    6   -3   20     -0.45      0.00 
    7   -3   20      1.07      0.00 
    8   -3   20      0.05      0.00 
   -6   -2   20     -0.84      0.00 
   -5   -2   20     -0.15      0.00 
   -4   -2   20     -0.38      0.00 
   -3   -2   20      0.55      0.00 
   -2   -2   20     -0.50      0.00 
   -1   -2   20     -0.06      0.00 
    0   -2   20      0.35      0.00 
    1   -2   20     -0.18      0.00 
    2   -2   20      1.58      0.00 
    3   -2   20     -1.00      0.00 
    4   -2   20      0.09      0.00 
    5   -2   20     -0.32      0.00 
    6   -2   20     -0.17      0.00 
    7   -2   20      0.69      0.00 
    8   -2   20     -0.36      0.00 
   -6   -1   20     -0.57      0.00 
   -5   -1   20     -0.48      0.00 
   -4   -1   20      0.01      0.00 
   -3   -1   20      0.76      0.00 
   -2   -1   20     -0.29      0.00 
   -1   -1   20     -0.50      0.00 
    0   -1   20      0.37      0.00 
    1   -1   20      0.42      0.00 
    2   -1   20      0.69      0.00 
    3   -1   20     -1.28      0.00 
    4   -1   20      0.15      0.00 
    5   -1   20      0.17      0.00 
    6   -1   20      0.26      0.00 
    7   -1   20     -0.34      0.00 
    8   -1   20     -0.82      0.00 
    9   -1   20     -0.19      0.00 
   -6    0   20     -0.24      0.00 
   -5    0   20     -0.27      0.00 
   -4    0   20      0.54      0.00 
   -3    0   20      0.10      0.00 
   -2    0   20      0.01      0.00 
   -1    0   20     -0.65      0.00 
    0    0   20      0.69      0.00 
    1    0   20      0.56      0.00 
    2    0   20     -0.26      0.00 
    3    0   20     -1.03      0.00 
    4    0   20      0.52      0.00 
    5    0   20      0.55      0.00 
    6    0   20     -0.17      0.00 
    7    0   20     -1.13      0.00 
    8    0   20     -0.94      0.00 
    9    0   20     -0.10      0.00 
   -6    1   20      0.04      0.00 
   -5    1   20      0.27      0.00 
   -4    1   20      0.54      0.00 
   -3    1   20     -0.23      0.00 
   -2    1   20      0.50      0.00 
   -1    1   20     -0.67      0.00 
    0    1   20      0.84      0.00 
    1    1   20      0.26      0.00 
    2    1   20     -1.08      0.00 
    3    1   20     -0.13      0.00 
    4    1   20      0.31      0.00 
    5    1   20      0.15      0.00 
    6    1   20     -0.89      0.00 
    7    1   20     -1.12      0.00 
    8    1   20     -0.67      0.00 
    9    1   20      0.02      0.00 
   -6    2   20      0.30      0.00 
   -5    2   20      0.47      0.00 
   -4    2   20      0.36      0.00 
   -3    2   20      0.20      0.00 
   -2    2   20      0.57      0.00 
   -1    2   20     -0.73      0.00 
    0    2   20      0.54      0.00 
    1    2   20     -0.30      0.00 
    2    2   20     -1.40      0.00 
    3    2   20      1.09      0.00 
    4    2   20     -0.38      0.00 
    5    2   20     -0.20      0.00 
    6    2   20     -1.02      0.00 
    7    2   20     -0.70      0.00 
    8    2   20     -0.14      0.00 
    9    2   20      0.26      0.00 
   -6    3   20      0.44      0.00 
   -5    3   20      0.31      0.00 
   -4    3   20      0.36      0.00 
   -3    3   20      0.30      0.00 
   -2    3   20      0.22      0.00 
   -1    3   20     -0.72      0.00 
    0    3   20     -0.08      0.00 
    1    3   20     -0.59      0.00 
    2    3   20     -0.78      0.00 
    3    3   20      2.00      0.00 
    4    3   20     -0.59      0.00 
    5    3   20     -0.22      0.00 
    6    3   20     -0.73      0.00 
    7    3   20     -0.22      0.00 
    8    3   20      0.55      0.00 
    9    3   20      0.50      0.00 
   10    3   20      0.40      0.00 
   -5    4   20      0.17      0.00 
   -4    4   20      0.19      0.00 
   -3    4   20     -0.17      0.00 
   -2    4   20      0.08      0.00 
   -1    4   20     -0.78      0.00 
    0    4   20     -0.45      0.00 
    1    4   20     -0.18      0.00 
    2    4   20      0.19      0.00 
    3    4   20      1.95      0.00 
    4    4   20     -0.50      0.00 
    5    4   20     -0.57      0.00 
    6    4   20     -0.29      0.00 
    7    4   20      0.38      0.00 
    8    4   20      1.05      0.00 
    9    4   20      0.20      0.00 
   10    4   20      0.02      0.00 
   -5    5   20      0.09      0.00 
   -4    5   20     -0.02      0.00 
   -3    5   20     -0.52      0.00 
   -2    5   20     -0.03      0.00 
   -1    5   20     -0.94      0.00 
    0    5   20     -0.17      0.00 
    1    5   20      0.45      0.00 
    2    5   20      0.40      0.00 
    3    5   20      1.02      0.00 
    4    5   20     -0.81      0.00 
    5    5   20     -0.82      0.00 
    6    5   20      0.14      0.00 
    7    5   20      0.74      0.00 
    8    5   20      0.89      0.00 
    9    5   20     -0.59      0.00 
   10    5   20     -0.20      0.00 
   -5    6   20      0.02      0.00 
   -4    6   20      0.05      0.00 
   -3    6   20     -0.85      0.00 
   -2    6   20     -0.29      0.00 
   -1    6   20     -0.77      0.00 
    0    6   20      0.32      0.00 
    1    6   20      0.66      0.00 
    2    6   20      0.04      0.00 
    3    6   20      0.11      0.00 
    4    6   20     -1.05      0.00 
    5    6   20     -0.29      0.00 
    6    6   20      0.00      0.00 
    7    6   20      0.38      0.00 
    8    6   20      0.26      0.00 
    9    6   20     -0.93      0.00 
   -4    7   20     -0.06      0.00 
   -3    7   20     -1.13      0.00 
   -2    7   20     -0.02      0.00 
   -1    7   20     -0.22      0.00 
    0    7   20      0.38      0.00 
    1    7   20      0.69      0.00 
    2    7   20     -0.02      0.00 
    3    7   20     -0.21      0.00 
    4    7   20     -0.53      0.00 
    5    7   20      0.13      0.00 
    6    7   20     -0.55      0.00 
    7    7   20     -0.42      0.00 
    8    7   20     -0.09      0.00 
    9    7   20     -0.44      0.00 
   -3    8   20     -0.55      0.00 
   -2    8   20      0.68      0.00 
   -1    8   20      0.12      0.00 
    0    8   20      0.11      0.00 
    1    8   20      0.77      0.00 
    2    8   20     -0.09      0.00 
    3    8   20     -0.11      0.00 
    4    8   20      0.18      0.00 
    5    8   20     -0.22      0.00 
    6    8   20     -0.45      0.00 
    7    8   20     -0.97      0.00 
    8    8   20      0.16      0.00 
    9    8   20      0.11      0.00 
   -2    9   20      0.74      0.00 
   -1    9   20     -0.04      0.00 
    0    9   20     -0.16      0.00 
    1    9   20      0.44      0.00 
    2    9   20     -0.44      0.00 
    3    9   20      0.34      0.00 
    4    9   20      0.29      0.00 
    5    9   20     -0.43      0.00 
    6    9   20      0.25      0.00 
    7    9   20     -0.90      0.00 
    8    9   20      0.52      0.00 
   -1   10   20     -0.33      0.00 
    0   10   20     -0.18      0.00 
    1   10   20      0.00      0.00 
    2   10   20     -0.30      0.00 
    3   10   20      0.92      0.00 
    4   10   20      0.00      0.00 
    5   10   20     -0.11      0.00 
    6   10   20      0.40      0.00 
    7   10   20     -0.36      0.00 
    8   10   20      0.45      0.00 
    0   11   20      0.13      0.00 
    1   11   20      0.01      0.00 
    2   11   20      0.32      0.00 
    3   11   20      1.02      0.00 
    4   11   20     -0.17      0.00 
    5   11   20     -0.05      0.00 
    6   11   20     -0.02      0.00 
   -2   -8   21      0.25      0.00 
   -1   -8   21     -1.02      0.00 
    0   -8   21     -1.08      0.00 
    1   -8   21      0.40      0.00 
   -4   -7   21     -0.15      0.00 
   -3   -7   21      0.42      0.00 
   -2   -7   21      0.00      0.00 
   -1   -7   21     -1.04      0.00 
    0   -7   21     -1.37      0.00 
    1   -7   21      0.86      0.00 
    2   -7   21      0.00      0.00 
    3   -7   21      0.37      0.00 
    4   -7   21      0.11      0.00 
   -4   -6   21     -0.28      0.00 
   -3   -6   21      0.72      0.00 
   -2   -6   21      0.01      0.00 
   -1   -6   21     -0.78      0.00 
    0   -6   21     -1.39      0.00 
    1   -6   21      1.26      0.00 
    2   -6   21     -0.48      0.00 
    3   -6   21      0.68      0.00 
    4   -6   21     -0.08      0.00 
    5   -6   21      0.24      0.00 
   -5   -5   21     -0.64      0.00 
   -4   -5   21     -0.20      0.00 
   -3   -5   21      0.82      0.00 
   -2   -5   21      0.49      0.00 
   -1   -5   21     -0.65      0.00 
    0   -5   21     -1.19      0.00 
    1   -5   21      1.34      0.00 
    2   -5   21     -1.25      0.00 
    3   -5   21      0.90      0.00 
    4   -5   21     -0.22      0.00 
    5   -5   21     -0.17      0.00 
    6   -5   21     -0.66      0.00 
   -5   -4   21     -0.50      0.00 
   -4   -4   21     -0.01      0.00 
   -3   -4   21      0.54      0.00 
   -2   -4   21      0.93      0.00 
   -1   -4   21     -0.72      0.00 
    0   -4   21     -0.79      0.00 
    1   -4   21      1.03      0.00 
    2   -4   21     -1.84      0.00 
    3   -4   21      0.74      0.00 
    4   -4   21     -0.39      0.00 
    5   -4   21     -0.38      0.00 
    6   -4   21     -0.24      0.00 
    7   -4   21     -0.53      0.00 
   -6   -3   21      0.60      0.00 
   -5   -3   21     -0.14      0.00 
   -4   -3   21      0.25      0.00 
   -3   -3   21     -0.13      0.00 
   -2   -3   21      0.80      0.00 
   -1   -3   21     -0.66      0.00 
    0   -3   21     -0.35      0.00 
    1   -3   21      0.40      0.00 
    2   -3   21     -1.94      0.00 
    3   -3   21      0.52      0.00 
    4   -3   21     -0.24      0.00 
    5   -3   21      0.11      0.00 
    6   -3   21      0.26      0.00 
    7   -3   21     -0.68      0.00 
   -6   -2   21      0.60      0.00 
   -5   -2   21      0.26      0.00 
   -4   -2   21      0.40      0.00 
   -3   -2   21     -0.91      0.00 
   -2   -2   21      0.36      0.00 
   -1   -2   21     -0.28      0.00 
    0   -2   21     -0.16      0.00 
    1   -2   21     -0.28      0.00 
    2   -2   21     -1.41      0.00 
    3   -2   21      0.72      0.00 
    4   -2   21      0.04      0.00 
    5   -2   21      0.37      0.00 
    6   -2   21     -0.03      0.00 
    7   -2   21     -0.29      0.00 
    8   -2   21      0.37      0.00 
   -6   -1   21      0.39      0.00 
   -5   -1   21      0.46      0.00 
   -4   -1   21      0.03      0.00 
   -3   -1   21     -0.99      0.00 
   -2   -1   21      0.07      0.00 
   -1   -1   21      0.12      0.00 
    0   -1   21     -0.41      0.00 
    1   -1   21     -0.67      0.00 
    2   -1   21     -0.52      0.00 
    3   -1   21      0.99      0.00 
    4   -1   21     -0.14      0.00 
    5   -1   21     -0.07      0.00 
    6   -1   21     -0.29      0.00 
    7   -1   21      0.58      0.00 
    8   -1   21      0.70      0.00 
   -6    0   21      0.11      0.00 
   -5    0   21      0.14      0.00 
   -4    0   21     -0.45      0.00 
   -3    0   21     -0.29      0.00 
   -2    0   21     -0.25      0.00 
   -1    0   21      0.33      0.00 
    0    0   21     -0.91      0.00 
    1    0   21     -0.61      0.00 
    2    0   21      0.32      0.00 
    3    0   21      0.75      0.00 
    4    0   21     -0.43      0.00 
    5    0   21     -0.20      0.00 
    6    0   21      0.26      0.00 
    7    0   21      1.08      0.00 
    8    0   21      0.59      0.00 
    9    0   21      0.23      0.00 
   -6    1   21     -0.13      0.00 
   -5    1   21     -0.38      0.00 
   -4    1   21     -0.42      0.00 
   -3    1   21      0.06      0.00 
   -2    1   21     -0.53      0.00 
   -1    1   21      0.57      0.00 
    0    1   21     -1.19      0.00 
    1    1   21     -0.12      0.00 
    2    1   21      0.93      0.00 
    3    1   21     -0.13      0.00 
    4    1   21     -0.10      0.00 
    5    1   21      0.26      0.00 
    6    1   21      0.92      0.00 
    7    1   21      0.92      0.00 
    8    1   21      0.19      0.00 
    9    1   21      0.18      0.00 
   -6    2   21     -0.30      0.00 
   -5    2   21     -0.49      0.00 
   -4    2   21     -0.25      0.00 
   -3    2   21     -0.21      0.00 
   -2    2   21     -0.24      0.00 
   -1    2   21      0.84      0.00 
    0    2   21     -0.90      0.00 
    1    2   21      0.51      0.00 
    2    2   21      0.99      0.00 
    3    2   21     -1.28      0.00 
    4    2   21      0.45      0.00 
    5    2   21      0.45      0.00 
    6    2   21      1.01      0.00 
    7    2   21      0.66      0.00 
    8    2   21     -0.28      0.00 
    9    2   21      0.03      0.00 
   -5    3   21     -0.30      0.00 
   -4    3   21     -0.26      0.00 
   -3    3   21     -0.06      0.00 
   -2    3   21      0.26      0.00 
   -1    3   21      0.89      0.00 
    0    3   21     -0.25      0.00 
    1    3   21      0.65      0.00 
    2    3   21      0.28      0.00 
    3    3   21     -2.05      0.00 
    4    3   21      0.54      0.00 
    5    3   21      0.42      0.00 
    6    3   21      0.70      0.00 
    7    3   21      0.38      0.00 
    8    3   21     -0.78      0.00 
    9    3   21     -0.17      0.00 
   -5    4   21     -0.15      0.00 
   -4    4   21     -0.13      0.00 
   -3    4   21      0.52      0.00 
   -2    4   21      0.22      0.00 
   -1    4   21      0.90      0.00 
    0    4   21      0.10      0.00 
    1    4   21      0.08      0.00 
    2    4   21     -0.50      0.00 
    3    4   21     -1.80      0.00 
    4    4   21      0.64      0.00 
    5    4   21      0.75      0.00 
    6    4   21      0.13      0.00 
    7    4   21     -0.17      0.00 
    8    4   21     -1.04      0.00 
    9    4   21      0.02      0.00 
   -5    5   21     -0.04      0.00 
   -4    5   21     -0.02      0.00 
   -3    5   21      0.77      0.00 
   -2    5   21      0.01      0.00 
   -1    5   21      0.98      0.00 
    0    5   21     -0.14      0.00 
    1    5   21     -0.52      0.00 
    2    5   21     -0.51      0.00 
    3    5   21     -0.75      0.00 
    4    5   21      1.20      0.00 
    5    5   21      0.81      0.00 
    6    5   21     -0.42      0.00 
    7    5   21     -0.53      0.00 
    8    5   21     -0.71      0.00 
    9    5   21      0.62      0.00 
   -4    6   21     -0.16      0.00 
   -3    6   21      0.91      0.00 
   -2    6   21      0.05      0.00 
   -1    6   21      0.75      0.00 
    0    6   21     -0.41      0.00 
    1    6   21     -0.66      0.00 
    2    6   21     -0.15      0.00 
    3    6   21      0.11      0.00 
    4    6   21      1.39      0.00 
    5    6   21      0.18      0.00 
    6    6   21     -0.22      0.00 
    7    6   21     -0.18      0.00 
    8    6   21     -0.10      0.00 
    9    6   21      0.84      0.00 
   -3    7   21      1.00      0.00 
   -2    7   21     -0.25      0.00 
   -1    7   21      0.23      0.00 
    0    7   21     -0.26      0.00 
    1    7   21     -0.74      0.00 
    2    7   21     -0.03      0.00 
    3    7   21      0.26      0.00 
    4    7   21      0.66      0.00 
    5    7   21     -0.09      0.00 
    6    7   21      0.39      0.00 
    7    7   21      0.46      0.00 
    8    7   21      0.07      0.00 
    9    7   21      0.38      0.00 
   -3    8   21      0.35      0.00 
   -2    8   21     -0.77      0.00 
   -1    8   21      0.01      0.00 
    0    8   21      0.05      0.00 
    1    8   21     -0.79      0.00 
    2    8   21      0.14      0.00 
    3    8   21     -0.06      0.00 
    4    8   21     -0.17      0.00 
    5    8   21      0.36      0.00 
    6    8   21      0.18      0.00 
    7    8   21      0.74      0.00 
    8    8   21     -0.33      0.00 
   -2    9   21     -0.58      0.00 
   -1    9   21      0.22      0.00 
    0    9   21      0.21      0.00 
    1    9   21     -0.45      0.00 
    2    9   21      0.38      0.00 
    3    9   21     -0.57      0.00 
    4    9   21     -0.35      0.00 
    5    9   21      0.46      0.00 
    6    9   21     -0.56      0.00 
    7    9   21      0.52      0.00 
    8    9   21     -0.66      0.00 
    0   10   21      0.13      0.00 
    1   10   21     -0.13      0.00 
    2   10   21      0.08      0.00 
    3   10   21     -0.97      0.00 
    4   10   21     -0.15      0.00 
    5   10   21      0.10      0.00 
    6   10   21     -0.54      0.00 
    7   10   21      0.09      0.00 
    2   11   21     -0.44      0.00 
    3   11   21     -0.87      0.00 
    4   11   21      0.01      0.00 
    5   11   21      0.09      0.00 
   -2   -7   22      0.05      0.00 
   -1   -7   22      0.82      0.00 
    0   -7   22      1.09      0.00 
    1   -7   22     -0.92      0.00 
    2   -7   22     -0.11      0.00 
   -4   -6   22      0.11      0.00 
   -3   -6   22     -0.72      0.00 
   -2   -6   22      0.12      0.00 
   -1   -6   22      0.60      0.00 
    0   -6   22      1.09      0.00 
    1   -6   22     -1.32      0.00 
    2   -6   22      0.44      0.00 
    3   -6   22     -0.81      0.00 
    4   -6   22      0.06      0.00 
   -4   -5   22      0.06      0.00 
   -3   -5   22     -0.68      0.00 
   -2   -5   22     -0.19      0.00 
   -1   -5   22      0.58      0.00 
    0   -5   22      0.94      0.00 
    1   -5   22     -1.30      0.00 
    2   -5   22      1.29      0.00 
    3   -5   22     -1.04      0.00 
    4   -5   22      0.17      0.00 
    5   -5   22      0.14      0.00 
   -5   -4   22      0.29      0.00 
   -4   -4   22      0.02      0.00 
   -3   -4   22     -0.27      0.00 
   -2   -4   22     -0.43      0.00 
   -1   -4   22      0.70      0.00 
    0   -4   22      0.64      0.00 
    1   -4   22     -0.83      0.00 
    2   -4   22      1.87      0.00 
    3   -4   22     -0.73      0.00 
    4   -4   22      0.28      0.00 
    5   -4   22      0.22      0.00 
    6   -4   22      0.16      0.00 
   -5   -3   22     -0.04      0.00 
   -4   -3   22     -0.14      0.00 
   -3   -3   22      0.38      0.00 
   -2   -3   22     -0.19      0.00 
   -1   -3   22      0.62      0.00 
    0   -3   22      0.34      0.00 
    1   -3   22     -0.13      0.00 
    2   -3   22      1.88      0.00 
    3   -3   22     -0.38      0.00 
    4   -3   22      0.08      0.00 
    5   -3   22     -0.20      0.00 
    6   -3   22     -0.18      0.00 
    7   -3   22      0.52      0.00 
   -5   -2   22     -0.38      0.00 
   -4   -2   22     -0.29      0.00 
   -3   -2   22      1.00      0.00 
   -2   -2   22      0.27      0.00 
   -1   -2   22      0.30      0.00 
    0   -2   22      0.29      0.00 
    1   -2   22      0.50      0.00 
    2   -2   22      1.28      0.00 
    3   -2   22     -0.52      0.00 
    4   -2   22     -0.11      0.00 
    5   -2   22     -0.32      0.00 
    6   -2   22      0.17      0.00 
    7   -2   22      0.24      0.00 
   -5   -1   22     -0.49      0.00 
   -4   -1   22      0.01      0.00 
   -3   -1   22      0.98      0.00 
   -2   -1   22      0.55      0.00 
   -1   -1   22      0.01      0.00 
    0   -1   22      0.66      0.00 
    1   -1   22      0.82      0.00 
    2   -1   22      0.43      0.00 
    3   -1   22     -0.78      0.00 
    4   -1   22      0.10      0.00 
    5   -1   22     -0.04      0.00 
    6   -1   22      0.30      0.00 
    7   -1   22     -0.37      0.00 
    8   -1   22     -0.65      0.00 
   -5    0   22     -0.12      0.00 
   -4    0   22      0.41      0.00 
   -3    0   22      0.30      0.00 
   -2    0   22      0.74      0.00 
   -1    0   22     -0.20      0.00 
    0    0   22      1.21      0.00 
    1    0   22      0.69      0.00 
    2    0   22     -0.31      0.00 
    3    0   22     -0.57      0.00 
    4    0   22      0.23      0.00 
    5    0   22     -0.20      0.00 
    6    0   22     -0.30      0.00 
    7    0   22     -0.55      0.00 
    8    0   22     -0.34      0.00 
   -5    1   22      0.31      0.00 
   -4    1   22      0.33      0.00 
   -3    1   22     -0.03      0.00 
   -2    1   22      0.64      0.00 
   -1    1   22     -0.55      0.00 
    0    1   22      1.42      0.00 
    1    1   22      0.11      0.00 
    2    1   22     -0.77      0.00 
    3    1   22      0.25      0.00 
    4    1   22     -0.17      0.00 
    5    1   22     -0.64      0.00 
    6    1   22     -0.88      0.00 
    7    1   22     -0.33      0.00 
    8    1   22      0.10      0.00 
    9    1   22     -0.21      0.00 
   -5    2   22      0.35      0.00 
   -4    2   22      0.16      0.00 
   -3    2   22      0.13      0.00 
   -2    2   22     -0.12      0.00 
   -1    2   22     -0.85      0.00 
    0    2   22      0.98      0.00 
    1    2   22     -0.49      0.00 
    2    2   22     -0.66      0.00 
    3    2   22      1.33      0.00 
    4    2   22     -0.53      0.00 
    5    2   22     -0.61      0.00 
    6    2   22     -0.97      0.00 
    7    2   22     -0.32      0.00 
    8    2   22      0.42      0.00 
    9    2   22     -0.09      0.00 
   -5    3   22      0.20      0.00 
   -4    3   22      0.16      0.00 
   -3    3   22     -0.14      0.00 
   -2    3   22     -0.81      0.00 
   -1    3   22     -0.78      0.00 
    0    3   22      0.23      0.00 
    1    3   22     -0.42      0.00 
    2    3   22     -0.01      0.00 
    3    3   22      1.97      0.00 
    4    3   22     -0.53      0.00 
    5    3   22     -0.48      0.00 
    6    3   22     -0.72      0.00 
    7    3   22     -0.32      0.00 
    8    3   22      0.67      0.00 
    9    3   22      0.17      0.00 
   -4    4   22      0.02      0.00 
   -3    4   22     -0.63      0.00 
   -2    4   22     -0.58      0.00 
   -1    4   22     -0.64      0.00 
    0    4   22     -0.14      0.00 
    1    4   22      0.24      0.00 
    2    4   22      0.47      0.00 
    3    4   22      1.56      0.00 
    4    4   22     -0.88      0.00 
    5    4   22     -0.71      0.00 
    6    4   22     -0.12      0.00 
    7    4   22      0.08      0.00 
    8    4   22      0.72      0.00 
    9    4   22      0.14      0.00 
   -4    5   22     -0.04      0.00 
   -3    5   22     -0.63      0.00 
   -2    5   22     -0.10      0.00 
   -1    5   22     -0.66      0.00 
    0    5   22      0.04      0.00 
    1    5   22      0.72      0.00 
    2    5   22      0.31      0.00 
    3    5   22      0.45      0.00 
    4    5   22     -1.67      0.00 
    5    5   22     -0.54      0.00 
    6    5   22      0.47      0.00 
    7    5   22      0.37      0.00 
    8    5   22      0.33      0.00 
    9    5   22     -0.28      0.00 
   -3    6   22     -0.58      0.00 
   -2    6   22      0.03      0.00 
   -1    6   22     -0.49      0.00 
    0    6   22      0.17      0.00 
    1    6   22      0.78      0.00 
    2    6   22      0.01      0.00 
    3    6   22     -0.27      0.00 
    4    6   22     -1.82      0.00 
    5    6   22      0.17      0.00 
    6    6   22      0.24      0.00 
    7    6   22      0.05      0.00 
    8    6   22     -0.15      0.00 
    9    6   22     -0.48      0.00 
   -3    7   22     -0.64      0.00 
   -2    7   22      0.32      0.00 
   -1    7   22     -0.15      0.00 
    0    7   22     -0.02      0.00 
    1    7   22      0.89      0.00 
    2    7   22     -0.05      0.00 
    3    7   22     -0.14      0.00 
    4    7   22     -0.98      0.00 
    5    7   22      0.29      0.00 
    6    7   22     -0.27      0.00 
    7    7   22     -0.40      0.00 
    8    7   22     -0.12      0.00 
   -2    8   22      0.70      0.00 
   -1    8   22     -0.11      0.00 
    0    8   22     -0.17      0.00 
    1    8   22      0.91      0.00 
    2    8   22     -0.21      0.00 
    3    8   22      0.40      0.00 
    4    8   22     -0.19      0.00 
    5    8   22     -0.22      0.00 
    6    8   22      0.11      0.00 
    7    8   22     -0.47      0.00 
    8    8   22      0.36      0.00 
   -1    9   22     -0.35      0.00 
    0    9   22     -0.13      0.00 
    1    9   22      0.54      0.00 
    2    9   22     -0.35      0.00 
    3    9   22      0.91      0.00 
    4    9   22     -0.01      0.00 
    5    9   22     -0.28      0.00 
    6    9   22      0.84      0.00 
    7    9   22     -0.23      0.00 
    1   10   22      0.23      0.00 
    2   10   22     -0.04      0.00 
    3   10   22      1.09      0.00 
    4   10   22     -0.08      0.00 
    5   10   22      0.04      0.00 
    6   10   22      0.64      0.00 
    0   -7   23     -0.68      0.00 
   -2   -6   23     -0.16      0.00 
   -1   -6   23     -0.55      0.00 
    0   -6   23     -0.64      0.00 
    1   -6   23      1.11      0.00 
    2   -6   23     -0.43      0.00 
    3   -6   23      0.87      0.00 
   -3   -5   23      0.31      0.00 
   -2   -5   23      0.06      0.00 
   -1   -5   23     -0.79      0.00 
    0   -5   23     -0.49      0.00 
    1   -5   23      0.99      0.00 
    2   -5   23     -1.22      0.00 
    3   -5   23      1.07      0.00 
    4   -5   23     -0.13      0.00 
   -4   -4   23     -0.08      0.00 
   -3   -4   23     -0.22      0.00 
   -2   -4   23      0.24      0.00 
   -1   -4   23     -1.05      0.00 
    0   -4   23     -0.23      0.00 
    1   -4   23      0.48      0.00 
    2   -4   23     -1.68      0.00 
    3   -4   23      0.65      0.00 
    4   -4   23     -0.13      0.00 
    5   -4   23     -0.04      0.00 
   -4   -3   23      0.06      0.00 
   -3   -3   23     -0.80      0.00 
   -2   -3   23      0.01      0.00 
   -1   -3   23     -0.99      0.00 
    0   -3   23     -0.04      0.00 
    1   -3   23     -0.16      0.00 
    2   -3   23     -1.58      0.00 
    3   -3   23      0.19      0.00 
    4   -3   23      0.12      0.00 
    5   -3   23      0.19      0.00 
    6   -3   23     -0.05      0.00 
   -5   -2   23      0.44      0.00 
   -4   -2   23      0.28      0.00 
   -3   -2   23     -1.26      0.00 
   -2   -2   23     -0.43      0.00 
   -1   -2   23     -0.66      0.00 
    0   -2   23     -0.20      0.00 
    1   -2   23     -0.70      0.00 
    2   -2   23     -1.00      0.00 
    3   -2   23      0.26      0.00 
    4   -2   23      0.29      0.00 
    5   -2   23      0.15      0.00 
    6   -2   23     -0.48      0.00 
    7   -2   23     -0.07      0.00 
   -5   -1   23      0.46      0.00 
   -4   -1   23      0.08      0.00 
   -3   -1   23     -1.14      0.00 
   -2   -1   23     -0.72      0.00 
   -1   -1   23     -0.36      0.00 
    0   -1   23     -0.77      0.00 
    1   -1   23     -0.95      0.00 
    2   -1   23     -0.26      0.00 
    3   -1   23      0.52      0.00 
    4   -1   23      0.19      0.00 
    5   -1   23      0.07      0.00 
    6   -1   23     -0.53      0.00 
    7   -1   23      0.27      0.00 
   -5    0   23      0.08      0.00 
   -4    0   23     -0.22      0.00 
   -3    0   23     -0.48      0.00 
   -2    0   23     -0.84      0.00 
   -1    0   23      0.00      0.00 
    0    0   23     -1.42      0.00 
    1    0   23     -0.71      0.00 
    2    0   23      0.33      0.00 
    3    0   23      0.35      0.00 
    4    0   23      0.30      0.00 
    5    0   23      0.49      0.00 
    6    0   23      0.04      0.00 
    7    0   23      0.17      0.00 
    8    0   23     -0.13      0.00 
   -5    1   23     -0.26      0.00 
   -4    1   23     -0.12      0.00 
   -3    1   23     -0.14      0.00 
   -2    1   23     -0.49      0.00 
   -1    1   23      0.58      0.00 
    0    1   23     -1.61      0.00 
    1    1   23     -0.01      0.00 
    2    1   23      0.60      0.00 
    3    1   23     -0.40      0.00 
    4    1   23      0.71      0.00 
    5    1   23      0.87      0.00 
    6    1   23      0.52      0.00 
    7    1   23     -0.02      0.00 
    8    1   23     -0.51      0.00 
   -5    2   23     -0.25      0.00 
   -4    2   23     -0.01      0.00 
   -3    2   23     -0.12      0.00 
   -2    2   23      0.50      0.00 
   -1    2   23      0.97      0.00 
    0    2   23     -1.09      0.00 
    1    2   23      0.57      0.00 
    2    2   23      0.35      0.00 
    3    2   23     -1.35      0.00 
    4    2   23      0.79      0.00 
    5    2   23      0.67      0.00 
    6    2   23      0.63      0.00 
    7    2   23      0.24      0.00 
    8    2   23     -0.61      0.00 
   -4    3   23     -0.07      0.00 
   -3    3   23      0.30      0.00 
   -2    3   23      1.11      0.00 
   -1    3   23      0.84      0.00 
    0    3   23     -0.33      0.00 
    1    3   23      0.40      0.00 
    2    3   23     -0.17      0.00 
    3    3   23     -1.78      0.00 
    4    3   23      0.64      0.00 
    5    3   23      0.51      0.00 
    6    3   23      0.48      0.00 
    7    3   23      0.52      0.00 
    8    3   23     -0.63      0.00 
   -4    4   23     -0.01      0.00 
   -3    4   23      0.71      0.00 
   -2    4   23      0.56      0.00 
   -1    4   23      0.63      0.00 
    0    4   23     -0.02      0.00 
    1    4   23     -0.22      0.00 
    2    4   23     -0.35      0.00 
    3    4   23     -1.16      0.00 
    4    4   23      1.09      0.00 
    5    4   23      0.67      0.00 
    6    4   23     -0.06      0.00 
    7    4   23      0.28      0.00 
    8    4   23     -0.52      0.00 
   -3    5   23      0.52      0.00 
   -2    5   23     -0.18      0.00 
   -1    5   23      0.66      0.00 
    0    5   23     -0.17      0.00 
    1    5   23     -0.54      0.00 
    2    5   23     -0.09      0.00 
    3    5   23     -0.04      0.00 
    4    5   23      1.89      0.00 
    5    5   23      0.34      0.00 
    6    5   23     -0.56      0.00 
    7    5   23      0.03      0.00 
    8    5   23     -0.16      0.00 
   -3    6   23      0.36      0.00 
   -2    6   23     -0.34      0.00 
   -1    6   23      0.57      0.00 
    0    6   23     -0.18      0.00 
    1    6   23     -0.63      0.00 
    2    6   23      0.08      0.00 
    3    6   23      0.50      0.00 
    4    6   23      1.85      0.00 
    5    6   23     -0.36      0.00 
    6    6   23     -0.29      0.00 
    7    6   23      0.22      0.00 
    8    6   23      0.18      0.00 
   -2    7   23     -0.46      0.00 
   -1    7   23      0.31      0.00 
    0    7   23      0.04      0.00 
    1    7   23     -0.90      0.00 
    2    7   23      0.02      0.00 
    3    7   23      0.14      0.00 
    4    7   23      0.96      0.00 
    5    7   23     -0.32      0.00 
    6    7   23      0.08      0.00 
    7    7   23      0.42      0.00 
    8    7   23      0.09      0.00 
   -1    8   23      0.26      0.00 
    0    8   23      0.11      0.00 
    1    8   23     -0.99      0.00 
    2    8   23      0.11      0.00 
    3    8   23     -0.48      0.00 
    4    8   23      0.29      0.00 
    5    8   23      0.24      0.00 
    6    8   23     -0.46      0.00 
    7    8   23      0.30      0.00 
    0    9   23     -0.01      0.00 
    1    9   23     -0.59      0.00 
    2    9   23      0.17      0.00 
    3    9   23     -0.81      0.00 
    4    9   23      0.14      0.00 
    5    9   23      0.27      0.00 
    6    9   23     -1.10      0.00 
    7    9   23      0.07      0.00 
    2   10   23     -0.06      0.00 
    3   10   23     -0.77      0.00 
    4   10   23      0.07      0.00 
    5   10   23      0.02      0.00 
   -1   -6   24      0.31      0.00 
    0   -6   24      0.41      0.00 
    1   -6   24     -0.87      0.00 
   -2   -5   24      0.23      0.00 
   -1   -5   24      0.65      0.00 
    0   -5   24      0.35      0.00 
    1   -5   24     -0.81      0.00 
    2   -5   24      1.11      0.00 
    3   -5   24     -1.01      0.00 
   -3   -4   24      0.42      0.00 
   -2   -4   24      0.17      0.00 
   -1   -4   24      0.92      0.00 
    0   -4   24      0.17      0.00 
    1   -4   24     -0.43      0.00 
    2   -4   24      1.42      0.00 
    3   -4   24     -0.57      0.00 
    4   -4   24      0.04      0.00 
    5   -4   24     -0.09      0.00 
   -4   -3   24      0.05      0.00 
   -3   -3   24      0.78      0.00 
   -2   -3   24      0.40      0.00 
   -1   -3   24      0.85      0.00 
    0   -3   24      0.08      0.00 
    1   -3   24      0.09      0.00 
    2   -3   24      1.24      0.00 
    3   -3   24     -0.11      0.00 
    4   -3   24     -0.19      0.00 
    5   -3   24     -0.07      0.00 
    6   -3   24      0.14      0.00 
   -4   -2   24     -0.19      0.00 
   -3   -2   24      1.04      0.00 
   -2   -2   24      0.79      0.00 
   -1   -2   24      0.56      0.00 
    0   -2   24      0.38      0.00 
    1   -2   24      0.59      0.00 
    2   -2   24      0.72      0.00 
    3   -2   24     -0.20      0.00 
    4   -2   24     -0.35      0.00 
    5   -2   24      0.08      0.00 
    6   -2   24      0.59      0.00 
   -4   -1   24     -0.05      0.00 
   -3   -1   24      0.88      0.00 
   -2   -1   24      1.02      0.00 
   -1   -1   24      0.28      0.00 
    0   -1   24      1.03      0.00 
    1   -1   24      0.85      0.00 
    2   -1   24      0.12      0.00 
    3   -1   24     -0.50      0.00 
    4   -1   24     -0.41      0.00 
    5   -1   24     -0.08      0.00 
    6   -1   24      0.59      0.00 
    7   -1   24      0.10      0.00 
   -4    0   24      0.18      0.00 
   -3    0   24      0.34      0.00 
   -2    0   24      1.01      0.00 
   -1    0   24     -0.14      0.00 
    0    0   24      1.62      0.00 
    1    0   24      0.62      0.00 
    2    0   24     -0.32      0.00 
    3    0   24     -0.39      0.00 
    4    0   24     -0.74      0.00 
    5    0   24     -0.66      0.00 
    6    0   24      0.12      0.00 
    7    0   24      0.34      0.00 
   -4    1   24      0.09      0.00 
   -3    1   24      0.07      0.00 
   -2    1   24      0.41      0.00 
   -1    1   24     -0.77      0.00 
    0    1   24      1.62      0.00 
    1    1   24     -0.05      0.00 
    2    1   24     -0.39      0.00 
    3    1   24      0.28      0.00 
    4    1   24     -1.11      0.00 
    5    1   24     -0.92      0.00 
    6    1   24     -0.23      0.00 
    7    1   24      0.43      0.00 
    8    1   24      0.51      0.00 
   -4    2   24      0.03      0.00 
   -3    2   24      0.00      0.00 
   -2    2   24     -0.74      0.00 
   -1    2   24     -1.03      0.00 
    0    2   24      0.92      0.00 
    1    2   24     -0.49      0.00 
    2    2   24     -0.08      0.00 
    3    2   24      1.11      0.00 
    4    2   24     -0.96      0.00 
    5    2   24     -0.57      0.00 
    6    2   24     -0.37      0.00 
    7    2   24     -0.09      0.00 
    8    2   24      0.40      0.00 
   -4    3   24      0.11      0.00 
   -3    3   24     -0.41      0.00 
   -2    3   24     -1.27      0.00 
   -1    3   24     -0.67      0.00 
    0    3   24      0.08      0.00 
    1    3   24     -0.23      0.00 
    2    3   24      0.20      0.00 
    3    3   24      1.37      0.00 
    4    3   24     -0.74      0.00 
    5    3   24     -0.40      0.00 
    6    3   24     -0.35      0.00 
    7    3   24     -0.58      0.00 
    8    3   24      0.23      0.00 
   -3    4   24     -0.62      0.00 
   -2    4   24     -0.55      0.00 
   -1    4   24     -0.32      0.00 
    0    4   24     -0.22      0.00 
    1    4   24      0.27      0.00 
    2    4   24      0.04      0.00 
    3    4   24      0.70      0.00 
    4    4   24     -1.23      0.00 
    5    4   24     -0.47      0.00 
    6    4   24      0.03      0.00 
    7    4   24     -0.47      0.00 
    8    4   24      0.09      0.00 
   -3    5   24     -0.22      0.00 
   -2    5   24      0.21      0.00 
   -1    5   24     -0.35      0.00 
    0    5   24     -0.06      0.00 
    1    5   24      0.44      0.00 
    2    5   24     -0.29      0.00 
    3    5   24     -0.24      0.00 
    4    5   24     -1.94      0.00 
    5    5   24      0.00      0.00 
    6    5   24      0.33      0.00 
    7    5   24     -0.24      0.00 
    8    5   24     -0.13      0.00 
   -2    6   24      0.26      0.00 
   -1    6   24     -0.36      0.00 
    0    6   24      0.00      0.00 
    1    6   24      0.58      0.00 
    2    6   24     -0.28      0.00 
    3    6   24     -0.46      0.00 
    4    6   24     -1.76      0.00 
    5    6   24      0.65      0.00 
    6    6   24      0.01      0.00 
    7    6   24     -0.31      0.00 
    8    6   24     -0.27      0.00 
   -1    7   24     -0.23      0.00 
    0    7   24     -0.10      0.00 
    1    7   24      0.98      0.00 
    2    7   24     -0.10      0.00 
    3    7   24      0.11      0.00 
    4    7   24     -0.98      0.00 
    5    7   24      0.48      0.00 
    6    7   24     -0.17      0.00 
    7    7   24     -0.33      0.00 
    0    8   24     -0.01      0.00 
    1    8   24      1.08      0.00 
    2    8   24     -0.12      0.00 
    3    8   24      0.69      0.00 
    4    8   24     -0.59      0.00 
    5    8   24     -0.05      0.00 
    6    8   24      0.51      0.00 
    7    8   24     -0.16      0.00 
    1    9   24      0.59      0.00 
    2    9   24     -0.17      0.00 
    3    9   24      0.81      0.00 
    4    9   24     -0.51      0.00 
    5    9   24     -0.04      0.00 
    6    9   24      1.08      0.00 
    0   -5   25     -0.01      0.00 
    1   -5   25      0.56      0.00 
    2   -5   25     -0.87      0.00 
   -2   -4   25     -0.11      0.00 
   -1   -4   25     -1.03      0.00 
    0   -4   25      0.18      0.00 
    1   -4   25      0.33      0.00 
    2   -4   25     -1.01      0.00 
    3   -4   25      0.42      0.00 
    4   -4   25      0.02      0.00 
   -3   -3   25     -0.71      0.00 
   -2   -3   25     -0.25      0.00 
   -1   -3   25     -1.01      0.00 
    0   -3   25      0.17      0.00 
    1   -3   25     -0.05      0.00 
    2   -3   25     -0.79      0.00 
    3   -3   25      0.00      0.00 
    4   -3   25      0.24      0.00 
    5   -3   25     -0.08      0.00 
   -3   -2   25     -0.86      0.00 
   -2   -2   25     -0.56      0.00 
   -1   -2   25     -0.77      0.00 
    0   -2   25     -0.29      0.00 
    1   -2   25     -0.46      0.00 
    2   -2   25     -0.35      0.00 
    3   -2   25      0.14      0.00 
    4   -2   25      0.45      0.00 
    5   -2   25     -0.29      0.00 
    6   -2   25     -0.67      0.00 
   -3   -1   25     -0.75      0.00 
   -2   -1   25     -0.75      0.00 
   -1   -1   25     -0.44      0.00 
    0   -1   25     -1.04      0.00 
    1   -1   25     -0.67      0.00 
    2   -1   25      0.10      0.00 
    3   -1   25      0.47      0.00 
    4   -1   25      0.73      0.00 
    5   -1   25      0.01      0.00 
    6   -1   25     -0.64      0.00 
   -3    0   25     -0.36      0.00 
   -2    0   25     -0.68      0.00 
   -1    0   25      0.13      0.00 
    0    0   25     -1.61      0.00 
    1    0   25     -0.42      0.00 
    2    0   25      0.34      0.00 
    3    0   25      0.37      0.00 
    4    0   25      1.26      0.00 
    5    0   25      0.60      0.00 
    6    0   25     -0.31      0.00 
    7    0   25     -0.47      0.00 
   -3    1   25     -0.18      0.00 
   -2    1   25     -0.06      0.00 
   -1    1   25      0.84      0.00 
    0    1   25     -1.54      0.00 
    1    1   25      0.18      0.00 
    2    1   25      0.20      0.00 
    3    1   25     -0.25      0.00 
    4    1   25      1.56      0.00 
    5    1   25      0.69      0.00 
    6    1   25     -0.10      0.00 
    7    1   25     -0.43      0.00 
   -3    2   25     -0.07      0.00 
   -2    2   25      0.95      0.00 
   -1    2   25      1.04      0.00 
    0    2   25     -0.79      0.00 
    1    2   25      0.50      0.00 
    2    2   25     -0.12      0.00 
    3    2   25     -0.91      0.00 
    4    2   25      1.24      0.00 
    5    2   25      0.30      0.00 
    6    2   25      0.05      0.00 
    7    2   25      0.26      0.00 
   -3    3   25      0.36      0.00 
   -2    3   25      1.19      0.00 
   -1    3   25      0.60      0.00 
    0    3   25      0.03      0.00 
    1    3   25      0.24      0.00 
    2    3   25     -0.15      0.00 
    3    3   25     -0.98      0.00 
    4    3   25      0.90      0.00 
    5    3   25      0.22      0.00 
    6    3   25      0.12      0.00 
    7    3   25      0.83      0.00 
   -3    4   25      0.52      0.00 
   -2    4   25      0.31      0.00 
   -1    4   25      0.27      0.00 
    0    4   25      0.25      0.00 
    1    4   25     -0.07      0.00 
    2    4   25      0.24      0.00 
    3    4   25     -0.33      0.00 
    4    4   25      1.25      0.00 
    5    4   25      0.31      0.00 
    6    4   25     -0.07      0.00 
    7    4   25      0.75      0.00 
   -2    5   25     -0.40      0.00 
   -1    5   25      0.36      0.00 
    0    5   25      0.01      0.00 
    1    5   25     -0.12      0.00 
    2    5   25      0.52      0.00 
    3    5   25      0.37      0.00 
    4    5   25      1.66      0.00 
    5    5   25     -0.13      0.00 
    6    5   25     -0.14      0.00 
    7    5   25      0.48      0.00 
   -1    6   25      0.40      0.00 
    0    6   25     -0.12      0.00 
    1    6   25     -0.36      0.00 
    2    6   25      0.33      0.00 
    3    6   25      0.33      0.00 
    4    6   25      1.29      0.00 
    5    6   25     -0.61      0.00 
    6    6   25      0.21      0.00 
    7    6   25      0.39      0.00 
    0    7   25     -0.08      0.00 
    1    7   25     -0.90      0.00 
    2    7   25      0.05      0.00 
    3    7   25     -0.28      0.00 
    4    7   25      0.67      0.00 
    5    7   25     -0.33      0.00 
    6    7   25      0.22      0.00 
    1    8   25     -1.01      0.00 
    2    8   25      0.05      0.00 
    3    8   25     -0.62      0.00 
    4    8   25      0.51      0.00 
    5    8   25      0.13      0.00 
    6    8   25     -0.53      0.00 
    0   -4   26     -0.22      0.00 
    1   -4   26     -0.45      0.00 
    2   -4   26      0.67      0.00 
   -1   -3   26      0.70      0.00 
    0   -3   26     -0.12      0.00 
    1   -3   26     -0.20      0.00 
    2   -3   26      0.44      0.00 
    3   -3   26      0.02      0.00 
    4   -3   26     -0.18      0.00 
   -2   -2   26      0.58      0.00 
   -1   -2   26      0.55      0.00 
    0   -2   26      0.40      0.00 
    1   -2   26      0.13      0.00 
    2   -2   26      0.08      0.00 
    3   -2   26     -0.23      0.00 
    4   -2   26     -0.41      0.00 
    5   -2   26      0.40      0.00 
   -2   -1   26      0.70      0.00 
   -1   -1   26      0.25      0.00 
    0   -1   26      1.10      0.00 
    1   -1   26      0.31      0.00 
    2   -1   26     -0.22      0.00 
    3   -1   26     -0.59      0.00 
    4   -1   26     -0.81      0.00 
    5   -1   26      0.04      0.00 
   -2    0   26      0.57      0.00 
   -1    0   26     -0.32      0.00 
    0    0   26      1.56      0.00 
    1    0   26      0.13      0.00 
    2    0   26     -0.25      0.00 
    3    0   26     -0.49      0.00 
    4    0   26     -1.38      0.00 
    5    0   26     -0.45      0.00 
    6    0   26      0.29      0.00 
   -2    1   26     -0.03      0.00 
   -1    1   26     -0.92      0.00 
    0    1   26      1.37      0.00 
    1    1   26     -0.27      0.00 
    2    1   26      0.06      0.00 
    3    1   26      0.07      0.00 
    4    1   26     -1.60      0.00 
    5    1   26     -0.38      0.00 
    6    1   26      0.21      0.00 
   -2    2   26     -0.87      0.00 
   -1    2   26     -0.93      0.00 
    0    2   26      0.54      0.00 
    1    2   26     -0.40      0.00 
    2    2   26      0.33      0.00 
    3    2   26      0.54      0.00 
    4    2   26     -1.20      0.00 
    5    2   26     -0.03      0.00 
    6    2   26      0.09      0.00 
   -2    3   26     -0.96      0.00 
   -1    3   26     -0.37      0.00 
    0    3   26     -0.31      0.00 
    1    3   26     -0.15      0.00 
    2    3   26      0.09      0.00 
    3    3   26      0.50      0.00 
    4    3   26     -0.85      0.00 
    5    3   26     -0.05      0.00 
    6    3   26     -0.04      0.00 
    7    3   26     -0.84      0.00 
   -2    4   26     -0.15      0.00 
   -1    4   26     -0.04      0.00 
    0    4   26     -0.50      0.00 
    1    4   26      0.01      0.00 
    2    4   26     -0.46      0.00 
    3    4   26      0.03      0.00 
    4    4   26     -1.07      0.00 
    5    4   26     -0.14      0.00 
    6    4   26     -0.03      0.00 
    7    4   26     -0.71      0.00 
   -1    5   26     -0.12      0.00 
    0    5   26     -0.15      0.00 
    1    5   26     -0.02      0.00 
    2    5   26     -0.65      0.00 
    3    5   26     -0.28      0.00 
    4    5   26     -1.25      0.00 
    5    5   26      0.24      0.00 
    6    5   26     -0.17      0.00 
    0    6   26      0.08      0.00 
    1    6   26      0.26      0.00 
    2    6   26     -0.34      0.00 
    3    6   26      0.02      0.00 
    4    6   26     -0.87      0.00 
    5    6   26      0.55      0.00 
    6    6   26     -0.53      0.00 
    1    7   26      0.80      0.00 
    2    7   26     -0.06      0.00 
    3    7   26      0.59      0.00 
    4    7   26     -0.52      0.00 
    5    7   26      0.24      0.00 
    3    8   26      0.70      0.00 
    0   -2   27     -0.19      0.00 
    1   -2   27      0.07      0.00 
    2   -2   27      0.15      0.00 
    3   -2   27      0.28      0.00 
   -1   -1   27     -0.36      0.00 
    0   -1   27     -0.83      0.00 
    1   -1   27     -0.02      0.00 
    2   -1   27      0.30      0.00 
    3   -1   27      0.60      0.00 
    4   -1   27      0.82      0.00 
   -1    0   27      0.20      0.00 
    0    0   27     -1.26      0.00 
    1    0   27      0.12      0.00 
    2    0   27      0.13      0.00 
    3    0   27      0.41      0.00 
    4    0   27      1.37      0.00 
    5    0   27      0.18      0.00 
   -1    1   27      0.72      0.00 
    0    1   27     -1.13      0.00 
    1    1   27      0.36      0.00 
    2    1   27     -0.29      0.00 
    3    1   27     -0.09      0.00 
    4    1   27      1.54      0.00 
    5    1   27     -0.02      0.00 
   -1    2   27      0.65      0.00 
    0    2   27     -0.38      0.00 
    1    2   27      0.36      0.00 
    2    2   27     -0.46      0.00 
    3    2   27     -0.37      0.00 
    4    2   27      1.17      0.00 
    5    2   27     -0.28      0.00 
    6    2   27     -0.15      0.00 
   -1    3   27      0.19      0.00 
    0    3   27      0.37      0.00 
    1    3   27      0.16      0.00 
    2    3   27     -0.02      0.00 
    3    3   27     -0.24      0.00 
    4    3   27      0.80      0.00 
    5    3   27     -0.13      0.00 
    6    3   27     -0.05      0.00 
    0    4   27      0.45      0.00 
    1    4   27      0.13      0.00 
    2    4   27      0.54      0.00 
    3    4   27      0.04      0.00 
    4    4   27      0.82      0.00 
    5    4   27      0.04      0.00 
    6    4   27      0.04      0.00 
    0    5   27      0.00      0.00 
    1    5   27      0.20      0.00 
    2    5   27      0.58      0.00 
    3    5   27      0.07      0.00 
    4    5   27      0.78      0.00 
    5    5   27     -0.18      0.00 
    1    6   27     -0.08      0.00 
    2    6   27      0.21      0.00 
    3    6   27     -0.31      0.00 
    4    6   27      0.42      0.00 
    5    6   27     -0.29      0.00 
    2   -1   28     -0.23      0.00 
    0    0   28      0.98      0.00 
    1    0   28     -0.30      0.00 
    2    0   28      0.10      0.00 
    3    0   28     -0.34      0.00 
    0    1   28      0.89      0.00 
    1    1   28     -0.36      0.00 
    2    1   28      0.56      0.00 
    3    1   28      0.05      0.00 
    4    1   28     -1.12      0.00 
    0    2   28      0.22      0.00 
    1    2   28     -0.27      0.00 
    2    2   28      0.57      0.00 
    3    2   28      0.13      0.00 
    4    2   28     -0.83      0.00 
    1    3   28     -0.10      0.00 
    2    3   28      0.02      0.00 
    3    3   28     -0.03      0.00 
    4    3   28     -0.51      0.00 
    1    4   28     -0.10      0.00 
    2    4   28     -0.49      0.00 
    3    4   28     -0.08      0.00 
    4    4   28     -0.45      0.00 
    3    5   28      0.11      0.00 
   12    0    0     -0.03      0.00 
  -12    1    0      0.07      0.00 
   12    1    0      0.03      0.00 
   12    2    0      0.08      0.00 
  -11    3    0     -0.39      0.00 
   12    3    0      0.18      0.00 
  -11    4    0     -0.12      0.00 
   12    4    0      0.32      0.00 
  -10    5    0     -0.10      0.00 
   12    5    0      0.08      0.00 
  -10    6    0      0.17      0.00 
   12    6    0     -0.26      0.00 
   -9    7    0      0.20      0.00 
   12    7    0     -0.13      0.00 
   -9    8    0     -0.10      0.00 
   12    8    0      0.01      0.00 
   -8    9    0      0.32      0.00 
   11    9    0     -0.45      0.00 
   -7   10    0      0.36      0.00 
   11   10    0     -0.17      0.00 
   -6   11    0     -0.12      0.00 
   10   11    0     -0.04      0.00 
   -5   12    0     -0.19      0.00 
    9   12    0      0.00      0.00 
   10   12    0      0.33      0.00 
   -4   13    0     -0.05      0.00 
   -3   13    0     -0.28      0.00 
    8   13    0      0.48      0.00 
    9   13    0     -0.03      0.00 
   -2   14    0      0.03      0.00 
   -1   14    0      0.37      0.00 
    7   14    0      0.21      0.00 
    8   14    0      0.21      0.00 
   -8  -14    1     -0.17      0.00 
   -7  -14    1      0.11      0.00 
   -6  -14    1     -0.17      0.00 
    1  -14    1     -0.37      0.00 
    2  -14    1     -0.07      0.00 
   -9  -13    1     -0.15      0.00 
   -8  -13    1     -0.45      0.00 
    3  -13    1      0.16      0.00 
    4  -13    1      0.10      0.00 
  -10  -12    1     -0.12      0.00 
   -9  -12    1     -0.06      0.00 
    5  -12    1      0.11      0.00 
  -10  -11    1      0.28      0.00 
    6  -11    1      0.23      0.00 
  -11  -10    1      0.18      0.00 
    7  -10    1     -0.38      0.00 
  -11   -9    1      0.48      0.00 
    8   -9    1     -0.29      0.00 
  -12   -8    1     -0.14      0.00 
    9   -8    1      0.08      0.00 
  -12   -7    1     -0.07      0.00 
    9   -7    1     -0.35      0.00 
  -12   -6    1      0.02      0.00 
   10   -6    1      0.02      0.00 
  -12   -5    1     -0.16      0.00 
   10   -5    1      0.33      0.00 
  -12   -4    1     -0.19      0.00 
   11   -4    1      0.11      0.00 
  -12   -3    1     -0.06      0.00 
   11   -3    1      0.40      0.00 
  -12   -2    1     -0.06      0.00 
  -12   -1    1      0.01      0.00 
   12   -1    1      0.00      0.00 
  -12    0    1      0.09      0.00 
   12    0    1      0.05      0.00 
  -12    1    1     -0.03      0.00 
   12    1    1     -0.05      0.00 
   12    2    1     -0.22      0.00 
  -11    3    1      0.17      0.00 
  -11    4    1     -0.06      0.00 
  -10    5    1      0.11      0.00 
   12    5    1     -0.28      0.00 
  -10    6    1     -0.13      0.00 
   12    6    1      0.19      0.00 
   -9    7    1     -0.12      0.00 
   12    7    1      0.02      0.00 
   -9    8    1      0.03      0.00 
   12    8    1     -0.14      0.00 
   -8    9    1     -0.22      0.00 
   -7   10    1     -0.31      0.00 
   11   10    1      0.20      0.00 
   -6   11    1     -0.11      0.00 
   10   11    1     -0.25      0.00 
   11   11    1      0.02      0.00 
   -5   12    1      0.23      0.00 
   10   12    1     -0.53      0.00 
   -4   13    1      0.02      0.00 
   -3   13    1      0.31      0.00 
    9   13    1      0.15      0.00 
   -2   14    1      0.04      0.00 
   -1   14    1     -0.30      0.00 
    7   14    1     -0.54      0.00 
    8   14    1     -0.07      0.00 
   -7  -14    2     -0.34      0.00 
   -6  -14    2      0.08      0.00 
    1  -14    2      0.42      0.00 
    2  -14    2      0.11      0.00 
   -9  -13    2      0.16      0.00 
   -8  -13    2      0.40      0.00 
    3  -13    2     -0.07      0.00 
    4  -13    2     -0.03      0.00 
   -9  -12    2     -0.02      0.00 
    5  -12    2      0.04      0.00 
  -10  -11    2     -0.41      0.00 
    6  -11    2     -0.40      0.00 
  -11  -10    2     -0.02      0.00 
    7  -10    2      0.41      0.00 
  -11   -9    2     -0.22      0.00 
    8   -9    2      0.25      0.00 
    9   -8    2     -0.14      0.00 
  -12   -7    2     -0.06      0.00 
    9   -7    2      0.29      0.00 
  -12   -6    2     -0.12      0.00 
   10   -6    2     -0.08      0.00 
  -12   -5    2     -0.02      0.00 
   10   -5    2     -0.35      0.00 
  -12   -4    2     -0.05      0.00 
   11   -4    2     -0.24      0.00 
  -12   -3    2     -0.06      0.00 
   11   -3    2     -0.55      0.00 
  -12   -2    2      0.05      0.00 
  -12   -1    2     -0.03      0.00 
   12   -1    2      0.04      0.00 
  -12    0    2     -0.13      0.00 
   12    0    2     -0.04      0.00 
   12    1    2      0.04      0.00 
  -11    2    2     -0.12      0.00 
  -11    3    2     -0.16      0.00 
  -11    4    2      0.02      0.00 
  -10    5    2     -0.05      0.00 
  -10    6    2      0.15      0.00 
   12    6    2     -0.50      0.00 
   -9    7    2     -0.16      0.00 
   12    7    2     -0.26      0.00 
   12    8    2      0.01      0.00 
   -8    9    2      0.19      0.00 
   12    9    2     -0.09      0.00 
   -7   10    2      0.28      0.00 
   11   10    2      0.01      0.00 
   -6   11    2      0.27      0.00 
   11   11    2      0.05      0.00 
   -5   12    2     -0.15      0.00 
   10   12    2      0.65      0.00 
   -4   13    2      0.05      0.00 
   -3   13    2     -0.35      0.00 
    9   13    2     -0.33      0.00 
   -2   14    2     -0.12      0.00 
   -1   14    2      0.19      0.00 
    7   14    2      0.78      0.00 
    8   14    2     -0.04      0.00 
   -7  -14    3      0.44      0.00 
   -6  -14    3     -0.14      0.00 
    0  -14    3      0.57      0.00 
    1  -14    3     -0.43      0.00 
    2  -14    3     -0.15      0.00 
   -8  -13    3     -0.20      0.00 
    3  -13    3     -0.13      0.00 
    4  -13    3      0.01      0.00 
   -9  -12    3      0.01      0.00 
    5  -12    3     -0.17      0.00 
  -10  -11    3      0.42      0.00 
    6  -11    3      0.44      0.00 
  -11  -10    3     -0.06      0.00 
  -10  -10    3      0.65      0.00 
    7  -10    3     -0.35      0.00 
  -11   -9    3      0.13      0.00 
    8   -9    3     -0.16      0.00 
  -11   -8    3      0.69      0.00 
    9   -8    3      0.11      0.00 
  -12   -7    3     -0.06      0.00 
    9   -7    3     -0.32      0.00 
  -12   -6    3     -0.04      0.00 
   10   -6    3      0.19      0.00 
  -12   -5    3     -0.05      0.00 
   10   -5    3      0.40      0.00 
  -12   -4    3      0.03      0.00 
   11   -4    3      0.09      0.00 
  -12   -3    3     -0.03      0.00 
   11   -3    3      0.39      0.00 
  -12   -2    3     -0.16      0.00 
  -12   -1    3      0.01      0.00 
   12   -1    3      0.04      0.00 
  -12    0    3      0.16      0.00 
   12    0    3      0.10      0.00 
   12    1    3     -0.01      0.00 
  -11    2    3      0.00      0.00 
    3    2    3     -3.09      0.00 
  -11    3    3      0.06      0.00 
  -10    5    3      0.22      0.00 
  -10    6    3      0.02      0.00 
   12    6    3      0.50      0.00 
   -9    7    3      0.21      0.00 
   12    7    3      0.14      0.00 
   -8    8    3      0.47      0.00 
   12    8    3     -0.20      0.00 
   -8    9    3     -0.05      0.00 
   12    9    3     -0.09      0.00 
   -7   10    3     -0.29      0.00 
   11   10    3     -0.10      0.00 
   -6   11    3     -0.50      0.00 
   11   11    3     -0.02      0.00 
   -5   12    3      0.10      0.00 
   10   12    3     -0.61      0.00 
   -4   13    3     -0.04      0.00 
   -3   13    3      0.32      0.00 
    9   13    3      0.35      0.00 
   -2   14    3      0.25      0.00 
   -1   14    3     -0.03      0.00 
    7   14    3     -0.85      0.00 
    8   14    3      0.16      0.00 
   -7  -14    4     -0.39      0.00 
   -6  -14    4      0.07      0.00 
   -5  -14    4     -0.17      0.00 
    0  -14    4     -0.49      0.00 
    1  -14    4      0.52      0.00 
    2  -14    4      0.17      0.00 
   -8  -13    4      0.11      0.00 
   -7  -13    4     -1.13      0.00 
    3  -13    4      0.26      0.00 
    4  -13    4      0.11      0.00 
   -9  -12    4     -0.09      0.00 
    5  -12    4      0.25      0.00 
  -10  -11    4     -0.30      0.00 
    6  -11    4     -0.52      0.00 
  -10  -10    4     -0.53      0.00 
    7  -10    4      0.31      0.00 
  -11   -9    4      0.05      0.00 
    8   -9    4      0.08      0.00 
  -11   -8    4     -0.38      0.00 
    9   -8    4     -0.09      0.00 
    9   -7    4      0.28      0.00 
  -12   -6    4     -0.10      0.00 
   10   -6    4     -0.10      0.00 
  -12   -5    4     -0.14      0.00 
   10   -5    4     -0.17      0.00 
  -12   -4    4     -0.18      0.00 
   11   -4    4     -0.11      0.00 
  -12   -3    4      0.03      0.00 
   11   -3    4     -0.39      0.00 
  -12   -2    4      0.21      0.00 
  -12   -1    4      0.02      0.00 
   12   -1    4      0.04      0.00 
   12    0    4     -0.07      0.00 
   12    1    4     -0.01      0.00 
  -11    2    4      0.01      0.00 
  -11    3    4     -0.12      0.00 
  -10    5    4     -0.22      0.00 
   12    6    4     -0.90      0.00 
   -9    7    4     -0.34      0.00 
   12    7    4     -0.41      0.00 
   -8    8    4     -0.35      0.00 
   12    8    4      0.05      0.00 
   -8    9    4      0.07      0.00 
   12    9    4      0.03      0.00 
   -7   10    4      0.30      0.00 
   11   10    4      0.39      0.00 
   -6   11    4      0.60      0.00 
   11   11    4      0.08      0.00 
   -5   12    4     -0.01      0.00 
   10   12    4      0.35      0.00 
   -4   13    4      0.00      0.00 
   -3   13    4     -0.29      0.00 
    9   13    4     -0.32      0.00 
   -2   14    4     -0.38      0.00 
   -1   14    4     -0.13      0.00 
    7   14    4      0.75      0.00 
    8   14    4     -0.09      0.00 
   -6  -14    5     -0.13      0.00 
   -5  -14    5      0.33      0.00 
   -4  -14    5     -0.25      0.00 
   -1  -14    5     -0.03      0.00 
    0  -14    5      0.23      0.00 
    1  -14    5     -0.48      0.00 
   -8  -13    5     -0.04      0.00 
   -7  -13    5      0.76      0.00 
    3  -13    5     -0.42      0.00 
   -9  -12    5      0.06      0.00 
   -8  -12    5      0.03      0.00 
    4  -12    5     -0.13      0.00 
    5  -12    5     -0.28      0.00 
  -10  -11    5      0.14      0.00 
   -9  -11    5      0.47      0.00 
    6  -11    5      0.47      0.00 
  -10  -10    5      0.37      0.00 
    7  -10    5     -0.19      0.00 
  -11   -9    5     -0.05      0.00 
    8   -9    5     -0.04      0.00 
  -11   -8    5      0.30      0.00 
    9   -8    5      0.02      0.00 
  -11   -7    5      0.51      0.00 
    9   -7    5     -0.36      0.00 
   10   -6    5      0.03      0.00 
  -12   -5    5      0.11      0.00 
   10   -5    5      0.00      0.00 
  -12   -4    5      0.16      0.00 
   11   -4    5     -0.05      0.00 
  -12   -3    5     -0.10      0.00 
   11   -3    5      0.12      0.00 
  -12   -2    5     -0.27      0.00 
  -12   -1    5     -0.06      0.00 
   12   -1    5      0.01      0.00 
   12    0    5      0.10      0.00 
  -11    1    5     -0.25      0.00 
   12    1    5      0.02      0.00 
  -11    2    5     -0.05      0.00 
  -11    3    5      0.12      0.00 
  -10    4    5      0.35      0.00 
  -10    5    5      0.25      0.00 
   -9    7    5      0.19      0.00 
   12    7    5      0.28      0.00 
   -8    8    5      0.37      0.00 
   12    8    5     -0.21      0.00 
   -8    9    5      0.00      0.00 
   12    9    5     -0.17      0.00 
   -7   10    5     -0.32      0.00 
   11   10    5     -0.37      0.00 
   -6   11    5     -0.65      0.00 
   11   11    5      0.02      0.00 
   -5   12    5      0.03      0.00 
   10   12    5     -0.01      0.00 
   -4   13    5      0.08      0.00 
   -3   13    5      0.20      0.00 
    9   13    5      0.23      0.00 
   -2   14    5      0.48      0.00 
   -1   14    5      0.22      0.00 
    7   14    5     -0.50      0.00 
    8   14    5     -0.12      0.00 
   -6  -14    6      0.03      0.00 
   -5  -14    6     -0.27      0.00 
   -4  -14    6      0.10      0.00 
   -3  -14    6      0.13      0.00 
   -2  -14    6     -0.20      0.00 
   -1  -14    6      0.08      0.00 
    0  -14    6     -0.08      0.00 
    1  -14    6      0.48      0.00 
   -7  -13    6     -0.37      0.00 
    2  -13    6      0.08      0.00 
    3  -13    6      0.45      0.00 
   -9  -12    6     -0.08      0.00 
   -8  -12    6     -0.05      0.00 
    4  -12    6      0.28      0.00 
    5  -12    6      0.25      0.00 
   -9  -11    6     -0.45      0.00 
    6  -11    6     -0.42      0.00 
  -10  -10    6     -0.22      0.00 
    7  -10    6      0.12      0.00 
  -10   -9    6     -0.26      0.00 
    8   -9    6     -0.01      0.00 
  -11   -8    6     -0.09      0.00 
    8   -8    6     -0.25      0.00 
  -11   -7    6     -0.18      0.00 
    9   -7    6      0.41      0.00 
  -11   -6    6     -0.37      0.00 
   10   -6    6      0.09      0.00 
   10   -5    6      0.24      0.00 
   11   -4    6     -0.04      0.00 
   11   -3    6     -0.07      0.00 
   12   -1    6      0.07      0.00 
  -11    0    6      0.00      0.00 
   12    0    6     -0.01      0.00 
  -11    1    6      0.23      0.00 
   12    1    6      0.03      0.00 
  -11    2    6      0.01      0.00 
  -10    4    6     -0.27      0.00 
  -10    5    6     -0.08      0.00 
   -9    6    6     -0.05      0.00 
   -9    7    6     -0.16      0.00 
   12    7    6     -0.49      0.00 
   -8    8    6     -0.18      0.00 
   12    8    6      0.00      0.00 
   -7    9    6      0.16      0.00 
   12    9    6      0.00      0.00 
   -7   10    6      0.25      0.00 
   11   10    6      0.53      0.00 
   -6   11    6      0.54      0.00 
   11   11    6      0.04      0.00 
   -5   12    6     -0.05      0.00 
   -4   12    6     -0.13      0.00 
   10   12    6     -0.43      0.00 
   -4   13    6     -0.13      0.00 
   -3   13    6     -0.08      0.00 
    9   13    6     -0.15      0.00 
   -2   14    6     -0.52      0.00 
   -1   14    6     -0.25      0.00 
    7   14    6      0.25      0.00 
    8   14    6      0.47      0.00 
   -5  -14    7      0.39      0.00 
   -4  -14    7     -0.09      0.00 
   -3  -14    7     -0.17      0.00 
   -2  -14    7      0.10      0.00 
   -1  -14    7     -0.08      0.00 
    0  -14    7     -0.16      0.00 
    1  -14    7     -0.30      0.00 
   -7  -13    7      0.10      0.00 
   -6  -13    7     -0.29      0.00 
    2  -13    7     -0.09      0.00 
    3  -13    7     -0.49      0.00 
   -8  -12    7      0.11      0.00 
    4  -12    7     -0.27      0.00 
   -9  -11    7      0.36      0.00 
    5  -11    7     -0.11      0.00 
    6  -11    7      0.28      0.00 
  -10  -10    7      0.10      0.00 
    7  -10    7      0.00      0.00 
  -10   -9    7      0.15      0.00 
    8   -9    7      0.00      0.00 
  -11   -8    7      0.05      0.00 
    8   -8    7      0.29      0.00 
  -11   -7    7      0.08      0.00 
    9   -7    7     -0.43      0.00 
  -11   -6    7      0.25      0.00 
   10   -6    7     -0.09      0.00 
  -11   -5    7      0.47      0.00 
   10   -5    7     -0.27      0.00 
   11   -4    7      0.01      0.00 
   11   -3    7     -0.17      0.00 
  -11   -1    7      0.38      0.00 
   12   -1    7      0.04      0.00 
  -11    0    7      0.04      0.00 
   12    0    7      0.02      0.00 
  -11    1    7     -0.15      0.00 
   12    1    7     -0.07      0.00 
  -11    2    7      0.06      0.00 
  -10    4    7      0.15      0.00 
  -10    5    7     -0.05      0.00 
   -9    6    7     -0.17      0.00 
   -9    7    7     -0.02      0.00 
   12    7    7      0.27      0.00 
   -8    8    7      0.24      0.00 
   12    8    7     -0.13      0.00 
   -7    9    7     -0.06      0.00 
   12    9    7     -0.07      0.00 
   -6   10    7     -0.69      0.00 
   11   10    7     -0.29      0.00 
   -6   11    7     -0.38      0.00 
   -5   11    7      0.34      0.00 
   11   11    7      0.07      0.00 
   -5   12    7      0.12      0.00 
   -4   12    7      0.26      0.00 
   10   12    7      0.63      0.00 
   -3   13    7     -0.08      0.00 
    9   13    7      0.19      0.00 
   -2   14    7      0.47      0.00 
   -1   14    7      0.19      0.00 
    7   14    7     -0.02      0.00 
    8   14    7     -0.84      0.00 
   -5  -14    8     -0.27      0.00 
   -4  -14    8     -0.04      0.00 
   -3  -14    8      0.27      0.00 
   -2  -14    8     -0.13      0.00 
   -1  -14    8      0.18      0.00 
    0  -14    8      0.18      0.00 
   -7  -13    8      0.12      0.00 
   -6  -13    8      0.23      0.00 
   -5  -13    8     -0.52      0.00 
    1  -13    8      0.27      0.00 
    2  -13    8      0.10      0.00 
    3  -13    8      0.40      0.00 
   -8  -12    8     -0.12      0.00 
   -7  -12    8      0.16      0.00 
    4  -12    8      0.27      0.00 
   -9  -11    8     -0.31      0.00 
   -8  -11    8     -0.64      0.00 
    5  -11    8      0.10      0.00 
   -9  -10    8     -0.21      0.00 
    6  -10    8     -0.07      0.00 
    7  -10    8     -0.04      0.00 
  -10   -9    8     -0.11      0.00 
    7   -9    8     -0.53      0.00 
  -10   -8    8      0.00      0.00 
    8   -8    8     -0.30      0.00 
  -11   -7    8      0.10      0.00 
    9   -7    8      0.38      0.00 
  -11   -6    8      0.00      0.00 
   10   -6    8      0.02      0.00 
  -11   -5    8     -0.12      0.00 
   10   -5    8      0.21      0.00 
  -11   -4    8      0.14      0.00 
   11   -4    8     -0.13      0.00 
  -11   -3    8      0.29      0.00 
   11   -3    8      0.18      0.00 
  -11   -2    8     -0.13      0.00 
  -11   -1    8     -0.34      0.00 
   12   -1    8     -0.03      0.00 
  -11    0    8     -0.03      0.00 
   12    0    8      0.03      0.00 
  -11    1    8      0.07      0.00 
    4    1    8     -0.83      0.00 
   12    1    8      0.10      0.00 
   12    2    8      0.35      0.00 
  -10    3    8     -0.33      0.00 
  -10    4    8      0.01      0.00 
   -9    6    8      0.14      0.00 
   12    6    8     -0.95      0.00 
   12    7    8     -0.33      0.00 
   -8    8    8     -0.15      0.00 
   12    8    8     -0.07      0.00 
   -7    9    8     -0.19      0.00 
   12    9    8     -0.14      0.00 
   -6   10    8      0.59      0.00 
   11   10    8      0.30      0.00 
   -5   11    8     -0.27      0.00 
   11   11    8      0.02      0.00 
   -4   12    8     -0.30      0.00 
   10   12    8     -0.76      0.00 
   -3   13    8      0.22      0.00 
    9   13    8     -0.23      0.00 
   -2   14    8     -0.37      0.00 
   -1   14    8     -0.15      0.00 
    7   14    8     -0.06      0.00 
    8   14    8      1.02      0.00 
   -4  -14    9      0.00      0.00 
   -3  -14    9     -0.23      0.00 
   -2  -14    9      0.16      0.00 
   -1  -14    9     -0.16      0.00 
    0  -14    9     -0.26      0.00 
   -6  -13    9     -0.32      0.00 
   -5  -13    9      0.35      0.00 
   -4  -13    9      0.00      0.00 
    1  -13    9     -0.12      0.00 
    2  -13    9     -0.15      0.00 
   -7  -12    9     -0.08      0.00 
    3  -12    9     -0.43      0.00 
    4  -12    9     -0.15      0.00 
   -8  -11    9      0.69      0.00 
    5  -11    9     -0.17      0.00 
   -9  -10    9      0.09      0.00 
    6  -10    9     -0.10      0.00 
  -10   -9    9      0.07      0.00 
    7   -9    9      0.51      0.00 
  -10   -8    9      0.01      0.00 
    8   -8    9      0.29      0.00 
  -10   -7    9      0.06      0.00 
    9   -7    9     -0.23      0.00 
  -11   -6    9     -0.02      0.00 
  -11   -5    9      0.01      0.00 
   10   -5    9     -0.04      0.00 
  -11   -4    9     -0.25      0.00 
   11   -4    9      0.09      0.00 
  -11   -3    9     -0.30      0.00 
   11   -3    9     -0.35      0.00 
  -11   -2    9      0.11      0.00 
  -11   -1    9      0.26      0.00 
   12   -1    9      0.16      0.00 
  -11    0    9      0.03      0.00 
   12    0    9      0.00      0.00 
  -11    1    9      0.03      0.00 
   12    1    9     -0.08      0.00 
   12    2    9     -0.29      0.00 
  -10    3    9      0.20      0.00 
  -10    4    9     -0.12      0.00 
   -9    5    9     -0.30      0.00 
   -9    6    9     -0.12      0.00 
   12    6    9      0.55      0.00 
   -8    7    9      0.71      0.00 
   12    7    9      0.04      0.00 
   -8    8    9      0.27      0.00 
   12    8    9     -0.07      0.00 
   -7    9    9      0.25      0.00 
   12    9    9      0.03      0.00 
   -6   10    9     -0.43      0.00 
   11   10    9      0.00      0.00 
   -5   11    9      0.14      0.00 
   11   11    9      0.09      0.00 
   -4   12    9      0.30      0.00 
   10   12    9      0.50      0.00 
   -3   13    9     -0.30      0.00 
   -2   13    9      0.17      0.00 
    9   13    9      0.36      0.00 
   -1   14    9      0.12      0.00 
    0   14    9     -0.92      0.00 
    7   14    9      0.11      0.00 
    8   14    9     -1.03      0.00 
   -2  -14   10     -0.25      0.00 
   -6  -13   10      0.25      0.00 
   -5  -13   10     -0.04      0.00 
   -4  -13   10      0.04      0.00 
   -3  -13   10      0.05      0.00 
   -2  -13   10     -0.35      0.00 
   -1  -13   10      0.27      0.00 
    0  -13   10      0.01      0.00 
    1  -13   10      0.16      0.00 
    2  -13   10      0.19      0.00 
   -7  -12   10      0.00      0.00 
   -6  -12   10      0.41      0.00 
    3  -12   10      0.19      0.00 
    4  -12   10      0.09      0.00 
   -8  -11   10     -0.63      0.00 
    5  -11   10      0.25      0.00 
   -9  -10   10      0.01      0.00 
    6  -10   10      0.17      0.00 
   -9   -9   10      0.33      0.00 
    7   -9   10     -0.39      0.00 
  -10   -8   10     -0.09      0.00 
    8   -8   10     -0.30      0.00 
  -10   -7   10     -0.19      0.00 
    9   -7   10      0.12      0.00 
    9   -6   10     -0.42      0.00 
  -11   -5   10      0.07      0.00 
   10   -5   10     -0.09      0.00 
  -11   -4   10      0.28      0.00 
  -11   -3   10      0.27      0.00 
   11   -3   10      0.32      0.00 
  -11   -2   10     -0.05      0.00 
   11   -2   10      0.55      0.00 
  -11   -1   10     -0.11      0.00 
   12   -1   10     -0.13      0.00 
  -11    0   10      0.05      0.00 
   12    0   10      0.02      0.00 
   12    1   10      0.00      0.00 
  -10    2   10     -0.51      0.00 
   12    2   10      0.10      0.00 
  -10    3   10     -0.09      0.00 
   12    3   10      0.38      0.00 
   12    4   10      0.09      0.00 
   -9    5   10      0.10      0.00 
   12    5   10     -0.46      0.00 
   -9    6   10     -0.06      0.00 
   12    6   10     -0.36      0.00 
   -8    7   10     -0.66      0.00 
   12    7   10     -0.03      0.00 
   -7    8   10     -0.47      0.00 
   12    8   10     -0.05      0.00 
   -7    9   10     -0.33      0.00 
   12    9   10     -0.13      0.00 
   -6   10   10      0.36      0.00 
   11   10   10      0.03      0.00 
   -5   11   10     -0.04      0.00 
   11   11   10      0.00      0.00 
   -4   12   10     -0.22      0.00 
   10   12   10     -0.30      0.00 
   -3   13   10      0.30      0.00 
   -2   13   10     -0.08      0.00 
    9   13   10     -0.32      0.00 
   -1   14   10     -0.17      0.00 
    0   14   10      0.82      0.00 
    7   14   10     -0.11      0.00 
    8   14   10      0.75      0.00 
   -5  -13   11     -0.07      0.00 
   -4  -13   11     -0.16      0.00 
   -3  -13   11      0.02      0.00 
   -2  -13   11      0.44      0.00 
   -1  -13   11     -0.12      0.00 
    0  -13   11     -0.13      0.00 
    1  -13   11     -0.16      0.00 
   -7  -12   11      0.17      0.00 
   -6  -12   11     -0.36      0.00 
    2  -12   11     -0.32      0.00 
    3  -12   11      0.00      0.00 
   -8  -11   11      0.47      0.00 
   -7  -11   11      0.75      0.00 
    4  -11   11      0.15      0.00 
    5  -11   11     -0.31      0.00 
   -8  -10   11      0.79      0.00 
    6  -10   11     -0.15      0.00 
   -9   -9   11     -0.28      0.00 
    7   -9   11      0.23      0.00 
  -10   -8   11      0.11      0.00 
   -9   -8   11     -0.34      0.00 
    8   -8   11      0.27      0.00 
  -10   -7   11      0.19      0.00 
    9   -7   11      0.00      0.00 
  -10   -6   11      0.23      0.00 
    9   -6   11      0.56      0.00 
  -10   -5   11      0.00      0.00 
   10   -5   11      0.14      0.00 
   10   -4   11      0.08      0.00 
   11   -3   11     -0.40      0.00 
   11   -2   11     -0.46      0.00 
  -10    0   11      0.10      0.00 
   12    0   11     -0.01      0.00 
  -10    1   11      0.48      0.00 
   12    1   11      0.07      0.00 
  -10    2   11      0.30      0.00 
   12    2   11     -0.01      0.00 
  -10    3   11     -0.04      0.00 
   12    3   11     -0.32      0.00 
   -9    4   11      0.02      0.00 
   12    4   11     -0.15      0.00 
   -9    5   11      0.03      0.00 
   12    5   11      0.22      0.00 
   12    6   11      0.08      0.00 
   -8    7   11      0.65      0.00 
   12    7   11     -0.13      0.00 
   -7    8   11      0.29      0.00 
   12    8   11     -0.05      0.00 
   -7    9   11      0.21      0.00 
   12    9   11     -0.01      0.00 
   -6   10   11     -0.23      0.00 
   11   10   11      0.10      0.00 
   -5   11   11     -0.09      0.00 
   10   11   11      0.28      0.00 
   11   11   11      0.10      0.00 
   -4   12   11      0.18      0.00 
   -3   12   11     -0.01      0.00 
   10   12   11     -0.05      0.00 
   -3   13   11     -0.24      0.00 
   -2   13   11      0.02      0.00 
    8   13   11     -0.51      0.00 
    9   13   11      0.29      0.00 
   -1   14   11      0.19      0.00 
    0   14   11     -0.54      0.00 
    1   14   11     -0.14      0.00 
    6   14   11      0.25      0.00 
    7   14   11      0.14      0.00 
    8   14   11     -0.42      0.00 
   -4  -13   12      0.14      0.00 
   -3  -13   12     -0.04      0.00 
   -2  -13   12     -0.52      0.00 
   -1  -13   12      0.11      0.00 
    0  -13   12      0.10      0.00 
    1  -13   12      0.24      0.00 
   -6  -12   12      0.15      0.00 
   -5  -12   12      0.35      0.00 
    2  -12   12      0.24      0.00 
    3  -12   12     -0.17      0.00 
   -7  -11   12     -0.73      0.00 
    4  -11   12     -0.15      0.00 
    5  -11   12      0.30      0.00 
   -8  -10   12     -0.52      0.00 
    5  -10   12      1.16      0.00 
    6  -10   12      0.06      0.00 
   -9   -9   12      0.23      0.00 
    7   -9   12     -0.04      0.00 
   -9   -8   12      0.25      0.00 
    8   -8   12     -0.25      0.00 
  -10   -7   12     -0.19      0.00 
    8   -7   12     -0.03      0.00 
  -10   -6   12     -0.24      0.00 
    9   -6   12     -0.50      0.00 
  -10   -5   12     -0.15      0.00 
   10   -5   12     -0.12      0.00 
  -10   -4   12     -0.21      0.00 
   10   -4   12     -0.01      0.00 
  -10   -3   12     -0.38      0.00 
   11   -3   12      0.31      0.00 
  -10   -2   12     -0.15      0.00 
   11   -2   12      0.22      0.00 
  -10   -1   12      0.11      0.00 
  -10    0   12     -0.16      0.00 
   12    0   12      0.05      0.00 
  -10    1   12     -0.40      0.00 
   12    1   12     -0.17      0.00 
  -10    2   12     -0.17      0.00 
   12    2   12     -0.14      0.00 
   12    3   12      0.18      0.00 
   -9    4   12     -0.18      0.00 
   12    4   12      0.07      0.00 
   -9    5   12     -0.13      0.00 
   12    5   12     -0.18      0.00 
   -8    6   12     -0.63      0.00 
   12    6   12     -0.05      0.00 
   -8    7   12     -0.42      0.00 
   12    7   12      0.05      0.00 
   -7    8   12     -0.16      0.00 
   12    8   12     -0.06      0.00 
   -6    9   12      0.44      0.00 
   11    9   12     -0.01      0.00 
   -6   10   12      0.16      0.00 
   -5   10   12      0.18      0.00 
   11   10   12      0.05      0.00 
   -5   11   12      0.11      0.00 
   -4   11   12      0.00      0.00 
   10   11   12      0.02      0.00 
   -4   12   12     -0.10      0.00 
   -3   12   12     -0.03      0.00 
    9   12   12      0.03      0.00 
   10   12   12      0.12      0.00 
   -2   13   12     -0.02      0.00 
    8   13   12      0.14      0.00 
    9   13   12     -0.11      0.00 
   -1   14   12     -0.22      0.00 
    0   14   12      0.42      0.00 
    1   14   12      0.02      0.00 
    6   14   12     -0.05      0.00 
    7   14   12     -0.22      0.00 
    8   14   12      0.05      0.00 
   -3  -13   13      0.07      0.00 
   -2  -13   13      0.43      0.00 
   -1  -13   13      0.00      0.00 
    0  -13   13     -0.16      0.00 
   -5  -12   13     -0.13      0.00 
   -4  -12   13      0.11      0.00 
   -3  -12   13      0.30      0.00 
    0  -12   13     -0.26      0.00 
    1  -12   13     -0.16      0.00 
    2  -12   13     -0.17      0.00 
   -7  -11   13      0.69      0.00 
   -6  -11   13      0.28      0.00 
    3  -11   13      0.40      0.00 
    4  -11   13      0.12      0.00 
   -8  -10   13      0.19      0.00 
   -7  -10   13      0.60      0.00 
    5  -10   13     -0.96      0.00 
   -8   -9   13      0.05      0.00 
    6   -9   13      0.34      0.00 
    7   -9   13     -0.12      0.00 
   -9   -8   13     -0.09      0.00 
    7   -8   13     -0.19      0.00 
   -9   -7   13     -0.07      0.00 
    8   -7   13     -0.01      0.00 
  -10   -6   13      0.12      0.00 
    9   -6   13      0.39      0.00 
  -10   -5   13      0.07      0.00 
   10   -5   13      0.02      0.00 
  -10   -4   13      0.17      0.00 
   10   -4   13     -0.08      0.00 
  -10   -3   13      0.26      0.00 
  -10   -2   13      0.01      0.00 
   11   -2   13     -0.11      0.00 
  -10   -1   13     -0.16      0.00 
   11   -1   13      0.13      0.00 
  -10    0   13      0.10      0.00 
  -10    1   13      0.23      0.00 
   12    1   13      0.18      0.00 
   12    2   13      0.08      0.00 
   -9    3   13      0.28      0.00 
   12    3   13     -0.26      0.00 
   -9    4   13      0.22      0.00 
   12    4   13     -0.15      0.00 
   12    5   13      0.08      0.00 
   -8    6   13      0.47      0.00 
   12    6   13     -0.03      0.00 
   -7    7   13      0.10      0.00 
   12    7   13     -0.05      0.00 
   -7    8   13     -0.04      0.00 
   12    8   13      0.04      0.00 
   -6    9   13     -0.30      0.00 
   11    9   13      0.00      0.00 
   -5   10   13     -0.27      0.00 
   11   10   13     -0.10      0.00 
   -4   11   13      0.09      0.00 
   10   11   13     -0.23      0.00 
   -3   12   13      0.06      0.00 
    9   12   13     -0.32      0.00 
   10   12   13     -0.14      0.00 
   -2   13   13      0.03      0.00 
   -1   13   13      0.57      0.00 
    8   13   13      0.14      0.00 
    9   13   13      0.01      0.00 
    0   14   13     -0.25      0.00 
    1   14   13     -0.15      0.00 
    2   14   13     -0.07      0.00 
    3   14   13      0.29      0.00 
    4   14   13     -0.44      0.00 
    5   14   13     -0.03      0.00 
    6   14   13     -0.03      0.00 
    7   14   13      0.29      0.00 
   -5  -12   14      0.00      0.00 
   -4  -12   14     -0.23      0.00 
   -3  -12   14     -0.27      0.00 
   -2  -12   14     -0.55      0.00 
   -1  -12   14      0.25      0.00 
    0  -12   14      0.04      0.00 
    1  -12   14      0.04      0.00 
    2  -12   14      0.13      0.00 
   -6  -11   14     -0.39      0.00 
   -5  -11   14     -0.38      0.00 
    3  -11   14     -0.20      0.00 
    4  -11   14     -0.10      0.00 
   -7  -10   14     -0.23      0.00 
    5  -10   14      0.68      0.00 
   -8   -9   14      0.12      0.00 
    6   -9   14     -0.41      0.00 
   -8   -8   14      0.08      0.00 
    7   -8   14      0.27      0.00 
   -9   -7   14      0.06      0.00 
    8   -7   14      0.03      0.00 
   -9   -6   14      0.06      0.00 
    9   -6   14     -0.14      0.00 
    9   -5   14     -0.25      0.00 
  -10   -4   14     -0.05      0.00 
   10   -4   14      0.12      0.00 
  -10   -3   14     -0.09      0.00 
   10   -3   14      0.36      0.00 
  -10   -2   14      0.10      0.00 
   11   -2   14     -0.06      0.00 
  -10   -1   14      0.15      0.00 
   11   -1   14     -0.22      0.00 
  -10    0   14     -0.10      0.00 
   11    0   14      0.08      0.00 
   12    1   14     -0.24      0.00 
   -9    2   14     -0.17      0.00 
   12    2   14     -0.10      0.00 
   -9    3   14     -0.31      0.00 
   12    3   14      0.21      0.00 
   -9    4   14     -0.15      0.00 
   12    4   14      0.06      0.00 
   -8    5   14     -0.29      0.00 
   12    5   14     -0.12      0.00 
   -8    6   14     -0.22      0.00 
   12    6   14      0.01      0.00 
   -7    7   14     -0.04      0.00 
   12    7   14     -0.01      0.00 
   -7    8   14      0.12      0.00 
   11    8   14     -0.14      0.00 
   -6    9   14      0.18      0.00 
   11    9   14      0.10      0.00 
   -5   10   14      0.17      0.00 
   11   10   14      0.20      0.00 
   -4   11   14     -0.04      0.00 
   10   11   14      0.24      0.00 
   -3   12   14     -0.15      0.00 
   -2   12   14      0.02      0.00 
    9   12   14      0.42      0.00 
   -2   13   14     -0.02      0.00 
   -1   13   14     -0.36      0.00 
    8   13   14     -0.21      0.00 
    0   14   14      0.29      0.00 
    1   14   14      0.14      0.00 
    2   14   14      0.15      0.00 
    3   14   14     -0.40      0.00 
    4   14   14      0.26      0.00 
    5   14   14     -0.05      0.00 
    6   14   14      0.08      0.00 
    7   14   14     -0.35      0.00 
   -4  -12   15      0.24      0.00 
   -3  -12   15      0.22      0.00 
   -2  -12   15      0.36      0.00 
   -1  -12   15     -0.14      0.00 
    0  -12   15      0.09      0.00 
    1  -12   15      0.10      0.00 
   -6  -11   15      0.29      0.00 
   -5  -11   15      0.34      0.00 
   -4  -11   15      0.54      0.00 
    2  -11   15     -0.24      0.00 
    3  -11   15      0.01      0.00 
   -7  -10   15     -0.03      0.00 
   -6  -10   15      0.36      0.00 
    4  -10   15     -0.02      0.00 
    5  -10   15     -0.37      0.00 
   -7   -9   15     -0.48      0.00 
    5   -9   15      0.04      0.00 
    6   -9   15      0.33      0.00 
   -8   -8   15     -0.20      0.00 
    7   -8   15     -0.25      0.00 
   -9   -7   15      0.03      0.00 
   -8   -7   15      0.27      0.00 
    8   -7   15     -0.07      0.00 
   -9   -6   15     -0.04      0.00 
    8   -6   15     -0.11      0.00 
   -9   -5   15     -0.07      0.00 
    9   -5   15      0.09      0.00 
   -9   -4   15     -0.29      0.00 
   10   -4   15     -0.13      0.00 
   -9   -3   15     -0.60      0.00 
   10   -3   15     -0.37      0.00 
   -9   -2   15     -0.47      0.00 
   11   -2   15      0.09      0.00 
   -9   -1   15     -0.02      0.00 
   11   -1   15      0.19      0.00 
   -9    0   15      0.12      0.00 
   11    0   15     -0.04      0.00 
   -9    1   15      0.05      0.00 
   -9    2   15      0.19      0.00 
   12    2   15     -0.07      0.00 
   -9    3   15      0.23      0.00 
   12    3   15     -0.35      0.00 
   -8    4   15      0.26      0.00 
   12    4   15     -0.13      0.00 
   -8    5   15      0.19      0.00 
   12    5   15      0.03      0.00 
   -7    6   15      0.17      0.00 
   12    6   15     -0.08      0.00 
   -7    7   15      0.02      0.00 
   12    7   15     -0.01      0.00 
   -6    8   15     -0.44      0.00 
   11    8   15      0.08      0.00 
   -6    9   15     -0.02      0.00 
   -5    9   15     -0.25      0.00 
   11    9   15     -0.19      0.00 
   -5   10   15     -0.14      0.00 
   -4   10   15      0.29      0.00 
   10   10   15     -0.33      0.00 
   11   10   15     -0.24      0.00 
   -4   11   15      0.08      0.00 
   -3   11   15      0.52      0.00 
   10   11   15     -0.09      0.00 
   -3   12   15      0.14      0.00 
   -2   12   15      0.06      0.00 
    9   12   15     -0.42      0.00 
   -1   13   15      0.06      0.00 
    0   13   15     -0.69      0.00 
    7   13   15      0.29      0.00 
    8   13   15      0.23      0.00 
    1   14   15     -0.24      0.00 
    2   14   15     -0.07      0.00 
    3   14   15      0.41      0.00 
    4   14   15     -0.13      0.00 
    5   14   15      0.13      0.00 
    6   14   15      0.01      0.00 
    7   14   15      0.28      0.00 
   -2  -12   16     -0.25      0.00 
   -1  -12   16      0.15      0.00 
    0  -12   16     -0.27      0.00 
   -5  -11   16     -0.14      0.00 
   -4  -11   16     -0.28      0.00 
   -3  -11   16     -0.05      0.00 
   -2  -11   16     -0.07      0.00 
   -1  -11   16      0.58      0.00 
    0  -11   16     -0.45      0.00 
    1  -11   16     -0.09      0.00 
    2  -11   16      0.44      0.00 
    3  -11   16      0.08      0.00 
   -6  -10   16     -0.16      0.00 
   -5  -10   16     -0.08      0.00 
    3  -10   16      0.21      0.00 
    4  -10   16     -0.13      0.00 
   -7   -9   16      0.66      0.00 
   -6   -9   16     -0.13      0.00 
    5   -9   16     -0.33      0.00 
    6   -9   16     -0.18      0.00 
   -8   -8   16      0.12      0.00 
   -7   -8   16      0.47      0.00 
    6   -8   16     -0.09      0.00 
    7   -8   16      0.13      0.00 
   -8   -7   16     -0.25      0.00 
    7   -7   16      0.16      0.00 
   -8   -6   16     -0.40      0.00 
    8   -6   16      0.05      0.00 
   -9   -5   16      0.17      0.00 
    9   -5   16      0.09      0.00 
   -9   -4   16      0.35      0.00 
    9   -4   16      0.13      0.00 
   -9   -3   16      0.53      0.00 
   10   -3   16      0.29      0.00 
   -9   -2   16      0.30      0.00 
   10   -2   16      0.57      0.00 
   -9   -1   16     -0.08      0.00 
   11   -1   16     -0.16      0.00 
   -9    0   16     -0.10      0.00 
   11    0   16      0.04      0.00 
   -9    1   16     -0.02      0.00 
   11    1   16      0.26      0.00 
   -9    2   16     -0.14      0.00 
   -8    3   16     -0.33      0.00 
   12    3   16      0.22      0.00 
   -8    4   16     -0.09      0.00 
   12    4   16     -0.02      0.00 
   -8    5   16     -0.09      0.00 
   12    5   16     -0.07      0.00 
   -7    6   16     -0.23      0.00 
   12    6   16      0.11      0.00 
   -7    7   16     -0.05      0.00 
   11    7   16     -0.29      0.00 
   -6    8   16      0.33      0.00 
   11    8   16     -0.09      0.00 
   -5    9   16      0.00      0.00 
   11    9   16      0.14      0.00 
   -4   10   16     -0.30      0.00 
   10   10   16      0.31      0.00 
   -3   11   16     -0.38      0.00 
    9   11   16      0.44      0.00 
   10   11   16      0.03      0.00 
   -2   12   16     -0.02      0.00 
   -1   12   16     -0.11      0.00 
    8   12   16     -0.19      0.00 
    9   12   16      0.21      0.00 
   -1   13   16      0.15      0.00 
    0   13   16      0.74      0.00 
    1   13   16      0.07      0.00 
    6   13   16      0.03      0.00 
    7   13   16     -0.24      0.00 
    8   13   16     -0.08      0.00 
    2   14   16      0.06      0.00 
    3   14   16     -0.32      0.00 
    4   14   16      0.06      0.00 
    5   14   16     -0.23      0.00 
    6   14   16     -0.02      0.00 
   -4  -11   17      0.03      0.00 
   -3  -11   17     -0.02      0.00 
   -2  -11   17     -0.05      0.00 
   -1  -11   17     -0.34      0.00 
    0  -11   17      0.47      0.00 
    1  -11   17     -0.02      0.00 
    2  -11   17     -0.51      0.00 
   -5  -10   17     -0.27      0.00 
   -4  -10   17     -0.36      0.00 
    2  -10   17     -0.85      0.00 
    3  -10   17     -0.16      0.00 
    4  -10   17      0.17      0.00 
   -6   -9   17     -0.07      0.00 
    4   -9   17      0.77      0.00 
    5   -9   17      0.45      0.00 
   -7   -8   17     -0.36      0.00 
    6   -8   17     -0.09      0.00 
   -8   -7   17      0.13      0.00 
   -7   -7   17     -0.09      0.00 
    7   -7   17     -0.01      0.00 
   -8   -6   17      0.14      0.00 
    8   -6   17     -0.04      0.00 
   -8   -5   17     -0.23      0.00 
    9   -5   17     -0.07      0.00 
   -9   -4   17     -0.22      0.00 
    9   -4   17     -0.03      0.00 
   -9   -3   17     -0.27      0.00 
   10   -3   17     -0.19      0.00 
   -9   -2   17     -0.04      0.00 
   10   -2   17     -0.46      0.00 
   -9   -1   17      0.18      0.00 
   11   -1   17      0.07      0.00 
   -9    0   17      0.08      0.00 
   11    0   17     -0.02      0.00 
   11    1   17     -0.14      0.00 
   -8    2   17      0.51      0.00 
   11    2   17     -0.48      0.00 
   -8    3   17      0.13      0.00 
   11    3   17     -0.73      0.00 
   -8    4   17      0.08      0.00 
   11    4   17     -0.31      0.00 
   -7    5   17      0.20      0.00 
   11    5   17      0.29      0.00 
   -7    6   17      0.28      0.00 
   11    6   17      0.38      0.00 
   -6    7   17     -0.35      0.00 
   11    7   17      0.20      0.00 
   -6    8   17     -0.23      0.00 
   11    8   17      0.03      0.00 
   -5    9   17      0.15      0.00 
   10    9   17     -0.26      0.00 
   11    9   17     -0.15      0.00 
   -4   10   17      0.32      0.00 
   10   10   17     -0.06      0.00 
   -3   11   17      0.08      0.00 
   -2   11   17     -0.04      0.00 
    9   11   17     -0.40      0.00 
   10   11   17      0.15      0.00 
   -2   12   17      0.01      0.00 
   -1   12   17     -0.11      0.00 
    8   12   17      0.25      0.00 
    9   12   17     -0.13      0.00 
    0   13   17     -0.54      0.00 
    1   13   17     -0.08      0.00 
    2   13   17     -0.21      0.00 
    5   13   17      0.40      0.00 
    6   13   17      0.04      0.00 
    7   13   17      0.03      0.00 
    2   14   17      0.00      0.00 
    3   14   17      0.13      0.00 
    4   14   17     -0.06      0.00 
    5   14   17      0.23      0.00 
   -3  -11   18      0.03      0.00 
   -2  -11   18      0.00      0.00 
   -1  -11   18      0.23      0.00 
    0  -11   18     -0.49      0.00 
    1  -11   18      0.12      0.00 
   -5  -10   18      0.43      0.00 
   -4  -10   18      0.51      0.00 
   -3  -10   18      0.53      0.00 
   -2  -10   18      0.22      0.00 
    1  -10   18      0.30      0.00 
    2  -10   18      0.80      0.00 
    3  -10   18      0.08      0.00 
   -6   -9   18      0.06      0.00 
   -5   -9   18      0.48      0.00 
    4   -9   18     -0.81      0.00 
    5   -9   18     -0.35      0.00 
   -7   -8   18      0.30      0.00 
   -6   -8   18      0.12      0.00 
    5   -8   18     -0.48      0.00 
    6   -8   18      0.16      0.00 
   -7   -7   18      0.15      0.00 
    6   -7   18      0.04      0.00 
    7   -7   18     -0.07      0.00 
   -8   -6   18     -0.10      0.00 
   -7   -6   18      0.22      0.00 
    7   -6   18      0.18      0.00 
    8   -6   18     -0.05      0.00 
   -8   -5   18      0.19      0.00 
    8   -5   18     -0.07      0.00 
   -8   -4   18      0.22      0.00 
    9   -4   18      0.06      0.00 
   -8   -3   18     -0.13      0.00 
    9   -3   18     -0.17      0.00 
   -8   -2   18     -0.31      0.00 
   10   -2   18      0.31      0.00 
   -8   -1   18     -0.16      0.00 
   10   -1   18      0.31      0.00 
   -8    0   18     -0.19      0.00 
   11    0   18      0.03      0.00 
   -8    1   18     -0.32      0.00 
   11    1   18      0.09      0.00 
   -8    2   18     -0.13      0.00 
   11    2   18      0.46      0.00 
   -8    3   18      0.07      0.00 
   11    3   18      0.73      0.00 
   -7    4   18      0.03      0.00 
   11    4   18      0.36      0.00 
   -7    5   18     -0.26      0.00 
   11    5   18     -0.12      0.00 
   -6    6   18      0.00      0.00 
   11    6   18     -0.18      0.00 
   -6    7   18      0.19      0.00 
   11    7   18     -0.12      0.00 
   -5    8   18     -0.20      0.00 
   11    8   18     -0.07      0.00 
   -4    9   18     -0.63      0.00 
   10    9   18      0.19      0.00 
   -4   10   18     -0.09      0.00 
   -3   10   18      0.23      0.00 
    9   10   18      0.21      0.00 
   10   10   18      0.04      0.00 
   -3   11   18      0.04      0.00 
   -2   11   18      0.07      0.00 
    9   11   18      0.12      0.00 
   -1   12   18      0.11      0.00 
    0   12   18      0.60      0.00 
    7   12   18      0.19      0.00 
    8   12   18     -0.09      0.00 
    0   13   18      0.37      0.00 
    1   13   18     -0.04      0.00 
    2   13   18      0.23      0.00 
    3   13   18      0.19      0.00 
    4   13   18      0.09      0.00 
    5   13   18     -0.48      0.00 
    6   13   18      0.02      0.00 
    7   13   18     -0.03      0.00 
   -4  -10   19     -0.45      0.00 
   -3  -10   19     -0.30      0.00 
   -2  -10   19     -0.10      0.00 
   -1  -10   19     -0.32      0.00 
    0  -10   19      0.16      0.00 
    1  -10   19     -0.21      0.00 
    2  -10   19     -0.66      0.00 
   -5   -9   19     -0.36      0.00 
   -4   -9   19     -0.59      0.00 
    3   -9   19      0.10      0.00 
    4   -9   19      0.63      0.00 
   -6   -8   19     -0.10      0.00 
   -5   -8   19      0.04      0.00 
    5   -8   19      0.33      0.00 
   -7   -7   19     -0.06      0.00 
   -6   -7   19     -0.21      0.00 
    6   -7   19      0.01      0.00 
   -7   -6   19     -0.13      0.00 
    7   -6   19     -0.23      0.00 
   -7   -5   19     -0.04      0.00 
    8   -5   19      0.02      0.00 
   -8   -4   19     -0.09      0.00 
    9   -4   19      0.04      0.00 
   -8   -3   19      0.24      0.00 
    9   -3   19      0.27      0.00 
   -8   -2   19      0.26      0.00 
   10   -2   19     -0.24      0.00 
   -8   -1   19      0.02      0.00 
   10   -1   19     -0.31      0.00 
   -8    0   19      0.01      0.00 
   10    0   19     -0.36      0.00 
   -8    1   19      0.10      0.00 
   11    1   19      0.11      0.00 
   -8    2   19     -0.04      0.00 
   11    2   19     -0.14      0.00 
   -7    3   19     -0.49      0.00 
   11    3   19     -0.34      0.00 
   -7    4   19      0.02      0.00 
   11    4   19     -0.04      0.00 
   -7    5   19      0.23      0.00 
   -6    5   19      0.00      0.00 
   11    5   19      0.23      0.00 
   -6    6   19      0.05      0.00 
   11    6   19      0.17      0.00 
   -5    7   19      0.13      0.00 
   11    7   19      0.10      0.00 
   -5    8   19      0.29      0.00 
   10    8   19     -0.28      0.00 
   -4    9   19      0.46      0.00 
   10    9   19      0.04      0.00 
   -3   10   19     -0.59      0.00 
    9   10   19     -0.25      0.00 
   10   10   19      0.17      0.00 
   -2   11   19      0.08      0.00 
   -1   11   19      0.14      0.00 
    8   11   19      0.10      0.00 
    9   11   19     -0.11      0.00 
   -1   12   19     -0.10      0.00 
    0   12   19     -0.39      0.00 
    1   12   19      0.02      0.00 
    6   12   19      0.16      0.00 
    7   12   19     -0.25      0.00 
    8   12   19      0.16      0.00 
    1   13   19      0.05      0.00 
    2   13   19     -0.25      0.00 
    3   13   19     -0.30      0.00 
    4   13   19     -0.06      0.00 
    5   13   19      0.43      0.00 
    6   13   19      0.02      0.00 
   -2  -10   20     -0.08      0.00 
   -1  -10   20      0.22      0.00 
    0  -10   20     -0.08      0.00 
    1  -10   20      0.07      0.00 
   -4   -9   20      0.31      0.00 
   -3   -9   20      0.26      0.00 
   -2   -9   20     -0.28      0.00 
   -1   -9   20      0.72      0.00 
    0   -9   20      0.48      0.00 
    1   -9   20     -0.02      0.00 
    2   -9   20      0.53      0.00 
    3   -9   20     -0.05      0.00 
   -5   -8   20     -0.15      0.00 
   -4   -8   20      0.19      0.00 
    4   -8   20     -0.65      0.00 
    5   -8   20     -0.16      0.00 
   -6   -7   20      0.14      0.00 
   -5   -7   20     -0.22      0.00 
    5   -7   20     -0.21      0.00 
    6   -7   20     -0.10      0.00 
   -7   -6   20      0.12      0.00 
   -6   -6   20      0.10      0.00 
    6   -6   20      0.20      0.00 
    7   -6   20      0.29      0.00 
   -7   -5   20     -0.05      0.00 
    7   -5   20      0.59      0.00 
    8   -5   20     -0.10      0.00 
   -7   -4   20     -0.25      0.00 
    8   -4   20      0.08      0.00 
   -7   -3   20     -0.18      0.00 
    9   -3   20     -0.15      0.00 
   -7   -2   20     -0.05      0.00 
    9   -2   20     -0.24      0.00 
   -8   -1   20      0.15      0.00 
   -7   -1   20     -0.08      0.00 
   10   -1   20      0.24      0.00 
   -7    0   20      0.13      0.00 
   10    0   20      0.25      0.00 
   -7    1   20      0.63      0.00 
   10    1   20      0.26      0.00 
   -7    2   20      0.71      0.00 
   10    2   20      0.39      0.00 
   11    2   20      0.06      0.00 
   -7    3   20      0.23      0.00 
   11    3   20      0.24      0.00 
   -7    4   20     -0.13      0.00 
   -6    4   20      0.30      0.00 
   11    4   20      0.06      0.00 
   -6    5   20     -0.04      0.00 
   11    5   20     -0.08      0.00 
   -6    6   20     -0.18      0.00 
   10    6   20      0.16      0.00 
   11    6   20     -0.04      0.00 
   -5    7   20     -0.07      0.00 
   10    7   20      0.42      0.00 
   -4    8   20     -0.38      0.00 
   10    8   20      0.21      0.00 
   -4    9   20     -0.22      0.00 
   -3    9   20      0.46      0.00 
    9    9   20      0.19      0.00 
   10    9   20     -0.03      0.00 
   -3   10   20      0.57      0.00 
   -2   10   20      0.13      0.00 
    9   10   20      0.05      0.00 
   -2   11   20     -0.16      0.00 
   -1   11   20     -0.30      0.00 
    7   11   20      0.09      0.00 
    8   11   20      0.08      0.00 
    0   12   20      0.28      0.00 
    1   12   20      0.06      0.00 
    2   12   20      0.49      0.00 
    3   12   20      0.65      0.00 
    4   12   20     -0.12      0.00 
    5   12   20     -0.35      0.00 
    6   12   20     -0.16      0.00 
    7   12   20      0.08      0.00 
    2   13   20      0.23      0.00 
    3   13   20      0.36      0.00 
    4   13   20     -0.03      0.00 
    5   13   20     -0.31      0.00 
   -3   -9   21     -0.01      0.00 
   -2   -9   21      0.27      0.00 
   -1   -9   21     -0.59      0.00 
    0   -9   21     -0.56      0.00 
    1   -9   21      0.17      0.00 
    2   -9   21     -0.45      0.00 
   -5   -8   21      0.20      0.00 
   -4   -8   21     -0.01      0.00 
   -3   -8   21      0.14      0.00 
    2   -8   21     -0.13      0.00 
    3   -8   21      0.15      0.00 
    4   -8   21      0.34      0.00 
   -5   -7   21      0.19      0.00 
    5   -7   21      0.22      0.00 
   -6   -6   21     -0.09      0.00 
   -5   -6   21     -0.28      0.00 
    6   -6   21     -0.27      0.00 
   -6   -5   21      0.14      0.00 
    7   -5   21     -0.37      0.00 
   -7   -4   21      0.31      0.00 
   -6   -4   21      0.40      0.00 
    8   -4   21     -0.15      0.00 
   -7   -3   21      0.14      0.00 
    8   -3   21     -0.06      0.00 
   -7   -2   21     -0.01      0.00 
    9   -2   21      0.26      0.00 
   -7   -1   21      0.04      0.00 
    9   -1   21      0.27      0.00 
   -7    0   21     -0.12      0.00 
   10    0   21     -0.18      0.00 
   -7    1   21     -0.53      0.00 
   10    1   21     -0.03      0.00 
   -7    2   21     -0.52      0.00 
   10    2   21     -0.05      0.00 
   -6    3   21     -0.39      0.00 
   10    3   21     -0.14      0.00 
   -6    4   21     -0.26      0.00 
   10    4   21     -0.01      0.00 
   -6    5   21      0.08      0.00 
   10    5   21      0.00      0.00 
   -5    6   21      0.03      0.00 
   10    6   21     -0.32      0.00 
   -5    7   21      0.06      0.00 
   -4    7   21     -0.05      0.00 
   10    7   21     -0.44      0.00 
   -4    8   21      0.26      0.00 
    9    8   21     -0.09      0.00 
   10    8   21     -0.16      0.00 
   -3    9   21     -0.51      0.00 
    9    9   21     -0.16      0.00 
   -2   10   21      0.11      0.00 
   -1   10   21      0.42      0.00 
    8   10   21     -0.45      0.00 
    9   10   21     -0.02      0.00 
   -1   11   21      0.27      0.00 
    0   11   21     -0.12      0.00 
    1   11   21     -0.17      0.00 
    6   11   21      0.07      0.00 
    7   11   21     -0.15      0.00 
    8   11   21      0.00      0.00 
    1   12   21     -0.11      0.00 
    2   12   21     -0.44      0.00 
    3   12   21     -0.46      0.00 
    4   12   21      0.04      0.00 
    5   12   21      0.32      0.00 
    6   12   21      0.27      0.00 
    7   12   21     -0.05      0.00 
   -1   -9   22      0.52      0.00 
    0   -9   22      0.52      0.00 
    1   -9   22     -0.25      0.00 
   -4   -8   22     -0.11      0.00 
   -3   -8   22     -0.16      0.00 
   -2   -8   22     -0.21      0.00 
   -1   -8   22      0.86      0.00 
    0   -8   22      0.90      0.00 
    1   -8   22     -0.45      0.00 
    2   -8   22      0.03      0.00 
    3   -8   22     -0.07      0.00 
   -5   -7   22     -0.06      0.00 
   -4   -7   22      0.01      0.00 
   -3   -7   22     -0.44      0.00 
    3   -7   22     -0.36      0.00 
    4   -7   22     -0.01      0.00 
    5   -7   22     -0.19      0.00 
   -5   -6   22      0.30      0.00 
    5   -6   22     -0.21      0.00 
    6   -6   22      0.24      0.00 
   -6   -5   22     -0.24      0.00 
   -5   -5   22      0.49      0.00 
    6   -5   22      0.57      0.00 
    7   -5   22      0.19      0.00 
   -6   -4   22     -0.37      0.00 
    7   -4   22      0.33      0.00 
   -6   -3   22     -0.40      0.00 
    8   -3   22     -0.06      0.00 
   -7   -2   22      0.09      0.00 
   -6   -2   22     -0.35      0.00 
    8   -2   22     -0.48      0.00 
    9   -2   22     -0.09      0.00 
   -7   -1   22     -0.07      0.00 
   -6   -1   22     -0.17      0.00 
    9   -1   22     -0.17      0.00 
   -7    0   22      0.00      0.00 
   -6    0   22      0.08      0.00 
    9    0   22     -0.19      0.00 
   -6    1   22      0.26      0.00 
   10    1   22     -0.27      0.00 
   -6    2   22      0.33      0.00 
   10    2   22     -0.33      0.00 
   -6    3   22      0.37      0.00 
   10    3   22     -0.19      0.00 
   -6    4   22      0.23      0.00 
   -5    4   22      0.11      0.00 
   10    4   22     -0.17      0.00 
   -5    5   22      0.04      0.00 
   10    5   22     -0.09      0.00 
   -5    6   22      0.04      0.00 
   -4    6   22      0.13      0.00 
   10    6   22      0.20      0.00 
   -4    7   22      0.01      0.00 
    9    7   22     -0.19      0.00 
   10    7   22      0.29      0.00 
   -3    8   22     -0.17      0.00 
    9    8   22      0.10      0.00 
   -3    9   22      0.39      0.00 
   -2    9   22      0.40      0.00 
    8    9   22      0.64      0.00 
    9    9   22      0.07      0.00 
   -2   10   22     -0.20      0.00 
   -1   10   22     -0.42      0.00 
    0   10   22      0.04      0.00 
    7   10   22      0.01      0.00 
    8   10   22      0.40      0.00 
    0   11   22      0.19      0.00 
    1   11   22      0.21      0.00 
    2   11   22      0.29      0.00 
    3   11   22      0.82      0.00 
    4   11   22     -0.11      0.00 
    5   11   22     -0.05      0.00 
    6   11   22     -0.10      0.00 
    7   11   22      0.05      0.00 
    2   12   22      0.20      0.00 
    3   12   22      0.38      0.00 
    4   12   22     -0.10      0.00 
    5   12   22     -0.23      0.00 
    6   12   22     -0.26      0.00 
   -2   -8   23      0.12      0.00 
   -1   -8   23     -0.57      0.00 
    0   -8   23     -0.64      0.00 
    1   -8   23      0.42      0.00 
    2   -8   23      0.04      0.00 
   -4   -7   23      0.01      0.00 
   -3   -7   23      0.36      0.00 
   -2   -7   23     -0.09      0.00 
   -1   -7   23     -0.55      0.00 
    1   -7   23      0.81      0.00 
    2   -7   23      0.13      0.00 
    3   -7   23      0.37      0.00 
    4   -7   23     -0.14      0.00 
   -5   -6   23     -0.20      0.00 
   -4   -6   23     -0.04      0.00 
   -3   -6   23      0.54      0.00 
    4   -6   23     -0.11      0.00 
    5   -6   23      0.25      0.00 
   -5   -5   23     -0.25      0.00 
   -4   -5   23     -0.03      0.00 
    5   -5   23      0.00      0.00 
    6   -5   23     -0.44      0.00 
   -6   -4   23      0.23      0.00 
   -5   -4   23     -0.07      0.00 
    6   -4   23     -0.13      0.00 
    7   -4   23     -0.03      0.00 
   -6   -3   23      0.16      0.00 
   -5   -3   23      0.18      0.00 
    7   -3   23     -0.24      0.00 
    8   -3   23     -0.11      0.00 
   -6   -2   23      0.11      0.00 
    8   -2   23      0.23      0.00 
   -6   -1   23      0.01      0.00 
    8   -1   23      0.26      0.00 
    9   -1   23      0.22      0.00 
   -6    0   23     -0.15      0.00 
    9    0   23      0.29      0.00 
   -6    1   23     -0.21      0.00 
    9    1   23      0.37      0.00 
   -6    2   23     -0.18      0.00 
    9    2   23      0.30      0.00 
   -5    3   23     -0.15      0.00 
    9    3   23      0.01      0.00 
   10    3   23      0.06      0.00 
   -5    4   23     -0.08      0.00 
    9    4   23     -0.10      0.00 
   10    4   23     -0.02      0.00 
   -5    5   23      0.00      0.00 
   -4    5   23     -0.06      0.00 
    9    5   23      0.16      0.00 
   10    5   23     -0.09      0.00 
   -4    6   23     -0.24      0.00 
    9    6   23      0.32      0.00 
   10    6   23     -0.26      0.00 
   -4    7   23     -0.05      0.00 
   -3    7   23      0.43      0.00 
    9    7   23      0.14      0.00 
   -3    8   23      0.12      0.00 
   -2    8   23     -0.61      0.00 
    8    8   23     -0.30      0.00 
    9    8   23     -0.05      0.00 
   -2    9   23     -0.23      0.00 
   -1    9   23      0.35      0.00 
    8    9   23     -0.45      0.00 
   -1   10   23      0.24      0.00 
    0   10   23     -0.13      0.00 
    1   10   23     -0.22      0.00 
    6   10   23     -0.69      0.00 
    7   10   23     -0.05      0.00 
    8   10   23     -0.20      0.00 
    1   11   23     -0.11      0.00 
    2   11   23     -0.19      0.00 
    3   11   23     -0.46      0.00 
    4   11   23      0.00      0.00 
    5   11   23      0.14      0.00 
    6   11   23      0.12      0.00 
    7   11   23     -0.02      0.00 
   -2   -7   24      0.08      0.00 
   -1   -7   24      0.20      0.00 
    0   -7   24      0.38      0.00 
    1   -7   24     -0.61      0.00 
    2   -7   24     -0.15      0.00 
    3   -7   24     -0.26      0.00 
   -4   -6   24     -0.05      0.00 
   -3   -6   24     -0.28      0.00 
   -2   -6   24      0.26      0.00 
    2   -6   24      0.42      0.00 
    3   -6   24     -0.79      0.00 
    4   -6   24      0.10      0.00 
   -4   -5   24      0.01      0.00 
   -3   -5   24     -0.02      0.00 
    4   -5   24      0.09      0.00 
    5   -5   24     -0.15      0.00 
    6   -5   24      0.23      0.00 
   -5   -4   24      0.02      0.00 
   -4   -4   24      0.16      0.00 
    6   -4   24      0.02      0.00 
   -5   -3   24     -0.17      0.00 
    7   -3   24      0.26      0.00 
   -5   -2   24     -0.38      0.00 
    7   -2   24      0.20      0.00 
    8   -2   24     -0.18      0.00 
   -5   -1   24     -0.38      0.00 
    8   -1   24     -0.12      0.00 
   -5    0   24     -0.09      0.00 
    8    0   24      0.28      0.00 
    9    0   24     -0.18      0.00 
   -5    1   24      0.12      0.00 
    9    1   24     -0.28      0.00 
   -5    2   24      0.07      0.00 
    9    2   24     -0.23      0.00 
   -5    3   24      0.04      0.00 
    9    3   24      0.08      0.00 
   -5    4   24      0.04      0.00 
   -4    4   24      0.05      0.00 
    9    4   24      0.27      0.00 
   -4    5   24      0.10      0.00 
    9    5   24      0.12      0.00 
   -4    6   24      0.22      0.00 
   -3    6   24      0.02      0.00 
    9    6   24     -0.04      0.00 
   -3    7   24     -0.13      0.00 
   -2    7   24      0.25      0.00 
    8    7   24     -0.12      0.00 
    9    7   24      0.02      0.00 
   -2    8   24      0.34      0.00 
   -1    8   24     -0.24      0.00 
    8    8   24      0.14      0.00 
   -1    9   24     -0.27      0.00 
    0    9   24      0.17      0.00 
    7    9   24     -0.03      0.00 
    8    9   24      0.20      0.00 
    0   10   24      0.20      0.00 
    1   10   24      0.13      0.00 
    2   10   24     -0.08      0.00 
    3   10   24      0.62      0.00 
    4   10   24     -0.31      0.00 
    5   10   24      0.12      0.00 
    6   10   24      0.58      0.00 
    7   10   24     -0.02      0.00 
    2   11   24     -0.07      0.00 
    3   11   24      0.37      0.00 
    4   11   24     -0.10      0.00 
    5   11   24     -0.07      0.00 
    0   -7   25     -0.09      0.00 
    1   -7   25      0.34      0.00 
   -2   -6   25     -0.22      0.00 
   -1   -6   25     -0.20      0.00 
    0   -6   25     -0.10      0.00 
    1   -6   25      0.54      0.00 
    2   -6   25     -0.36      0.00 
    3   -6   25      0.67      0.00 
   -3   -5   25     -0.20      0.00 
   -2   -5   25     -0.21      0.00 
   -1   -5   25     -0.69      0.00 
    3   -5   25      0.86      0.00 
    4   -5   25     -0.06      0.00 
    5   -5   25      0.29      0.00 
   -4   -4   25     -0.24      0.00 
   -3   -4   25     -0.53      0.00 
    5   -4   25      0.16      0.00 
    6   -4   25     -0.02      0.00 
   -4   -3   25     -0.10      0.00 
    6   -3   25     -0.27      0.00 
   -5   -2   25      0.30      0.00 
   -4   -2   25      0.17      0.00 
    7   -2   25     -0.12      0.00 
   -5   -1   25      0.27      0.00 
   -4   -1   25      0.09      0.00 
    7   -1   25     -0.17      0.00 
    8   -1   25     -0.16      0.00 
   -5    0   25      0.04      0.00 
   -4    0   25     -0.06      0.00 
    8    0   25     -0.49      0.00 
   -5    1   25     -0.07      0.00 
   -4    1   25      0.03      0.00 
    8    1   25     -0.53      0.00 
   -5    2   25     -0.04      0.00 
   -4    2   25      0.04      0.00 
    8    2   25     -0.25      0.00 
    9    2   25      0.30      0.00 
   -4    3   25     -0.06      0.00 
    8    3   25      0.00      0.00 
    9    3   25      0.04      0.00 
   -4    4   25     -0.06      0.00 
    8    4   25      0.09      0.00 
    9    4   25     -0.16      0.00 
   -4    5   25     -0.17      0.00 
   -3    5   25      0.10      0.00 
    8    5   25      0.14      0.00 
    9    5   25     -0.07      0.00 
   -3    6   25     -0.10      0.00 
   -2    6   25     -0.31      0.00 
    8    6   25      0.12      0.00 
    9    6   25      0.06      0.00 
   -2    7   25     -0.17      0.00 
   -1    7   25      0.28      0.00 
    7    7   25      0.29      0.00 
    8    7   25      0.00      0.00 
   -1    8   25      0.26      0.00 
    0    8   25     -0.16      0.00 
    7    8   25      0.13      0.00 
    8    8   25     -0.10      0.00 
    0    9   25     -0.24      0.00 
    1    9   25     -0.47      0.00 
    2    9   25      0.12      0.00 
    3    9   25     -0.45      0.00 
    4    9   25      0.45      0.00 
    5    9   25      0.05      0.00 
    6    9   25     -0.98      0.00 
    7    9   25      0.10      0.00 
    1   10   25      0.02      0.00 
    2   10   25      0.08      0.00 
    3   10   25     -0.19      0.00 
    4   10   25      0.12      0.00 
    5   10   25     -0.05      0.00 
    6   10   25     -0.46      0.00 
   -1   -6   26     -0.03      0.00 
    0   -6   26      0.00      0.00 
    1   -6   26     -0.34      0.00 
    2   -6   26      0.27      0.00 
   -2   -5   26      0.22      0.00 
   -1   -5   26      0.38      0.00 
    0   -5   26     -0.08      0.00 
    1   -5   26     -0.50      0.00 
    2   -5   26      0.63      0.00 
    3   -5   26     -0.64      0.00 
    4   -5   26      0.07      0.00 
   -3   -4   26      0.35      0.00 
   -2   -4   26      0.17      0.00 
   -1   -4   26      0.67      0.00 
    3   -4   26     -0.27      0.00 
    4   -4   26      0.01      0.00 
    5   -4   26     -0.17      0.00 
   -4   -3   26      0.07      0.00 
   -3   -3   26      0.34      0.00 
   -2   -3   26      0.31      0.00 
    5   -3   26      0.21      0.00 
    6   -3   26      0.17      0.00 
   -4   -2   26     -0.15      0.00 
   -3   -2   26      0.40      0.00 
    6   -2   26      0.46      0.00 
   -4   -1   26     -0.06      0.00 
   -3   -1   26      0.33      0.00 
    6   -1   26      0.44      0.00 
    7   -1   26      0.32      0.00 
   -4    0   26      0.08      0.00 
   -3    0   26      0.09      0.00 
    7    0   26      0.59      0.00 
   -4    1   26      0.03      0.00 
   -3    1   26      0.04      0.00 
    7    1   26      0.41      0.00 
    8    1   26      0.27      0.00 
   -4    2   26      0.06      0.00 
   -3    2   26     -0.01      0.00 
    7    2   26     -0.33      0.00 
    8    2   26     -0.10      0.00 
   -4    3   26      0.13      0.00 
   -3    3   26     -0.36      0.00 
    8    3   26     -0.34      0.00 
   -3    4   26     -0.42      0.00 
    8    4   26     -0.33      0.00 
   -3    5   26      0.02      0.00 
   -2    5   26      0.31      0.00 
    7    5   26     -0.39      0.00 
    8    5   26     -0.21      0.00 
   -2    6   26      0.05      0.00 
   -1    6   26     -0.13      0.00 
    7    6   26     -0.21      0.00 
    8    6   26     -0.07      0.00 
   -1    7   26     -0.05      0.00 
    0    7   26      0.11      0.00 
    6    7   26     -0.41      0.00 
    7    7   26     -0.08      0.00 
    8    7   26      0.00      0.00 
   -1    8   26     -0.11      0.00 
    0    8   26      0.19      0.00 
    1    8   26      0.84      0.00 
    2    8   26     -0.11      0.00 
    4    8   26     -0.60      0.00 
    5    8   26     -0.05      0.00 
    6    8   26      0.32      0.00 
    7    8   26     -0.01      0.00 
    1    9   26      0.28      0.00 
    2    9   26     -0.21      0.00 
    3    9   26      0.34      0.00 
    4    9   26     -0.51      0.00 
    5    9   26      0.12      0.00 
    6    9   26      0.64      0.00 
    3   10   26      0.12      0.00 
    4   10   26     -0.13      0.00 
    0   -5   27      0.29      0.00 
    1   -5   27      0.38      0.00 
    2   -5   27     -0.37      0.00 
   -2   -4   27      0.06      0.00 
   -1   -4   27     -0.56      0.00 
    0   -4   27      0.44      0.00 
    1   -4   27      0.40      0.00 
    2   -4   27     -0.34      0.00 
    3   -4   27      0.09      0.00 
    4   -4   27     -0.05      0.00 
   -2   -3   27     -0.07      0.00 
   -1   -3   27     -0.69      0.00 
    0   -3   27      0.31      0.00 
    1   -3   27      0.25      0.00 
    2   -3   27     -0.12      0.00 
    3   -3   27     -0.05      0.00 
    4   -3   27      0.13      0.00 
    5   -3   27     -0.25      0.00 
   -3   -2   27     -0.17      0.00 
   -2   -2   27     -0.28      0.00 
   -1   -2   27     -0.64      0.00 
    4   -2   27      0.38      0.00 
    5   -2   27     -0.40      0.00 
    6   -2   27     -0.25      0.00 
   -3   -1   27     -0.18      0.00 
   -2   -1   27     -0.33      0.00 
    5   -1   27     -0.08      0.00 
    6   -1   27     -0.26      0.00 
   -3    0   27     -0.06      0.00 
   -2    0   27     -0.20      0.00 
    6    0   27     -0.22      0.00 
    7    0   27     -0.41      0.00 
   -3    1   27     -0.12      0.00 
   -2    1   27      0.24      0.00 
    6    1   27     -0.22      0.00 
    7    1   27     -0.17      0.00 
   -3    2   27     -0.12      0.00 
   -2    2   27      0.80      0.00 
    7    2   27      0.47      0.00 
   -3    3   27      0.20      0.00 
   -2    3   27      0.69      0.00 
    7    3   27      0.83      0.00 
    8    3   27      0.33      0.00 
   -2    4   27     -0.02      0.00 
   -1    4   27      0.04      0.00 
    7    4   27      0.63      0.00 
    8    4   27      0.24      0.00 
   -2    5   27     -0.32      0.00 
   -1    5   27      0.16      0.00 
    6    5   27      0.29      0.00 
    7    5   27      0.26      0.00 
   -1    6   27      0.12      0.00 
    0    6   27     -0.26      0.00 
    6    6   27      0.58      0.00 
    7    6   27      0.05      0.00 
   -1    7   27      0.03      0.00 
    0    7   27     -0.20      0.00 
    1    7   27     -0.55      0.00 
    2    7   27      0.01      0.00 
    3    7   27     -0.70      0.00 
    4    7   27      0.27      0.00 
    5    7   27      0.02      0.00 
    6    7   27      0.37      0.00 
    7    7   27     -0.06      0.00 
    1    8   27     -0.55      0.00 
    2    8   27      0.10      0.00 
    3    8   27     -0.54      0.00 
    4    8   27      0.40      0.00 
    5    8   27      0.17      0.00 
    6    8   27     -0.25      0.00 
    3    9   27     -0.06      0.00 
    4    9   27      0.19      0.00 
    1   -4   28     -0.42      0.00 
    2   -4   28      0.16      0.00 
   -1   -3   28      0.34      0.00 
    0   -3   28     -0.19      0.00 
    1   -3   28     -0.35      0.00 
    2   -3   28     -0.03      0.00 
    3   -3   28      0.00      0.00 
    4   -3   28     -0.04      0.00 
   -2   -2   28      0.32      0.00 
   -1   -2   28      0.36      0.00 
    0   -2   28      0.17      0.00 
    1   -2   28     -0.28      0.00 
    2   -2   28     -0.22      0.00 
    3   -2   28     -0.37      0.00 
    4   -2   28     -0.24      0.00 
    5   -2   28      0.30      0.00 
   -2   -1   28      0.32      0.00 
   -1   -1   28      0.15      0.00 
    0   -1   28      0.63      0.00 
    1   -1   28     -0.26      0.00 
    3   -1   28     -0.60      0.00 
    4   -1   28     -0.59      0.00 
    5   -1   28      0.09      0.00 
   -2    0   28      0.20      0.00 
   -1    0   28     -0.26      0.00 
    4    0   28     -1.00      0.00 
    5    0   28      0.02      0.00 
    6    0   28      0.05      0.00 
   -2    1   28     -0.10      0.00 
   -1    1   28     -0.55      0.00 
    5    1   28      0.25      0.00 
    6    1   28      0.08      0.00 
   -2    2   28     -0.47      0.00 
   -1    2   28     -0.36      0.00 
    5    2   28      0.38      0.00 
    6    2   28      0.09      0.00 
    7    2   28     -0.37      0.00 
   -2    3   28     -0.37      0.00 
   -1    3   28      0.01      0.00 
    0    3   28     -0.47      0.00 
    5    3   28      0.17      0.00 
    6    3   28      0.07      0.00 
    7    3   28     -0.55      0.00 
   -2    4   28      0.09      0.00 
   -1    4   28      0.06      0.00 
    0    4   28     -0.47      0.00 
    5    4   28     -0.01      0.00 
    6    4   28     -0.05      0.00 
    7    4   28     -0.31      0.00 
   -1    5   28     -0.03      0.00 
    0    5   28      0.01      0.00 
    1    5   28     -0.19      0.00 
    2    5   28     -0.42      0.00 
    4    5   28     -0.39      0.00 
    5    5   28      0.11      0.00 
    6    5   28     -0.32      0.00 
    7    5   28      0.01      0.00 
    0    6   28      0.21      0.00 
    1    6   28      0.00      0.00 
    2    6   28     -0.09      0.00 
    3    6   28      0.51      0.00 
    4    6   28     -0.22      0.00 
    5    6   28      0.13      0.00 
    6    6   28     -0.52      0.00 
    1    7   28      0.33      0.00 
    2    7   28     -0.01      0.00 
    3    7   28      0.75      0.00 
    4    7   28     -0.27      0.00 
    5    7   28     -0.09      0.00 
    6    7   28     -0.30      0.00 
    3    8   28      0.48      0.00 
    4    8   28     -0.38      0.00 
    0    0    0      0.00      0.00 
loop_ 
  _platon_squeeze_void_nr 
  _platon_squeeze_void_average_x 
  _platon_squeeze_void_average_y 
  _platon_squeeze_void_average_z 
  _platon_squeeze_void_volume 
  _platon_squeeze_void_count_electrons 
  _platon_squeeze_void_content 
   1 -0.039  0.000  0.500       275        76 ' ' 
   2  0.426  0.968  0.011        11         0 ' ' 
   3  0.589  0.039  0.986        10         0 ' ' 
_platon_squeeze_void_probe_radius                  1.20 
_platon_squeeze_details 
(replace by semicolon in column 1 when used as .sqf) 
TITL 14124 in P-1 
CELL    9.8358   11.9775   23.1490     81.84     79.21     74.97 
SPGR P-1 
C101 0.809 0.873 0.454 !       2.33 eA-3 
C102 0.406 0.968 0.498 !       2.23 eA-3 
C103 1.000 1.000 0.500 !       2.07 eA-3 
C104 0.652 0.952 0.468 !       1.71 eA-3 
C105 0.175 0.036 0.514 !       1.62 eA-3 
C106 0.920 0.058 0.530 !       1.44 eA-3 
Q107 0.318 0.470 0.814 !       0.51 eA-3 
(replace by semicolon in column 1 when used as .sqf) 
;
_shelx_fab_checksum              74149
loop_
_space_group_symop_operation_xyz
'x, y, z'
'-x, -y, -z'
loop_
_atom_site_label
_atom_site_type_symbol
_atom_site_fract_x
_atom_site_fract_y
_atom_site_fract_z
_atom_site_U_iso_or_equiv
_atom_site_adp_type
_atom_site_occupancy
_atom_site_site_symmetry_order
_atom_site_calc_flag
_atom_site_refinement_flags_posn
_atom_site_refinement_flags_adp
Fe1 Fe 0.28135(3) 0.42996(3) 0.21971(2) 0.01621(9) Uani 1 1 d . .
O1 O 0.38304(18) 0.20544(14) -0.14883(7) 0.0290(4) Uani 1 1 d . .
O2 O 0.65591(18) -0.31409(14) 0.36246(8) 0.0367(4) Uani 1 1 d . .
O3 O 0.2063(2) 0.67503(19) 0.58066(8) 0.0468(5) Uani 1 1 d . .
O4 O -0.10142(17) 1.16139(13) 0.06337(7) 0.0305(4) Uani 1 1 d . .
O5 O -0.00490(17) 0.49294(14) 0.22641(8) 0.0309(4) Uani 1 1 d . .
N1 N 0.24797(18) 0.50900(15) 0.13970(8) 0.0178(4) Uani 1 1 d . .
N2 N 0.36093(18) 0.27770(15) 0.18517(8) 0.0178(4) Uani 1 1 d . .
N3 N 0.31807(19) 0.35109(15) 0.29952(8) 0.0200(4) Uani 1 1 d . .
N4 N 0.21327(18) 0.58427(15) 0.25267(8) 0.0182(4) Uani 1 1 d . .
N5 N 0.10244(19) 0.41133(15) 0.23351(8) 0.0204(4) Uani 1 1 d . .
N6 N 0.48493(19) 0.45124(15) 0.20585(8) 0.0199(4) Uani 1 1 d . .
N7 N 0.70180(19) 0.46476(17) 0.16479(8) 0.0245(4) Uani 1 1 d . .
C1 C 0.1799(2) 0.62358(18) 0.12627(9) 0.0183(5) Uani 1 1 d . .
C2 C 0.1520(2) 0.6417(2) 0.06649(10) 0.0240(5) Uani 1 1 d . .
H2 H 0.1055 0.7126 0.0469 0.029 Uiso 1 1 calc R U
C3 C 0.2043(2) 0.5391(2) 0.04343(10) 0.0245(5) Uani 1 1 d . .
H3 H 0.2022 0.5241 0.0044 0.029 Uiso 1 1 calc R U
C4 C 0.2640(2) 0.45630(19) 0.08898(9) 0.0193(5) Uani 1 1 d . .
C5 C 0.3251(2) 0.33944(19) 0.08163(9) 0.0187(5) Uani 1 1 d . .
C6 C 0.3696(2) 0.25690(18) 0.12749(9) 0.0179(5) Uani 1 1 d . .
C7 C 0.4297(2) 0.13562(18) 0.12066(10) 0.0218(5) Uani 1 1 d . .
H7 H 0.4459 0.0992 0.0853 0.026 Uiso 1 1 calc R U
C8 C 0.4586(2) 0.08365(19) 0.17389(10) 0.0221(5) Uani 1 1 d . .
H8 H 0.4997 0.0035 0.1831 0.027 Uiso 1 1 calc R U
C9 C 0.4158(2) 0.17184(18) 0.21438(10) 0.0198(5) Uani 1 1 d . .
C10 C 0.4241(2) 0.15026(19) 0.27454(10) 0.0216(5) Uani 1 1 d . .
C11 C 0.3739(2) 0.23476(19) 0.31403(10) 0.0225(5) Uani 1 1 d . .
C12 C 0.3754(3) 0.2127(2) 0.37678(10) 0.0280(5) Uani 1 1 d . .
H12 H 0.4078 0.1395 0.3980 0.034 Uiso 1 1 calc R U
C13 C 0.3223(3) 0.3152(2) 0.39974(10) 0.0283(5) Uani 1 1 d . .
H13 H 0.3097 0.3278 0.4402 0.034 Uiso 1 1 calc R U
C14 C 0.2883(2) 0.4024(2) 0.35154(10) 0.0225(5) Uani 1 1 d . .
C15 C 0.2419(2) 0.52174(19) 0.35702(10) 0.0211(5) Uani 1 1 d . .
C16 C 0.2083(2) 0.60540(19) 0.30999(10) 0.0202(5) Uani 1 1 d . .
C17 C 0.1593(2) 0.72865(19) 0.31543(10) 0.0234(5) Uani 1 1 d . .
H17 H 0.1489 0.7660 0.3501 0.028 Uiso 1 1 calc R U
C18 C 0.1312(2) 0.78042(19) 0.26219(10) 0.0238(5) Uani 1 1 d . .
H18 H 0.0966 0.8613 0.2522 0.029 Uiso 1 1 calc R U
C19 C 0.1631(2) 0.69082(18) 0.22324(10) 0.0196(5) Uani 1 1 d . .
C20 C 0.1432(2) 0.71075(18) 0.16417(10) 0.0186(5) Uani 1 1 d . .
C21 C 0.3429(2) 0.30208(18) 0.02092(10) 0.0198(5) Uani 1 1 d . .
C22 C 0.4573(2) 0.32008(18) -0.02152(10) 0.0204(5) Uani 1 1 d . .
H22 H 0.5249 0.3550 -0.0113 0.024 Uiso 1 1 calc R U
C23 C 0.4755(2) 0.28851(18) -0.07837(10) 0.0210(5) Uani 1 1 d . .
H23 H 0.5549 0.3014 -0.1066 0.025 Uiso 1 1 calc R U
C24 C 0.3772(2) 0.23792(19) -0.09380(10) 0.0217(5) Uani 1 1 d . .
C25 C 0.2615(3) 0.2194(2) -0.05174(10) 0.0257(5) Uani 1 1 d . .
H25 H 0.1941 0.1842 -0.0618 0.031 Uiso 1 1 calc R U
C26 C 0.2446(3) 0.2522(2) 0.00457(10) 0.0245(5) Uani 1 1 d . .
H26 H 0.1644 0.2405 0.0326 0.029 Uiso 1 1 calc R U
C27 C 0.4992(3) 0.2266(2) -0.19300(11) 0.0333(6) Uani 1 1 d . .
H27A H 0.4980 0.3094 -0.1974 0.050 Uiso 1 1 d R U
H27B H 0.4895 0.2038 -0.2307 0.050 Uiso 1 1 d R U
H27C H 0.5895 0.1811 -0.1811 0.050 Uiso 1 1 d R U
C28 C 0.4880(2) 0.02793(19) 0.29806(10) 0.0216(5) Uani 1 1 d . .
C29 C 0.6340(3) -0.0187(2) 0.28716(11) 0.0282(5) Uani 1 1 d . .
H29 H 0.6938 0.0284 0.2651 0.034 Uiso 1 1 calc R U
C30 C 0.6955(3) -0.1324(2) 0.30761(11) 0.0294(6) Uani 1 1 d . .
H30 H 0.7957 -0.1625 0.2994 0.035 Uiso 1 1 calc R U
C31 C 0.6082(3) -0.2010(2) 0.34008(10) 0.0260(5) Uani 1 1 d . .
C32 C 0.4626(3) -0.1553(2) 0.35178(12) 0.0341(6) Uani 1 1 d . .
H32 H 0.4028 -0.2018 0.3745 0.041 Uiso 1 1 calc R U
C33 C 0.4032(3) -0.0424(2) 0.33069(11) 0.0314(6) Uani 1 1 d . .
H33 H 0.3029 -0.0127 0.3387 0.038 Uiso 1 1 calc R U
C34 C 0.8038(3) -0.3673(2) 0.34695(14) 0.0472(8) Uani 1 1 d . .
H34A H 0.8607 -0.3256 0.3623 0.071 Uiso 1 1 d R U
H34B H 0.8288 -0.3643 0.3038 0.071 Uiso 1 1 d R U
H34C H 0.8233 -0.4484 0.3640 0.071 Uiso 1 1 d R U
C35 C 0.2331(3) 0.56302(19) 0.41591(10) 0.0239(5) Uani 1 1 d . .
C36 C 0.3531(3) 0.5813(2) 0.43245(11) 0.0276(5) Uani 1 1 d . .
H36 H 0.4404 0.5679 0.4058 0.033 Uiso 1 1 calc R U
C37 C 0.3492(3) 0.6189(2) 0.48704(11) 0.0303(6) Uani 1 1 d . .
H37 H 0.4331 0.6305 0.4975 0.036 Uiso 1 1 calc R U
C38 C 0.2243(3) 0.6388(2) 0.52536(11) 0.0329(6) Uani 1 1 d . .
C39 C 0.1019(3) 0.6234(3) 0.50934(13) 0.0493(8) Uani 1 1 d . .
H39 H 0.0143 0.6388 0.5357 0.059 Uiso 1 1 calc R U
C40 C 0.1070(3) 0.5858(3) 0.45500(12) 0.0436(7) Uani 1 1 d . .
H40 H 0.0226 0.5755 0.4444 0.052 Uiso 1 1 calc R U
C41 C 0.3278(3) 0.6953(3) 0.59875(14) 0.0539(9) Uani 1 1 d . .
H41A H 0.3576 0.7600 0.5732 0.081 Uiso 1 1 d R U
H41B H 0.4059 0.6252 0.5957 0.081 Uiso 1 1 d R U
H41C H 0.3036 0.7144 0.6398 0.081 Uiso 1 1 d R U
C42 C 0.0762(2) 0.83143(18) 0.13954(10) 0.0198(5) Uani 1 1 d . .
C43 C 0.1557(3) 0.8946(2) 0.09789(11) 0.0310(6) Uani 1 1 d . .
H43 H 0.2545 0.8624 0.0863 0.037 Uiso 1 1 calc R U
C44 C 0.0937(3) 1.0036(2) 0.07308(12) 0.0335(6) Uani 1 1 d . .
H44 H 0.1500 1.0454 0.0448 0.040 Uiso 1 1 calc R U
C45 C -0.0506(2) 1.05209(19) 0.08941(10) 0.0231(5) Uani 1 1 d . .
C46 C -0.1320(2) 0.98919(18) 0.12973(10) 0.0209(5) Uani 1 1 d . .
H46 H -0.2313 1.0206 0.1405 0.025 Uiso 1 1 calc R U
C47 C -0.0677(2) 0.87940(18) 0.15457(9) 0.0197(5) Uani 1 1 d . .
H47 H -0.1242 0.8369 0.1824 0.024 Uiso 1 1 calc R U
C48 C -0.2509(3) 1.2070(2) 0.07491(12) 0.0365(6) Uani 1 1 d . .
H48A H -0.2816 1.2105 0.1175 0.055 Uiso 1 1 d R U
H48B H -0.2992 1.1567 0.0607 0.055 Uiso 1 1 d R U
H48C H -0.2752 1.2852 0.0544 0.055 Uiso 1 1 d R U
C49 C 0.5735(2) 0.45568(19) 0.15561(10) 0.0215(5) Uani 1 1 d . .
H49 H 0.5502 0.4528 0.1179 0.026 Uiso 1 1 calc R U
C50 C 0.6946(3) 0.4647(2) 0.22438(11) 0.0320(6) Uani 1 1 d . .
H50 H 0.7688 0.4692 0.2443 0.038 Uiso 1 1 calc R U
C51 C 0.5618(3) 0.4568(2) 0.24929(11) 0.0308(6) Uani 1 1 d . .
H51 H 0.5263 0.4554 0.2904 0.037 Uiso 1 1 calc R U
C52 C 0.8258(3) 0.4723(2) 0.11964(11) 0.0307(6) Uani 1 1 d . .
H52A H 0.7961 0.5303 0.0872 0.046 Uiso 1 1 d R U
H52B H 0.8675 0.3965 0.1044 0.046 Uiso 1 1 d R U
H52C H 0.8967 0.4952 0.1370 0.046 Uiso 1 1 d R U
C53 C 0.0672(2) 0.3002(2) 0.25338(10) 0.0239(5) Uani 1 1 d . .
C54 C 0.0595(3) 0.2293(2) 0.21232(11) 0.0288(5) Uani 1 1 d . .
H54 H 0.0793 0.2522 0.1712 0.035 Uiso 1 1 calc R U
C55 C 0.0225(3) 0.1243(2) 0.23208(12) 0.0356(6) Uani 1 1 d . .
H55 H 0.0169 0.0749 0.2044 0.043 Uiso 1 1 calc R U
C56 C -0.0064(3) 0.0918(2) 0.29228(12) 0.0364(6) Uani 1 1 d . .
H56 H -0.0319 0.0201 0.3057 0.044 Uiso 1 1 calc R U
C57 C 0.0019(3) 0.1629(2) 0.33248(12) 0.0374(6) Uani 1 1 d . .
H57 H -0.0176 0.1401 0.3736 0.045 Uiso 1 1 calc R U
C58 C 0.0386(3) 0.2681(2) 0.31316(11) 0.0330(6) Uani 1 1 d . .
H58 H 0.0439 0.3175 0.3409 0.040 Uiso 1 1 calc R U
loop_
_atom_site_aniso_label
_atom_site_aniso_U_11
_atom_site_aniso_U_22
_atom_site_aniso_U_33
_atom_site_aniso_U_23
_atom_site_aniso_U_13
_atom_site_aniso_U_12
Fe1 0.01747(16) 0.01308(16) 0.01745(17) -0.00117(12) -0.00606(12) -0.00039(12)
O1 0.0385(10) 0.0303(9) 0.0209(9) -0.0075(7) -0.0014(7) -0.0127(8)
O2 0.0333(10) 0.0193(9) 0.0499(12) 0.0104(8) -0.0096(8) 0.0021(7)
O3 0.0470(12) 0.0671(14) 0.0316(11) -0.0240(10) -0.0089(9) -0.0108(10)
O4 0.0276(9) 0.0179(8) 0.0382(10) 0.0081(7) -0.0030(7) 0.0011(7)
O5 0.0230(9) 0.0253(9) 0.0431(11) -0.0033(8) -0.0084(8) -0.0014(7)
N1 0.0190(9) 0.0136(9) 0.0200(10) -0.0021(7) -0.0049(7) -0.0008(7)
N2 0.0171(9) 0.0153(9) 0.0202(10) 0.0009(7) -0.0058(7) -0.0017(7)
N3 0.0230(10) 0.0159(9) 0.0200(10) -0.0019(8) -0.0063(8) -0.0008(8)
N4 0.0199(9) 0.0157(9) 0.0187(9) -0.0006(7) -0.0063(7) -0.0020(7)
N5 0.0236(10) 0.0171(10) 0.0192(10) -0.0041(8) -0.0068(8) 0.0012(8)
N6 0.0198(9) 0.0155(9) 0.0235(10) -0.0017(8) -0.0077(8) 0.0003(7)
N7 0.0201(10) 0.0273(11) 0.0248(11) -0.0005(8) -0.0055(8) -0.0033(8)
C1 0.0175(11) 0.0147(11) 0.0209(11) 0.0008(9) -0.0054(9) -0.0006(9)
C2 0.0262(12) 0.0192(12) 0.0227(12) 0.0021(9) -0.0072(10) 0.0014(9)
C3 0.0306(13) 0.0218(12) 0.0196(12) -0.0010(9) -0.0080(10) -0.0011(10)
C4 0.0208(11) 0.0180(11) 0.0181(11) -0.0005(9) -0.0052(9) -0.0024(9)
C5 0.0196(11) 0.0192(11) 0.0180(11) -0.0014(9) -0.0042(9) -0.0051(9)
C6 0.0163(11) 0.0167(11) 0.0205(11) -0.0031(9) -0.0031(9) -0.0028(9)
C7 0.0247(12) 0.0149(11) 0.0246(12) -0.0053(9) -0.0032(10) -0.0014(9)
C8 0.0237(12) 0.0121(11) 0.0280(13) -0.0007(9) -0.0052(10) 0.0005(9)
C9 0.0165(11) 0.0162(11) 0.0257(12) -0.0009(9) -0.0045(9) -0.0021(9)
C10 0.0199(11) 0.0174(11) 0.0265(12) 0.0010(9) -0.0064(9) -0.0023(9)
C11 0.0223(12) 0.0193(12) 0.0239(12) 0.0015(9) -0.0080(9) -0.0001(9)
C12 0.0345(14) 0.0239(13) 0.0229(12) 0.0028(10) -0.0097(10) -0.0014(11)
C13 0.0384(14) 0.0265(13) 0.0194(12) 0.0002(10) -0.0094(10) -0.0046(11)
C14 0.0234(12) 0.0219(12) 0.0219(12) -0.0010(9) -0.0068(9) -0.0033(9)
C15 0.0219(11) 0.0222(12) 0.0196(12) -0.0033(9) -0.0052(9) -0.0043(9)
C16 0.0189(11) 0.0199(12) 0.0229(12) -0.0038(9) -0.0047(9) -0.0047(9)
C17 0.0269(12) 0.0222(12) 0.0228(12) -0.0080(10) -0.0062(10) -0.0041(10)
C18 0.0271(12) 0.0157(11) 0.0277(13) -0.0034(10) -0.0053(10) -0.0023(9)
C19 0.0180(11) 0.0132(11) 0.0267(12) -0.0008(9) -0.0039(9) -0.0026(9)
C20 0.0181(11) 0.0145(11) 0.0214(12) 0.0018(9) -0.0044(9) -0.0018(9)
C21 0.0251(12) 0.0131(11) 0.0199(11) -0.0002(9) -0.0061(9) -0.0014(9)
C22 0.0192(11) 0.0166(11) 0.0257(12) -0.0030(9) -0.0066(9) -0.0023(9)
C23 0.0195(11) 0.0172(11) 0.0234(12) -0.0011(9) -0.0009(9) -0.0016(9)
C24 0.0288(12) 0.0165(11) 0.0193(11) -0.0033(9) -0.0044(9) -0.0034(9)
C25 0.0301(13) 0.0238(12) 0.0276(13) -0.0058(10) -0.0054(10) -0.0117(10)
C26 0.0296(13) 0.0238(12) 0.0212(12) -0.0030(10) -0.0007(10) -0.0102(10)
C27 0.0484(16) 0.0304(14) 0.0231(13) -0.0083(11) 0.0037(11) -0.0168(12)
C28 0.0261(12) 0.0172(11) 0.0198(11) 0.0017(9) -0.0083(9) -0.0004(9)
C29 0.0276(13) 0.0221(12) 0.0335(14) 0.0044(10) -0.0053(11) -0.0069(10)
C30 0.0225(12) 0.0262(13) 0.0353(14) 0.0009(11) -0.0063(10) 0.0008(10)
C31 0.0311(13) 0.0187(12) 0.0256(13) 0.0044(10) -0.0090(10) -0.0017(10)
C32 0.0292(14) 0.0266(14) 0.0414(15) 0.0100(11) -0.0047(11) -0.0052(11)
C33 0.0240(13) 0.0251(13) 0.0392(15) 0.0045(11) -0.0045(11) 0.0000(10)
C34 0.0394(16) 0.0235(14) 0.066(2) 0.0106(14) -0.0102(15) 0.0076(12)
C35 0.0319(13) 0.0174(12) 0.0219(12) -0.0007(9) -0.0082(10) -0.0028(10)
C36 0.0295(13) 0.0257(13) 0.0282(13) -0.0063(10) -0.0055(10) -0.0049(10)
C37 0.0321(14) 0.0291(14) 0.0331(14) -0.0065(11) -0.0128(11) -0.0061(11)
C38 0.0423(16) 0.0351(15) 0.0233(13) -0.0087(11) -0.0108(11) -0.0056(12)
C39 0.0361(16) 0.080(2) 0.0358(16) -0.0266(16) 0.0022(13) -0.0143(15)
C40 0.0345(15) 0.069(2) 0.0337(15) -0.0196(14) -0.0053(12) -0.0160(14)
C41 0.0543(19) 0.063(2) 0.0495(19) -0.0269(16) -0.0258(15) 0.0010(16)
C42 0.0231(12) 0.0144(11) 0.0207(11) -0.0021(9) -0.0054(9) -0.0009(9)
C43 0.0218(12) 0.0245(13) 0.0382(15) 0.0058(11) -0.0014(11) 0.0022(10)
C44 0.0288(13) 0.0235(13) 0.0397(15) 0.0088(11) 0.0023(11) -0.0028(11)
C45 0.0253(12) 0.0144(11) 0.0278(13) 0.0013(9) -0.0075(10) -0.0010(9)
C46 0.0198(11) 0.0180(11) 0.0235(12) -0.0028(9) -0.0053(9) -0.0001(9)
C47 0.0237(12) 0.0169(11) 0.0197(11) -0.0001(9) -0.0064(9) -0.0057(9)
C48 0.0312(14) 0.0231(13) 0.0432(16) 0.0085(11) -0.0041(12) 0.0073(11)
C49 0.0214(12) 0.0202(12) 0.0227(12) 0.0013(9) -0.0082(9) -0.0030(9)
C50 0.0271(13) 0.0482(16) 0.0251(13) -0.0042(12) -0.0094(10) -0.0126(12)
C51 0.0265(13) 0.0458(16) 0.0229(13) -0.0044(11) -0.0067(10) -0.0109(11)
C52 0.0259(13) 0.0397(15) 0.0247(13) 0.0017(11) -0.0021(10) -0.0085(11)
C53 0.0190(11) 0.0211(12) 0.0319(13) -0.0060(10) -0.0024(10) -0.0047(9)
C54 0.0303(13) 0.0304(14) 0.0279(13) -0.0041(11) -0.0058(10) -0.0097(11)
C55 0.0441(16) 0.0288(14) 0.0396(16) -0.0132(12) -0.0053(12) -0.0147(12)
C56 0.0417(16) 0.0187(13) 0.0485(17) -0.0059(12) 0.0011(13) -0.0111(11)
C57 0.0429(16) 0.0320(15) 0.0348(15) -0.0014(12) 0.0034(12) -0.0122(12)
C58 0.0397(15) 0.0289(14) 0.0317(14) -0.0071(11) -0.0006(11) -0.0119(12)
loop_
_atom_type_symbol
_atom_type_description
_atom_type_scat_dispersion_real
_atom_type_scat_dispersion_imag
_atom_type_scat_source
C C 0.0033 0.0016 'International Tables Vol C Tables 4.2.6.8 and 6.1.1.4'
H H 0.0000 0.0000 'International Tables Vol C Tables 4.2.6.8 and 6.1.1.4'
N N 0.0061 0.0033 'International Tables Vol C Tables 4.2.6.8 and 6.1.1.4'
O O 0.0106 0.0060 'International Tables Vol C Tables 4.2.6.8 and 6.1.1.4'
Fe Fe 0.3463 0.8444 'International Tables Vol C Tables 4.2.6.8 and 6.1.1.4'
loop_
_geom_angle_atom_site_label_1
_geom_angle_atom_site_label_2
_geom_angle_atom_site_label_3
_geom_angle
N5 Fe1 N1 89.13(8)
N5 Fe1 N3 91.81(8)
N1 Fe1 N3 179.06(8)
N5 Fe1 N4 90.43(8)
N1 Fe1 N4 89.48(7)
N3 Fe1 N4 90.56(7)
N5 Fe1 N2 92.97(8)
N1 Fe1 N2 90.08(7)
N3 Fe1 N2 89.83(7)
N4 Fe1 N2 176.57(7)
N5 Fe1 N6 178.80(8)
N1 Fe1 N6 91.92(7)
N3 Fe1 N6 87.14(7)
N4 Fe1 N6 89.02(7)
N2 Fe1 N6 87.60(7)
C24 O1 C27 116.78(18)
C31 O2 C34 117.4(2)
C38 O3 C41 117.2(2)
C45 O4 C48 116.38(18)
C4 N1 C1 105.38(17)
C4 N1 Fe1 126.68(14)
C1 N1 Fe1 126.96(14)
C6 N2 C9 105.67(17)
C6 N2 Fe1 127.09(14)
C9 N2 Fe1 127.22(15)
C11 N3 C14 106.02(18)
C11 N3 Fe1 127.33(15)
C14 N3 Fe1 126.63(15)
C19 N4 C16 105.53(18)
C19 N4 Fe1 127.75(15)
C16 N4 Fe1 126.72(15)
O5 N5 C53 113.21(18)
O5 N5 Fe1 123.42(15)
C53 N5 Fe1 123.36(14)
C49 N6 C51 105.40(19)
C49 N6 Fe1 128.63(15)
C51 N6 Fe1 125.86(15)
C49 N7 C50 107.15(19)
C49 N7 C52 126.6(2)
C50 N7 C52 126.3(2)
N1 C1 C20 125.9(2)
N1 C1 C2 110.26(18)
C20 C1 C2 123.81(19)
C3 C2 C1 106.99(19)
C3 C2 H2 126.5
C1 C2 H2 126.5
C2 C3 C4 107.2(2)
C2 C3 H3 126.4
C4 C3 H3 126.4
N1 C4 C5 126.26(19)
N1 C4 C3 110.20(19)
C5 C4 C3 123.5(2)
C4 C5 C6 123.4(2)
C4 C5 C21 117.44(19)
C6 C5 C21 119.12(19)
N2 C6 C5 125.93(19)
N2 C6 C7 110.20(18)
C5 C6 C7 123.9(2)
C8 C7 C6 106.93(19)
C8 C7 H7 126.5
C6 C7 H7 126.5
C7 C8 C9 107.37(19)
C7 C8 H8 126.3
C9 C8 H8 126.3
N2 C9 C10 125.9(2)
N2 C9 C8 109.82(19)
C10 C9 C8 124.2(2)
C11 C10 C9 123.7(2)
C11 C10 C28 118.5(2)
C9 C10 C28 117.80(19)
N3 C11 C10 125.8(2)
N3 C11 C12 109.80(19)
C10 C11 C12 124.4(2)
C13 C12 C11 107.2(2)
C13 C12 H12 126.4
C11 C12 H12 126.4
C12 C13 C14 107.3(2)
C12 C13 H13 126.4
C14 C13 H13 126.4
N3 C14 C15 125.9(2)
N3 C14 C13 109.69(19)
C15 C14 C13 124.3(2)
C16 C15 C14 123.7(2)
C16 C15 C35 117.8(2)
C14 C15 C35 118.4(2)
N4 C16 C15 126.1(2)
N4 C16 C17 109.87(19)
C15 C16 C17 124.0(2)
C18 C17 C16 107.0(2)
C18 C17 H17 126.5
C16 C17 H17 126.5
C17 C18 C19 107.2(2)
C17 C18 H18 126.4
C19 C18 H18 126.4
N4 C19 C20 125.65(19)
N4 C19 C18 110.34(19)
C20 C19 C18 124.0(2)
C1 C20 C19 123.35(19)
C1 C20 C42 117.27(19)
C19 C20 C42 119.37(19)
C22 C21 C26 117.9(2)
C22 C21 C5 120.3(2)
C26 C21 C5 121.8(2)
C23 C22 C21 121.8(2)
C23 C22 H22 119.1
C21 C22 H22 119.1
C24 C23 C22 119.6(2)
C24 C23 H23 120.2
C22 C23 H23 120.2
O1 C24 C23 124.6(2)
O1 C24 C25 116.1(2)
C23 C24 C25 119.3(2)
C26 C25 C24 120.2(2)
C26 C25 H25 119.9
C24 C25 H25 119.9
C25 C26 C21 121.2(2)
C25 C26 H26 119.4
C21 C26 H26 119.4
O1 C27 H27A 109.5
O1 C27 H27B 109.4
H27A C27 H27B 109.5
O1 C27 H27C 109.5
H27A C27 H27C 109.5
H27B C27 H27C 109.5
C29 C28 C33 117.8(2)
C29 C28 C10 120.9(2)
C33 C28 C10 121.3(2)
C28 C29 C30 122.0(2)
C28 C29 H29 119.0
C30 C29 H29 119.0
C31 C30 C29 119.0(2)
C31 C30 H30 120.5
C29 C30 H30 120.5
O2 C31 C32 115.9(2)
O2 C31 C30 124.5(2)
C32 C31 C30 119.6(2)
C31 C32 C33 120.5(2)
C31 C32 H32 119.7
C33 C32 H32 119.7
C32 C33 C28 121.0(2)
C32 C33 H33 119.5
C28 C33 H33 119.5
O2 C34 H34A 109.5
O2 C34 H34B 109.5
H34A C34 H34B 109.5
O2 C34 H34C 109.5
H34A C34 H34C 109.5
H34B C34 H34C 109.5
C40 C35 C36 117.8(2)
C40 C35 C15 122.1(2)
C36 C35 C15 120.1(2)
C35 C36 C37 121.8(2)
C35 C36 H36 119.1
C37 C36 H36 119.1
C38 C37 C36 119.5(2)
C38 C37 H37 120.3
C36 C37 H37 120.3
C37 C38 O3 125.3(2)
C37 C38 C39 119.9(2)
O3 C38 C39 114.8(2)
C40 C39 C38 120.2(3)
C40 C39 H39 119.9
C38 C39 H39 119.9
C35 C40 C39 120.9(3)
C35 C40 H40 119.5
C39 C40 H40 119.5
O3 C41 H41A 109.5
O3 C41 H41B 109.5
H41A C41 H41B 109.5
O3 C41 H41C 109.5
H41A C41 H41C 109.5
H41B C41 H41C 109.5
C47 C42 C43 118.1(2)
C47 C42 C20 121.0(2)
C43 C42 C20 120.75(19)
C44 C43 C42 121.2(2)
C44 C43 H43 119.4
C42 C43 H43 119.4
C43 C44 C45 120.2(2)
C43 C44 H44 119.9
C45 C44 H44 119.9
O4 C45 C46 124.8(2)
O4 C45 C44 115.9(2)
C46 C45 C44 119.3(2)
C45 C46 C47 119.8(2)
C45 C46 H46 120.1
C47 C46 H46 120.1
C42 C47 C46 121.4(2)
C42 C47 H47 119.3
C46 C47 H47 119.3
O4 C48 H48A 109.5
O4 C48 H48B 109.5
H48A C48 H48B 109.5
O4 C48 H48C 109.5
H48A C48 H48C 109.5
H48B C48 H48C 109.5
N6 C49 N7 111.2(2)
N6 C49 H49 124.4
N7 C49 H49 124.4
C51 C50 N7 106.6(2)
C51 C50 H50 126.7
N7 C50 H50 126.7
C50 C51 N6 109.7(2)
C50 C51 H51 125.2
N6 C51 H51 125.2
N7 C52 H52A 109.5
N7 C52 H52B 109.5
H52A C52 H52B 109.5
N7 C52 H52C 109.5
H52A C52 H52C 109.5
H52B C52 H52C 109.5
C58 C53 C54 121.0(2)
C58 C53 N5 119.2(2)
C54 C53 N5 119.8(2)
C53 C54 C55 119.1(2)
C53 C54 H54 120.4
C55 C54 H54 120.4
C56 C55 C54 120.0(2)
C56 C55 H55 120.0
C54 C55 H55 120.0
C57 C56 C55 120.2(2)
C57 C56 H56 119.9
C55 C56 H56 119.9
C56 C57 C58 120.2(3)
C56 C57 H57 119.9
C58 C57 H57 119.9
C53 C58 C57 119.5(2)
C53 C58 H58 120.3
C57 C58 H58 120.3
loop_
_geom_bond_atom_site_label_1
_geom_bond_atom_site_label_2
_geom_bond_distance
Fe1 N5 1.7947(19)
Fe1 N1 2.0009(18)
Fe1 N3 2.0034(18)
Fe1 N4 2.0035(18)
Fe1 N2 2.0043(18)
Fe1 N6 2.0440(19)
O1 C24 1.371(3)
O1 C27 1.433(3)
O2 C31 1.373(3)
O2 C34 1.428(3)
O3 C38 1.375(3)
O3 C41 1.425(3)
O4 C45 1.370(3)
O4 C48 1.417(3)
O5 N5 1.258(2)
N1 C4 1.375(3)
N1 C1 1.382(3)
N2 C6 1.376(3)
N2 C9 1.377(3)
N3 C11 1.377(3)
N3 C14 1.378(3)
N4 C19 1.374(3)
N4 C16 1.375(3)
N5 C53 1.452(3)
N6 C49 1.320(3)
N6 C51 1.385(3)
N7 C49 1.352(3)
N7 C50 1.368(3)
N7 C52 1.463(3)
C1 C20 1.391(3)
C1 C2 1.436(3)
C2 C3 1.348(3)
C2 H2 0.9500
C3 C4 1.439(3)
C3 H3 0.9500
C4 C5 1.394(3)
C5 C6 1.396(3)
C5 C21 1.500(3)
C6 C7 1.439(3)
C7 C8 1.345(3)
C7 H7 0.9500
C8 C9 1.440(3)
C8 H8 0.9500
C9 C10 1.394(3)
C10 C11 1.392(3)
C10 C28 1.504(3)
C11 C12 1.441(3)
C12 C13 1.347(3)
C12 H12 0.9500
C13 C14 1.441(3)
C13 H13 0.9500
C14 C15 1.399(3)
C15 C16 1.397(3)
C15 C35 1.495(3)
C16 C17 1.445(3)
C17 C18 1.342(3)
C17 H17 0.9500
C18 C19 1.434(3)
C18 H18 0.9500
C19 C20 1.396(3)
C20 C42 1.504(3)
C21 C22 1.389(3)
C21 C26 1.392(3)
C22 C23 1.387(3)
C22 H22 0.9500
C23 C24 1.388(3)
C23 H23 0.9500
C24 C25 1.395(3)
C25 C26 1.382(3)
C25 H25 0.9500
C26 H26 0.9500
C27 H27A 0.9800
C27 H27B 0.9800
C27 H27C 0.9800
C28 C29 1.387(3)
C28 C33 1.387(3)
C29 C30 1.394(3)
C29 H29 0.9500
C30 C31 1.388(3)
C30 H30 0.9500
C31 C32 1.384(3)
C32 C33 1.384(3)
C32 H32 0.9500
C33 H33 0.9500
C34 H34A 0.9800
C34 H34B 0.9800
C34 H34C 0.9800
C35 C40 1.381(4)
C35 C36 1.383(3)
C36 C37 1.391(3)
C36 H36 0.9500
C37 C38 1.361(4)
C37 H37 0.9500
C38 C39 1.387(4)
C39 C40 1.383(4)
C39 H39 0.9500
C40 H40 0.9500
C41 H41A 0.9800
C41 H41B 0.9800
C41 H41C 0.9800
C42 C47 1.380(3)
C42 C43 1.390(3)
C43 C44 1.382(3)
C43 H43 0.9500
C44 C45 1.389(3)
C44 H44 0.9500
C45 C46 1.383(3)
C46 C47 1.396(3)
C46 H46 0.9500
C47 H47 0.9500
C48 H48A 0.9800
C48 H48B 0.9800
C48 H48C 0.9800
C49 H49 0.9500
C50 C51 1.346(3)
C50 H50 0.9500
C51 H51 0.9500
C52 H52A 0.9800
C52 H52B 0.9800
C52 H52C 0.9800
C53 C58 1.379(3)
C53 C54 1.385(3)
C54 C55 1.391(4)
C54 H54 0.9500
C55 C56 1.389(4)
C55 H55 0.9500
C56 C57 1.374(4)
C56 H56 0.9500
C57 C58 1.391(4)
C57 H57 0.9500
C58 H58 0.9500
loop_
_geom_hbond_atom_site_label_D
_geom_hbond_atom_site_label_H
_geom_hbond_atom_site_label_A
_geom_hbond_distance_DH
_geom_hbond_distance_HA
_geom_hbond_distance_DA
_geom_hbond_angle_DHA
_geom_hbond_site_symmetry_A
C8 H8 O1 0.95 2.64 3.491(3) 150.0 2_655
C50 H50 O5 0.95 2.27 3.071(3) 141.4 1_655
C52 H52C O5 0.98 2.44 3.297(3) 146.3 1_655
loop_
_geom_torsion_atom_site_label_1
_geom_torsion_atom_site_label_2
_geom_torsion_atom_site_label_3
_geom_torsion_atom_site_label_4
_geom_torsion
N1 Fe1 N5 O5 -51.39(17)
N3 Fe1 N5 O5 128.65(17)
N4 Fe1 N5 O5 38.08(17)
N2 Fe1 N5 O5 -141.43(17)
N1 Fe1 N5 C53 127.91(17)
N3 Fe1 N5 C53 -52.05(17)
N4 Fe1 N5 C53 -142.62(17)
N2 Fe1 N5 C53 37.87(17)
C4 N1 C1 C20 -179.0(2)
Fe1 N1 C1 C20 11.8(3)
C4 N1 C1 C2 0.6(2)
Fe1 N1 C1 C2 -168.61(15)
N1 C1 C2 C3 -0.7(3)
C20 C1 C2 C3 178.9(2)
C1 C2 C3 C4 0.5(3)
C1 N1 C4 C5 -178.8(2)
Fe1 N1 C4 C5 -9.5(3)
C1 N1 C4 C3 -0.3(2)
Fe1 N1 C4 C3 168.95(15)
C2 C3 C4 N1 -0.1(3)
C2 C3 C4 C5 178.4(2)
N1 C4 C5 C6 5.1(4)
C3 C4 C5 C6 -173.2(2)
N1 C4 C5 C21 -175.0(2)
C3 C4 C5 C21 6.7(3)
C9 N2 C6 C5 179.6(2)
Fe1 N2 C6 C5 0.7(3)
C9 N2 C6 C7 0.5(2)
Fe1 N2 C6 C7 -178.36(14)
C4 C5 C6 N2 -0.4(3)
C21 C5 C6 N2 179.7(2)
C4 C5 C6 C7 178.5(2)
C21 C5 C6 C7 -1.4(3)
N2 C6 C7 C8 -0.6(3)
C5 C6 C7 C8 -179.7(2)
C6 C7 C8 C9 0.4(2)
C6 N2 C9 C10 -177.7(2)
Fe1 N2 C9 C10 1.2(3)
C6 N2 C9 C8 -0.3(2)
Fe1 N2 C9 C8 178.60(14)
C7 C8 C9 N2 -0.1(3)
C7 C8 C9 C10 177.4(2)
N2 C9 C10 C11 1.4(4)
C8 C9 C10 C11 -175.6(2)
N2 C9 C10 C28 180.0(2)
C8 C9 C10 C28 2.9(3)
C14 N3 C11 C10 -177.4(2)
Fe1 N3 C11 C10 4.3(3)
C14 N3 C11 C12 1.5(3)
Fe1 N3 C11 C12 -176.73(15)
C9 C10 C11 N3 -4.3(4)
C28 C10 C11 N3 177.1(2)
C9 C10 C11 C12 176.9(2)
C28 C10 C11 C12 -1.7(3)
N3 C11 C12 C13 -0.6(3)
C10 C11 C12 C13 178.3(2)
C11 C12 C13 C14 -0.5(3)
C11 N3 C14 C15 173.8(2)
Fe1 N3 C14 C15 -7.9(3)
C11 N3 C14 C13 -1.8(3)
Fe1 N3 C14 C13 176.45(15)
C12 C13 C14 N3 1.5(3)
C12 C13 C14 C15 -174.3(2)
N3 C14 C15 C16 5.4(4)
C13 C14 C15 C16 -179.6(2)
N3 C14 C15 C35 -172.1(2)
C13 C14 C15 C35 2.9(3)
C19 N4 C16 C15 176.3(2)
Fe1 N4 C16 C15 -4.2(3)
C19 N4 C16 C17 -2.4(2)
Fe1 N4 C16 C17 177.17(14)
C14 C15 C16 N4 1.0(4)
C35 C15 C16 N4 178.5(2)
C14 C15 C16 C17 179.5(2)
C35 C15 C16 C17 -3.0(3)
N4 C16 C17 C18 1.8(3)
C15 C16 C17 C18 -176.9(2)
C16 C17 C18 C19 -0.4(3)
C16 N4 C19 C20 -177.0(2)
Fe1 N4 C19 C20 3.5(3)
C16 N4 C19 C18 2.1(2)
Fe1 N4 C19 C18 -177.39(15)
C17 C18 C19 N4 -1.1(3)
C17 C18 C19 C20 178.1(2)
N1 C1 C20 C19 -4.4(4)
C2 C1 C20 C19 176.0(2)
N1 C1 C20 C42 176.9(2)
C2 C1 C20 C42 -2.7(3)
N4 C19 C20 C1 -3.6(4)
C18 C19 C20 C1 177.4(2)
N4 C19 C20 C42 175.1(2)
C18 C19 C20 C42 -3.9(3)
C4 C5 C21 C22 80.7(3)
C6 C5 C21 C22 -99.4(3)
C4 C5 C21 C26 -97.2(3)
C6 C5 C21 C26 82.7(3)
C26 C21 C22 C23 -0.8(3)
C5 C21 C22 C23 -178.82(19)
C21 C22 C23 C24 0.3(3)
C27 O1 C24 C23 -0.4(3)
C27 O1 C24 C25 178.4(2)
C22 C23 C24 O1 178.7(2)
C22 C23 C24 C25 -0.1(3)
O1 C24 C25 C26 -178.3(2)
C23 C24 C25 C26 0.6(3)
C24 C25 C26 C21 -1.2(4)
C22 C21 C26 C25 1.3(3)
C5 C21 C26 C25 179.2(2)
C11 C10 C28 C29 -106.9(3)
C9 C10 C28 C29 74.5(3)
C11 C10 C28 C33 73.9(3)
C9 C10 C28 C33 -104.7(3)
C33 C28 C29 C30 0.4(4)
C10 C28 C29 C30 -178.9(2)
C28 C29 C30 C31 -0.3(4)
C34 O2 C31 C32 174.7(2)
C34 O2 C31 C30 -5.5(4)
C29 C30 C31 O2 179.9(2)
C29 C30 C31 C32 -0.3(4)
O2 C31 C32 C33 -179.3(2)
C30 C31 C32 C33 0.9(4)
C31 C32 C33 C28 -0.8(4)
C29 C28 C33 C32 0.2(4)
C10 C28 C33 C32 179.4(2)
C16 C15 C35 C40 85.5(3)
C14 C15 C35 C40 -96.9(3)
C16 C15 C35 C36 -93.5(3)
C14 C15 C35 C36 84.1(3)
C40 C35 C36 C37 1.4(4)
C15 C35 C36 C37 -179.5(2)
C35 C36 C37 C38 -0.3(4)
C36 C37 C38 O3 179.4(2)
C36 C37 C38 C39 -1.1(4)
C41 O3 C38 C37 1.2(4)
C41 O3 C38 C39 -178.3(3)
C37 C38 C39 C40 1.2(5)
O3 C38 C39 C40 -179.2(3)
C36 C35 C40 C39 -1.3(4)
C15 C35 C40 C39 179.7(3)
C38 C39 C40 C35 0.0(5)
C1 C20 C42 C47 105.6(2)
C19 C20 C42 C47 -73.2(3)
C1 C20 C42 C43 -70.0(3)
C19 C20 C42 C43 111.2(3)
C47 C42 C43 C44 1.4(4)
C20 C42 C43 C44 177.2(2)
C42 C43 C44 C45 -0.1(4)
C48 O4 C45 C46 -6.3(3)
C48 O4 C45 C44 173.7(2)
C43 C44 C45 O4 178.6(2)
C43 C44 C45 C46 -1.4(4)
O4 C45 C46 C47 -178.4(2)
C44 C45 C46 C47 1.6(3)
C43 C42 C47 C46 -1.2(3)
C20 C42 C47 C46 -176.9(2)
C45 C46 C47 C42 -0.3(3)
C51 N6 C49 N7 -0.5(2)
Fe1 N6 C49 N7 -176.86(14)
C50 N7 C49 N6 0.8(3)
C52 N7 C49 N6 -179.7(2)
C49 N7 C50 C51 -0.7(3)
C52 N7 C50 C51 179.8(2)
N7 C50 C51 N6 0.4(3)
C49 N6 C51 C50 0.1(3)
Fe1 N6 C51 C50 176.55(17)
O5 N5 C53 C58 -90.1(3)
Fe1 N5 C53 C58 90.5(2)
O5 N5 C53 C54 88.4(2)
Fe1 N5 C53 C54 -91.0(2)
C58 C53 C54 C55 -0.1(4)
N5 C53 C54 C55 -178.5(2)
C53 C54 C55 C56 0.1(4)
C54 C55 C56 C57 -0.2(4)
C55 C56 C57 C58 0.3(4)
C54 C53 C58 C57 0.2(4)
N5 C53 C58 C57 178.7(2)
C56 C57 C58 C53 -0.3(4)
