#------------------------------------------------------------------------------
#$Date: 2016-09-10 02:23:06 +0300 (Sat, 10 Sep 2016) $
#$Revision: 186373 $
#$URL: file:///home/coder/svn-repositories/cod/cif/7/04/02/7040265.cif $
#------------------------------------------------------------------------------
#
# This file is available in the Crystallography Open Database (COD),
# http://www.crystallography.net/
#
# All data on this site have been placed in the public domain by the
# contributors.
#
data_7040265
loop_
_publ_author_name
'Adiraju, Venkata A. K.'
'Ferrence, Gregory M.'
'Lash, Timothy D.'
_publ_section_title
;
 Rhodium(i), rhodium(iii) and iridium(iii) carbaporphyrins.
;
_journal_issue                   35
_journal_name_full
'Dalton transactions (Cambridge, England : 2003)'
_journal_page_first              13691
_journal_page_last               13694
_journal_paper_doi               10.1039/c6dt03093a
_journal_volume                  45
_journal_year                    2016
_chemical_formula_moiety         'C37 H36 N3 O2 Rh'
_chemical_formula_sum            'C37 H36 N3 O2 Rh'
_chemical_formula_weight         657.6
_chemical_name_systematic
'dicarbonyl-(8,12,13,17-tetraethyl-21,24-dihydro-7,18-dimethyl-21-carbabenzo(b)porphyrinato)-rhodium(i) chloroform solvate'
_space_group_IT_number           2
_symmetry_cell_setting           triclinic
_symmetry_Int_Tables_number      2
_symmetry_space_group_name_Hall  '-P 1'
_symmetry_space_group_name_H-M   'P -1'
_atom_sites_solution_hydrogens   mixed
_atom_sites_solution_primary     iterative
_atom_sites_solution_secondary   difmap
_audit_conform_dict_location     ftp://ftp.iucr.org/pub/cif_core.dic
_audit_conform_dict_name         cif_core.dic
_audit_conform_dict_version      2.4.3
_audit_creation_date             2016-08-05T11:36:54-00:00
_audit_creation_method           'WinGX routine CIF_UPDATE'
_audit_update_record
;
2016-08-06 deposited with the CCDC.
2016-08-10 downloaded from the CCDC.
;
_cell_angle_alpha                104.215(3)
_cell_angle_beta                 96.743(3)
_cell_angle_gamma                106.479(3)
_cell_formula_units_Z            2
_cell_length_a                   11.7176(8)
_cell_length_b                   12.3793(8)
_cell_length_c                   13.4720(9)
_cell_measurement_reflns_used    9646
_cell_measurement_temperature    100(2)
_cell_measurement_theta_max      32.02
_cell_measurement_theta_min      2.67
_cell_volume                     1779.4(2)
_computing_cell_refinement       'APEX2 & SAINT (Bruker, 2013)'
_computing_data_collection       'APEX2 (Bruker, 2014)'
_computing_data_reduction        SAINT
_computing_molecular_graphics    'ORTEP-3 for Windows (Farrugia, 2012)'
_computing_publication_material  'WinGX publication routines (Farrugia, 2012)'
_computing_structure_refinement  'SHELXL-2014/7 (Sheldrick, 2015)'
_computing_structure_solution    'SUPERFLIP (Palatinus & Chapuis,2007)'
_diffrn_ambient_temperature      100(2)
_diffrn_measured_fraction_theta_full 1
_diffrn_measured_fraction_theta_max 0.944
_diffrn_measurement_details
;
A total of 3672 frames were collected.  
The total exposure time was 5.10 hours.
;
_diffrn_measurement_device_type  'Bruker APEX-II CCD diffractometer'
_diffrn_measurement_method       '\f and \w scans'
_diffrn_radiation_monochromator  graphite
_diffrn_radiation_probe          x-ray
_diffrn_radiation_source         'sealed tube'
_diffrn_radiation_type           MoK\a
_diffrn_radiation_wavelength     0.71073
_diffrn_reflns_av_R_equivalents  0.0248
_diffrn_reflns_av_unetI/netI     0.0178
_diffrn_reflns_Laue_measured_fraction_full 1
_diffrn_reflns_Laue_measured_fraction_max 0.944
_diffrn_reflns_limit_h_max       17
_diffrn_reflns_limit_h_min       -17
_diffrn_reflns_limit_k_max       18
_diffrn_reflns_limit_k_min       -18
_diffrn_reflns_limit_l_max       20
_diffrn_reflns_limit_l_min       -19
_diffrn_reflns_number            71454
_diffrn_reflns_point_group_measured_fraction_full 1
_diffrn_reflns_point_group_measured_fraction_max 0.944
_diffrn_reflns_theta_full        25.242
_diffrn_reflns_theta_max         32.284
_diffrn_reflns_theta_min         1.592
_diffrn_standards_number         0
_exptl_absorpt_coefficient_mu    0.513
_exptl_absorpt_correction_T_max  0.7464
_exptl_absorpt_correction_T_min  0.6677
_exptl_absorpt_correction_type   multi-scan
_exptl_absorpt_process_details   'Apex2 v2014.7-1 (Bruker, 2014)'
_exptl_crystal_colour            green
_exptl_crystal_density_diffrn    1.227
_exptl_crystal_density_method    'not measured'
_exptl_crystal_description       block
_exptl_crystal_F_000             680
_exptl_crystal_size_max          0.57
_exptl_crystal_size_mid          0.1
_exptl_crystal_size_min          0.085
_refine_diff_density_max         0.512
_refine_diff_density_min         -0.457
_refine_diff_density_rms         0.058
_refine_ls_extinction_method     none
_refine_ls_goodness_of_fit_ref   1.06
_refine_ls_hydrogen_treatment    mixed
_refine_ls_matrix_type           full
_refine_ls_number_constraints    0
_refine_ls_number_parameters     398
_refine_ls_number_reflns         11961
_refine_ls_number_restraints     1
_refine_ls_restrained_S_all      1.06
_refine_ls_R_factor_all          0.0243
_refine_ls_R_factor_gt           0.0211
_refine_ls_shift/su_max          0.001
_refine_ls_shift/su_mean         0
_refine_ls_structure_factor_coef Fsqd
_refine_ls_weighting_details
'w=1/[\s^2^(Fo^2^)+(0.0245P)^2^+0.7528P] where P=(Fo^2^+2Fc^2^)/3'
_refine_ls_weighting_scheme      calc
_refine_ls_wR_factor_ref         0.0552
_reflns_number_gt                11047
_reflns_number_total             11961
_reflns_threshold_expression     'I > 2\s(I)'
_cod_data_source_file            c6dt03093a2.cif
_cod_data_source_block           compound9
_cod_depositor_comments
'Adding full bibliography for 7040265--7040267.cif.'
_cod_database_code               7040265
_shelx_space_group_comment
;
The symmetry employed for this shelxl refinement is uniquely defined
by the following loop, which should always be used as a source of
symmetry information in preference to the above space-group names.
        They are only intended as comments.
;
_shelx_estimated_absorpt_t_min   0.677
_shelx_estimated_absorpt_t_max   0.94
_shelx_res_file
;
 
    shelx.res created by SHELXL-2014/7
 
TITL GMF16021_0m in P-1
CELL  0.71073  11.7176  12.3793  13.4720  104.215   96.743  106.479
ZERR     2.00   0.0008   0.0008   0.0009    0.003    0.003    0.003
LATT   1
SFAC  C    H    N    O    RH
UNIT  74 72 6 4 2
MERG   2
OMIT    -3  -3   5
ABIN
HTAB N24 N23
DFIX     1.950   0.002 H24 H21
FMAP   2
PLAN   20
SIZE     0.085   0.100   0.570
ACTA
BOND   $H
CONF
LIST   4
L.S.  16
TEMP  -173.00
WGHT    0.024500    0.752800
FVAR       0.12467
RH1   5    0.354632    0.379354    0.233058    11.00000    0.01213    0.01320 =
         0.00982    0.00181    0.00083    0.00478
C21   1    0.460179    0.341531    0.025088    11.00000    0.01646    0.01431 =
         0.01052    0.00095    0.00283    0.00479
N22   3    0.539229    0.399002    0.261468    11.00000    0.01313    0.01450 =
         0.00999    0.00065    0.00073    0.00551
N23   3    0.409569    0.563346    0.287291    11.00000    0.01601    0.01429 =
         0.00965    0.00125    0.00105    0.00668
N24   3    0.310322    0.501484    0.052020    11.00000    0.01881    0.01890 =
         0.00977    0.00369    0.00100    0.00910
C25   1    0.311854    0.215652    0.189994    11.00000    0.01569    0.01996 =
         0.02312    0.00551    0.00355    0.00616
O26   4    0.284194    0.115759    0.165222    11.00000    0.03051    0.01681 =
         0.05222    0.00558    0.00941    0.00594
C27   1    0.191875    0.366385    0.222865    11.00000    0.01837    0.01855 =
         0.01430    0.00423    0.00129    0.00676
O28   4    0.091944    0.356207    0.220416    11.00000    0.01683    0.03515 =
         0.03073    0.01146    0.00329    0.01024
C1    1    0.396814    0.317255   -0.077339    11.00000    0.01777    0.01447 =
         0.01046    0.00254    0.00342    0.00360
C2    1    0.417829    0.211349   -0.139912    11.00000    0.01727    0.01471 =
         0.01087    0.00168    0.00396    0.00384
C2A   1    0.382938    0.152210   -0.246226    11.00000    0.02332    0.01966 =
         0.01101    0.00259    0.00289    0.00588
AFIX  43
H2A   2    0.337980    0.179438   -0.292265    11.00000   -1.20000
AFIX   0
C2B   1    0.415528    0.051708   -0.283871    11.00000    0.02900    0.02035 =
         0.01089   -0.00059    0.00474    0.00716
AFIX  43
H2B   2    0.392208    0.010197   -0.356308    11.00000   -1.20000
AFIX   0
C3    1    0.486296    0.171478   -0.071927    11.00000    0.01600    0.01477 =
         0.01065    0.00125    0.00343    0.00378
C3A   1    0.517598    0.071016   -0.109749    11.00000    0.02058    0.01716 =
         0.01422    0.00228    0.00495    0.00655
AFIX  43
H3A   2    0.562376    0.043314   -0.064013    11.00000   -1.20000
AFIX   0
C3B   1    0.481579    0.011634   -0.216819    11.00000    0.02786    0.01759 =
         0.01436   -0.00011    0.00632    0.00866
AFIX  43
H3B   2    0.502530   -0.056966   -0.244060    11.00000   -1.20000
AFIX   0
C4    1    0.512406    0.253923    0.033894    11.00000    0.01434    0.01452 =
         0.01083    0.00076    0.00292    0.00372
C5    1    0.578339    0.246670    0.123816    11.00000    0.01431    0.01470 =
         0.01301    0.00150    0.00288    0.00599
AFIX  43
H5    2    0.612856    0.184992    0.114747    11.00000   -1.20000
AFIX   0
C6    1    0.599405    0.320438    0.226349    11.00000    0.01300    0.01444 =
         0.01198    0.00227    0.00185    0.00514
C7    1    0.697948    0.334399    0.308899    11.00000    0.01340    0.01591 =
         0.01287    0.00347    0.00170    0.00548
C7A   1    0.786541    0.267909    0.298456    11.00000    0.01625    0.02132 =
         0.01830    0.00322    0.00129    0.00979
AFIX 137
H7A1  2    0.836674    0.290910    0.248994    11.00000   -1.50000
H7A2  2    0.742246    0.183162    0.272736    11.00000   -1.50000
H7A3  2    0.838750    0.286091    0.366796    11.00000   -1.50000
AFIX   0
C8    1    0.699375    0.425435    0.392345    11.00000    0.01307    0.01543 =
         0.01166    0.00308    0.00066    0.00468
C8A   1    0.788491    0.481417    0.494440    11.00000    0.01699    0.02027 =
         0.01249    0.00239   -0.00118    0.00694
AFIX  23
H8A1  2    0.825628    0.423359    0.510026    11.00000   -1.20000
H8A2  2    0.744595    0.502905    0.550707    11.00000   -1.20000
AFIX   0
C8B   1    0.889015    0.591327    0.494451    11.00000    0.02058    0.02765 =
         0.02342    0.00378   -0.00420   -0.00007
AFIX  33
H8B1  2    0.944490    0.624250    0.562752    11.00000   -1.50000
H8B2  2    0.934082    0.570366    0.439956    11.00000   -1.50000
H8B3  2    0.853019    0.649941    0.480652    11.00000   -1.50000
AFIX   0
C9    1    0.600502    0.465176    0.361245    11.00000    0.01375    0.01408 =
         0.00966    0.00233    0.00112    0.00444
C10   1    0.571010    0.559831    0.420007    11.00000    0.01594    0.01479 =
         0.00950    0.00174    0.00140    0.00491
AFIX  43
H10   2    0.612199    0.593857    0.490953    11.00000   -1.20000
AFIX   0
C11   1    0.486994    0.608932    0.384384    11.00000    0.01628    0.01458 =
         0.00947    0.00216    0.00233    0.00550
C12   1    0.470780    0.716689    0.441475    11.00000    0.01833    0.01523 =
         0.01010    0.00155    0.00283    0.00655
C12A  1    0.541786    0.792121    0.548253    11.00000    0.02538    0.01749 =
         0.01049   -0.00067    0.00019    0.00853
AFIX  23
H12A  2    0.542711    0.741263    0.594524    11.00000   -1.20000
H12B  2    0.500012    0.848234    0.577361    11.00000   -1.20000
AFIX   0
C12B  1    0.672608    0.861358    0.548871    11.00000    0.02770    0.01651 =
         0.02183    0.00115   -0.00247    0.00378
AFIX  33
H12C  2    0.713810    0.908584    0.620546    11.00000   -1.50000
H12D  2    0.715347    0.806425    0.521822    11.00000   -1.50000
H12E  2    0.672609    0.913492    0.504643    11.00000   -1.50000
AFIX   0
C13   1    0.384157    0.736832    0.377621    11.00000    0.01914    0.01460 =
         0.01171    0.00245    0.00372    0.00730
C13A  1    0.337425    0.839674    0.398841    11.00000    0.02341    0.01561 =
         0.01595    0.00293    0.00428    0.00960
AFIX  23
H13A  2    0.329084    0.864949    0.334873    11.00000   -1.20000
H13B  2    0.397482    0.906268    0.454471    11.00000   -1.20000
AFIX   0
C13B  1    0.215005    0.811166    0.432490    11.00000    0.03171    0.02387 =
         0.03848    0.00932    0.01693    0.01604
AFIX  33
H13C  2    0.188789    0.880958    0.445285    11.00000   -1.50000
H13D  2    0.154620    0.746456    0.377072    11.00000   -1.50000
H13E  2    0.223040    0.787788    0.496708    11.00000   -1.50000
AFIX   0
C14   1    0.347076    0.641544    0.281007    11.00000    0.01645    0.01544 =
         0.01159    0.00255    0.00301    0.00701
C15   1    0.267382    0.640126    0.194059    11.00000    0.01707    0.01760 =
         0.01359    0.00416    0.00285    0.00858
AFIX  43
H15   2    0.218750    0.689536    0.208652    11.00000   -1.20000
AFIX   0
C16   1    0.249301    0.576798    0.089548    11.00000    0.01567    0.01607 =
         0.01221    0.00443    0.00174    0.00558
C17   1    0.168757    0.578164    0.001006    11.00000    0.01510    0.01560 =
         0.01393    0.00577    0.00118    0.00426
C17A  1    0.085464    0.650621    0.007194    11.00000    0.01746    0.02217 =
         0.01776    0.00778    0.00222    0.00864
AFIX  23
H17A  2    0.054603    0.654462    0.072869    11.00000   -1.20000
H17B  2    0.014908    0.611434   -0.051851    11.00000   -1.20000
AFIX   0
C17B  1    0.147531    0.775736    0.003892    11.00000    0.03189    0.02421 =
         0.03961    0.01565    0.01296    0.01436
AFIX  33
H17C  2    0.089313    0.819199    0.008164    11.00000   -1.50000
H17D  2    0.216408    0.815669    0.063074    11.00000   -1.50000
H17E  2    0.176701    0.772629   -0.061682    11.00000   -1.50000
AFIX   0
C18   1    0.184513    0.502733   -0.086649    11.00000    0.01682    0.01546 =
         0.01240    0.00544    0.00042    0.00312
C18A  1    0.117358    0.469507   -0.197057    11.00000    0.02514    0.02245 =
         0.01317    0.00509   -0.00192    0.00716
AFIX 137
H18A  2    0.061282    0.514626   -0.200759    11.00000   -1.50000
H18B  2    0.071356    0.385106   -0.220408    11.00000   -1.50000
H18C  2    0.175479    0.487040   -0.242268    11.00000   -1.50000
AFIX   0
C19   1    0.275351    0.454083   -0.054613    11.00000    0.01852    0.01523 =
         0.01014    0.00442    0.00157    0.00428
C20   1    0.317991    0.371531   -0.114959    11.00000    0.02077    0.01597 =
         0.00985    0.00325    0.00221    0.00472
AFIX  43
H20   2    0.291281    0.349794   -0.188588    11.00000   -1.20000
AFIX   0
H21   2    0.478140    0.408989    0.079023    11.00000    0.01755
H24   2    0.358461    0.490988    0.088935    11.00000    0.03088
HKLF    4
 
REM  GMF16021_0m in P-1
REM R1 =  0.0211 for   11047 Fo > 4sig(Fo)  and  0.0243 for all   11961 data
REM    398 parameters refined using      1 restraints
 
END
 
WGHT      0.0245      0.7528
 
REM Highest difference peak  0.512,  deepest hole -0.457,  1-sigma level  0.058
Q1    1   0.6419  0.4402  0.3841  11.00000  0.05    0.51
Q2    1   0.2333  0.4837 -0.0762  11.00000  0.05    0.48
Q3    1   0.4617  0.1948 -0.1063  11.00000  0.05    0.47
Q4    1   0.4784  0.6641  0.4106  11.00000  0.05    0.46
Q5    1   0.6975  0.3809  0.3510  11.00000  0.05    0.46
Q6    1   0.3904  0.1033 -0.2621  11.00000  0.05    0.45
Q7    1   0.4189  0.7273  0.4119  11.00000  0.05    0.45
Q8    1   0.3544  0.6894  0.3271  11.00000  0.05    0.45
Q9    1   0.4895  0.2965  0.0291  11.00000  0.05    0.44
Q10   1   0.6463  0.3221  0.2675  11.00000  0.05    0.44
Q11   1   0.5235  0.5739  0.4009  11.00000  0.05    0.44
Q12   1   0.7377  0.3004  0.3042  11.00000  0.05    0.44
Q13   1   0.5855  0.5120  0.3865  11.00000  0.05    0.43
Q14   1   0.2586  0.6051  0.1441  11.00000  0.05    0.43
Q15   1   0.3039  0.6381  0.2370  11.00000  0.05    0.43
Q16   1   0.5002  0.1205 -0.0866  11.00000  0.05    0.43
Q17   1   0.5778  0.2837  0.1715  11.00000  0.05    0.42
Q18   1   0.5642  0.3587  0.2404  11.00000  0.05    0.41
Q19   1   0.4343  0.3359 -0.0246  11.00000  0.05    0.41
Q20   1   0.4032  0.1796 -0.1952  11.00000  0.05    0.41
;
_shelx_res_checksum              78550
_shelx_fab_file
;
    1    0    0    101.76      0.00
    2    0    0     71.02      0.00
    3    0    0     40.59      0.00
    4    0    0     20.79      0.00
    5    0    0     11.54      0.00
    6    0    0      8.33      0.00
    7    0    0      7.11      0.00
    8    0    0      5.86      0.00
    9    0    0      4.15      0.00
   10    0    0      2.55      0.00
   11    0    0      1.74      0.00
   12    0    0      1.78      0.00
   13    0    0      2.26      0.00
   14    0    0      2.60      0.00
   15    0    0      2.24      0.00
   16    0    0      1.25      0.00
  -16    1    0      1.44      0.00
  -15    1    0      1.90      0.00
  -14    1    0      1.66      0.00
  -13    1    0      0.98      0.00
  -12    1    0      0.33      0.00
  -11    1    0      0.01      0.00
  -10    1    0      0.16      0.00
   -9    1    0      0.48      0.00
   -8    1    0      0.24      0.00
   -7    1    0     -0.53      0.00
   -6    1    0     -0.33      0.00
   -5    1    0      3.93      0.00
   -4    1    0     16.28      0.00
   -3    1    0     38.88      0.00
   -2    1    0     67.69      0.00
   -1    1    0     90.38      0.00
    0    1    0     93.15      0.00
    1    1    0     74.10      0.00
    2    1    0     46.35      0.00
    3    1    0     24.63      0.00
    4    1    0     13.70      0.00
    5    1    0     10.18      0.00
    6    1    0      9.30      0.00
    7    1    0      8.18      0.00
    8    1    0      6.23      0.00
    9    1    0      4.06      0.00
   10    1    0      2.50      0.00
   11    1    0      1.94      0.00
   12    1    0      2.13      0.00
   13    1    0      2.51      0.00
   14    1    0      2.46      0.00
   15    1    0      1.65      0.00
  -16    2    0      0.80      0.00
  -15    2    0      0.60      0.00
  -14    2    0     -0.06      0.00
  -13    2    0     -0.90      0.00
  -12    2    0     -1.78      0.00
  -11    2    0     -2.74      0.00
  -10    2    0     -3.82      0.00
   -9    2    0     -5.47      0.00
   -8    2    0     -8.20      0.00
   -7    2    0    -11.37      0.00
   -6    2    0    -12.78      0.00
   -5    2    0     -9.29      0.00
   -4    2    0      1.64      0.00
   -3    2    0     19.29      0.00
   -2    2    0     37.91      0.00
   -1    2    0     48.32      0.00
    0    2    0     43.98      0.00
    1    2    0     27.99      0.00
    2    2    0     11.28      0.00
    3    2    0      2.13      0.00
    4    2    0      0.64      0.00
    5    2    0      2.50      0.00
    6    2    0      3.94      0.00
    7    2    0      3.59      0.00
    8    2    0      2.25      0.00
    9    2    0      1.13      0.00
   10    2    0      0.75      0.00
   11    2    0      1.02      0.00
   12    2    0      1.55      0.00
   13    2    0      1.84      0.00
   14    2    0      1.56      0.00
   15    2    0      0.80      0.00
  -17    3    0      0.07      0.00
  -16    3    0     -0.23      0.00
  -15    3    0     -0.87      0.00
  -14    3    0     -1.63      0.00
  -13    3    0     -2.43      0.00
  -12    3    0     -3.52      0.00
  -11    3    0     -5.15      0.00
  -10    3    0     -7.36      0.00
   -9    3    0    -10.52      0.00
   -8    3    0    -14.88      0.00
   -7    3    0    -19.50      0.00
   -6    3    0    -22.23      0.00
   -5    3    0    -20.76      0.00
   -4    3    0    -14.20      0.00
   -3    3    0     -4.71      0.00
   -2    3    0      3.13      0.00
   -1    3    0      4.95      0.00
    0    3    0     -0.46      0.00
    1    3    0     -9.27      0.00
    2    3    0    -15.10      0.00
    3    3    0    -14.82      0.00
    4    3    0    -10.42      0.00
    5    3    0     -5.74      0.00
    6    3    0     -3.20      0.00
    7    3    0     -2.73      0.00
    8    3    0     -2.72      0.00
    9    3    0     -2.18      0.00
   10    3    0     -1.21      0.00
   11    3    0     -0.20      0.00
   12    3    0      0.51      0.00
   13    3    0      0.72      0.00
   14    3    0      0.51      0.00
   15    3    0      0.18      0.00
  -17    4    0     -0.25      0.00
  -16    4    0     -0.78      0.00
  -15    4    0     -1.47      0.00
  -14    4    0     -2.04      0.00
  -13    4    0     -2.67      0.00
  -12    4    0     -3.82      0.00
  -11    4    0     -5.67      0.00
  -10    4    0     -8.16      0.00
   -9    4    0    -11.54      0.00
   -8    4    0    -15.95      0.00
   -7    4    0    -20.51      0.00
   -6    4    0    -23.54      0.00
   -5    4    0    -23.58      0.00
   -4    4    0    -20.75      0.00
   -3    4    0    -17.33      0.00
   -2    4    0    -16.06      0.00
   -1    4    0    -17.89      0.00
    0    4    0    -21.71      0.00
    1    4    0    -24.85      0.00
    2    4    0    -24.53      0.00
    3    4    0    -20.39      0.00
    4    4    0    -14.70      0.00
    5    4    0    -10.10      0.00
    6    4    0     -7.69      0.00
    7    4    0     -6.63      0.00
    8    4    0     -5.49      0.00
    9    4    0     -3.87      0.00
   10    4    0     -2.27      0.00
   11    4    0     -1.07      0.00
   12    4    0     -0.46      0.00
   13    4    0     -0.34      0.00
   14    4    0     -0.31      0.00
  -17    5    0     -0.08      0.00
  -16    5    0     -0.43      0.00
  -15    5    0     -0.79      0.00
  -14    5    0     -1.02      0.00
  -13    5    0     -1.39      0.00
  -12    5    0     -2.18      0.00
  -11    5    0     -3.46      0.00
  -10    5    0     -5.18      0.00
   -9    5    0     -7.61      0.00
   -8    5    0    -10.82      0.00
   -7    5    0    -13.98      0.00
   -6    5    0    -15.82      0.00
   -5    5    0    -15.70      0.00
   -4    5    0    -14.42      0.00
   -3    5    0    -14.01      0.00
   -2    5    0    -15.70      0.00
   -1    5    0    -18.57      0.00
    0    5    0    -20.94      0.00
    1    5    0    -21.55      0.00
    2    5    0    -19.78      0.00
    3    5    0    -16.18      0.00
    4    5    0    -12.23      0.00
    5    5    0     -9.26      0.00
    6    5    0     -7.61      0.00
    7    5    0     -6.54      0.00
    8    5    0     -5.19      0.00
    9    5    0     -3.57      0.00
   10    5    0     -2.15      0.00
   11    5    0     -1.27      0.00
   12    5    0     -0.98      0.00
   13    5    0     -0.95      0.00
   14    5    0     -0.70      0.00
  -17    6    0      0.38      0.00
  -16    6    0      0.47      0.00
  -15    6    0      0.60      0.00
  -14    6    0      0.76      0.00
  -13    6    0      0.87      0.00
  -12    6    0      0.83      0.00
  -11    6    0      0.63      0.00
  -10    6    0      0.17      0.00
   -9    6    0     -0.80      0.00
   -8    6    0     -2.15      0.00
   -7    6    0     -3.08      0.00
   -6    6    0     -2.87      0.00
   -5    6    0     -1.72      0.00
   -4    6    0     -0.80      0.00
   -3    6    0     -1.57      0.00
   -2    6    0     -4.12      0.00
   -1    6    0     -6.93      0.00
    0    6    0     -8.74      0.00
    1    6    0     -9.32      0.00
    2    6    0     -8.80      0.00
    3    6    0     -7.45      0.00
    4    6    0     -5.88      0.00
    5    6    0     -4.72      0.00
    6    6    0     -4.18      0.00
    7    6    0     -3.77      0.00
    8    6    0     -2.99      0.00
    9    6    0     -1.99      0.00
   10    6    0     -1.21      0.00
   11    6    0     -0.87      0.00
   12    6    0     -0.90      0.00
   13    6    0     -0.92      0.00
  -17    7    0      0.70      0.00
  -16    7    0      1.17      0.00
  -15    7    0      1.72      0.00
  -14    7    0      2.30      0.00
  -13    7    0      2.91      0.00
  -12    7    0      3.58      0.00
  -11    7    0      4.28      0.00
  -10    7    0      4.90      0.00
   -9    7    0      5.31      0.00
   -8    7    0      5.77      0.00
   -7    7    0      6.84      0.00
   -6    7    0      8.63      0.00
   -5    7    0     10.47      0.00
   -4    7    0     11.39      0.00
   -3    7    0     10.61      0.00
   -2    7    0      8.38      0.00
   -1    7    0      5.86      0.00
    0    7    0      3.79      0.00
    1    7    0      2.21      0.00
    2    7    0      1.21      0.00
    3    7    0      0.81      0.00
    4    7    0      0.67      0.00
    5    7    0      0.35      0.00
    6    7    0     -0.22      0.00
    7    7    0     -0.57      0.00
    8    7    0     -0.43      0.00
    9    7    0     -0.14      0.00
   10    7    0     -0.02      0.00
   11    7    0     -0.12      0.00
   12    7    0     -0.35      0.00
  -17    8    0      0.62      0.00
  -16    8    0      1.27      0.00
  -15    8    0      2.02      0.00
  -14    8    0      2.73      0.00
  -13    8    0      3.48      0.00
  -12    8    0      4.40      0.00
  -11    8    0      5.48      0.00
  -10    8    0      6.59      0.00
   -9    8    0      7.73      0.00
   -8    8    0      9.18      0.00
   -7    8    0     11.23      0.00
   -6    8    0     13.55      0.00
   -5    8    0     15.51      0.00
   -4    8    0     16.55      0.00
   -3    8    0     16.17      0.00
   -2    8    0     14.42      0.00
   -1    8    0     12.09      0.00
    0    8    0      9.82      0.00
    1    8    0      7.87      0.00
    2    8    0      6.38      0.00
    3    8    0      5.30      0.00
    4    8    0      4.35      0.00
    5    8    0      3.28      0.00
    6    8    0      2.23      0.00
    7    8    0      1.60      0.00
    8    8    0      1.41      0.00
    9    8    0      1.21      0.00
   10    8    0      0.85      0.00
   11    8    0      0.46      0.00
  -16    9    0      0.89      0.00
  -15    9    0      1.40      0.00
  -14    9    0      1.74      0.00
  -13    9    0      2.20      0.00
  -12    9    0      2.93      0.00
  -11    9    0      3.79      0.00
  -10    9    0      4.69      0.00
   -9    9    0      5.80      0.00
   -8    9    0      7.41      0.00
   -7    9    0      9.47      0.00
   -6    9    0     11.49      0.00
   -5    9    0     13.06      0.00
   -4    9    0     13.88      0.00
   -3    9    0     13.53      0.00
   -2    9    0     12.05      0.00
   -1    9    0     10.19      0.00
    0    9    0      8.52      0.00
    1    9    0      7.15      0.00
    2    9    0      6.09      0.00
    3    9    0      5.22      0.00
    4    9    0      4.37      0.00
    5    9    0      3.47      0.00
    6    9    0      2.68      0.00
    7    9    0      2.31      0.00
    8    9    0      2.10      0.00
    9    9    0      1.59      0.00
   10    9    0      0.90      0.00
  -16   10    0      0.36      0.00
  -15   10    0      0.24      0.00
  -14   10    0     -0.09      0.00
  -13   10    0     -0.15      0.00
  -12   10    0      0.06      0.00
  -11   10    0      0.32      0.00
  -10   10    0      0.73      0.00
   -9   10    0      1.58      0.00
   -8   10    0      2.92      0.00
   -7   10    0      4.40      0.00
   -6   10    0      5.56      0.00
   -5   10    0      6.27      0.00
   -4   10    0      6.45      0.00
   -3   10    0      5.87      0.00
   -2   10    0      4.77      0.00
   -1   10    0      3.76      0.00
    0   10    0      3.11      0.00
    1   10    0      2.72      0.00
    2   10    0      2.52      0.00
    3   10    0      2.38      0.00
    4   10    0      2.19      0.00
    5   10    0      1.93      0.00
    6   10    0      1.80      0.00
    7   10    0      1.86      0.00
    8   10    0      1.70      0.00
    9   10    0      1.00      0.00
  -16   11    0     -0.07      0.00
  -15   11    0     -0.82      0.00
  -14   11    0     -1.69      0.00
  -13   11    0     -2.26      0.00
  -12   11    0     -2.63      0.00
  -11   11    0     -2.90      0.00
  -10   11    0     -2.78      0.00
   -9   11    0     -2.15      0.00
   -8   11    0     -1.35      0.00
   -7   11    0     -0.76      0.00
   -6   11    0     -0.55      0.00
   -5   11    0     -0.66      0.00
   -4   11    0     -1.03      0.00
   -3   11    0     -1.66      0.00
   -2   11    0     -2.26      0.00
   -1   11    0     -2.47      0.00
    0   11    0     -2.26      0.00
    1   11    0     -1.76      0.00
    2   11    0     -1.14      0.00
    3   11    0     -0.59      0.00
    4   11    0     -0.16      0.00
    5   11    0      0.25      0.00
    6   11    0      0.65      0.00
    7   11    0      0.90      0.00
    8   11    0      0.71      0.00
    9   11    0      0.15      0.00
  -16   12    0     -0.26      0.00
  -15   12    0     -1.21      0.00
  -14   12    0     -2.23      0.00
  -13   12    0     -3.02      0.00
  -12   12    0     -3.71      0.00
  -11   12    0     -4.21      0.00
  -10   12    0     -4.23      0.00
   -9   12    0     -3.93      0.00
   -8   12    0     -3.74      0.00
   -7   12    0     -3.80      0.00
   -6   12    0     -4.10      0.00
   -5   12    0     -4.57      0.00
   -4   12    0     -5.10      0.00
   -3   12    0     -5.58      0.00
   -2   12    0     -5.77      0.00
   -1   12    0     -5.54      0.00
    0   12    0     -4.89      0.00
    1   12    0     -3.92      0.00
    2   12    0     -2.91      0.00
    3   12    0     -2.05      0.00
    4   12    0     -1.23      0.00
    5   12    0     -0.47      0.00
    6   12    0      0.00      0.00
    7   12    0      0.11      0.00
  -15   13    0     -0.83      0.00
  -14   13    0     -1.58      0.00
  -13   13    0     -2.24      0.00
  -12   13    0     -2.92      0.00
  -11   13    0     -3.43      0.00
  -10   13    0     -3.52      0.00
   -9   13    0     -3.46      0.00
   -8   13    0     -3.55      0.00
   -7   13    0     -3.76      0.00
   -6   13    0     -4.06      0.00
   -5   13    0     -4.47      0.00
   -4   13    0     -4.90      0.00
   -3   13    0     -5.19      0.00
   -2   13    0     -5.25      0.00
   -1   13    0     -5.00      0.00
    0   13    0     -4.40      0.00
    1   13    0     -3.50      0.00
    2   13    0     -2.57      0.00
    3   13    0     -1.73      0.00
    4   13    0     -0.90      0.00
    5   13    0     -0.26      0.00
    6   13    0     -0.08      0.00
  -14   14    0     -0.50      0.00
  -13   14    0     -0.85      0.00
  -12   14    0     -1.29      0.00
  -11   14    0     -1.59      0.00
  -10   14    0     -1.53      0.00
   -9   14    0     -1.41      0.00
   -8   14    0     -1.43      0.00
   -7   14    0     -1.44      0.00
   -6   14    0     -1.47      0.00
   -5   14    0     -1.68      0.00
   -4   14    0     -1.96      0.00
   -3   14    0     -2.18      0.00
   -2   14    0     -2.29      0.00
   -1   14    0     -2.30      0.00
    0   14    0     -2.10      0.00
    1   14    0     -1.64      0.00
    2   14    0     -1.09      0.00
    3   14    0     -0.60      0.00
    4   14    0     -0.15      0.00
    5   14    0      0.12      0.00
  -12   15    0      0.00      0.00
  -11   15    0      0.03      0.00
  -10   15    0      0.28      0.00
   -9   15    0      0.53      0.00
   -8   15    0      0.75      0.00
   -7   15    0      1.07      0.00
   -6   15    0      1.26      0.00
   -5   15    0      1.10      0.00
   -4   15    0      0.88      0.00
   -3   15    0      0.80      0.00
   -2   15    0      0.70      0.00
   -1   15    0      0.39      0.00
    0   15    0      0.06      0.00
    1   15    0     -0.01      0.00
    2   15    0      0.08      0.00
    3   15    0      0.14      0.00
  -11   16    0      0.60      0.00
  -10   16    0      0.84      0.00
   -9   16    0      1.13      0.00
   -8   16    0      1.55      0.00
   -7   16    0      2.02      0.00
   -6   16    0      2.11      0.00
   -5   16    0      1.84      0.00
   -4   16    0      1.79      0.00
   -3   16    0      2.03      0.00
   -2   16    0      2.01      0.00
   -1   16    0      1.45      0.00
    0   16    0      0.74      0.00
    1   16    0      0.41      0.00
    2   16    0      0.34      0.00
   -8   17    0      1.05      0.00
   -7   17    0      1.29      0.00
   -6   17    0      1.13      0.00
   -5   17    0      0.92      0.00
   -4   17    0      1.18      0.00
   -3   17    0      1.62      0.00
   -2   17    0      1.55      0.00
    0  -17    1     -2.10      0.00
    1  -17    1     -2.79      0.00
    2  -17    1     -2.91      0.00
    3  -17    1     -2.90      0.00
    4  -17    1     -3.17      0.00
    5  -17    1     -3.50      0.00
    6  -17    1     -3.54      0.00
    7  -17    1     -3.32      0.00
    8  -17    1     -2.94      0.00
    9  -17    1     -2.41      0.00
   -2  -16    1     -0.59      0.00
   -1  -16    1     -0.97      0.00
    0  -16    1     -1.79      0.00
    1  -16    1     -2.39      0.00
    2  -16    1     -2.56      0.00
    3  -16    1     -2.72      0.00
    4  -16    1     -3.12      0.00
    5  -16    1     -3.41      0.00
    6  -16    1     -3.33      0.00
    7  -16    1     -3.12      0.00
    8  -16    1     -2.96      0.00
    9  -16    1     -2.73      0.00
   10  -16    1     -2.43      0.00
   11  -16    1     -2.03      0.00
   -4  -15    1     -0.27      0.00
   -3  -15    1      0.15      0.00
   -2  -15    1      0.84      0.00
   -1  -15    1      1.11      0.00
    0  -15    1      0.84      0.00
    1  -15    1      0.61      0.00
    2  -15    1      0.68      0.00
    3  -15    1      0.70      0.00
    4  -15    1      0.56      0.00
    5  -15    1      0.50      0.00
    6  -15    1      0.50      0.00
    7  -15    1      0.30      0.00
    8  -15    1     -0.07      0.00
    9  -15    1     -0.39      0.00
   10  -15    1     -0.74      0.00
   11  -15    1     -1.04      0.00
   12  -15    1     -0.94      0.00
   -5  -14    1      0.59      0.00
   -4  -14    1      1.15      0.00
   -3  -14    1      2.06      0.00
   -2  -14    1      3.15      0.00
   -1  -14    1      3.85      0.00
    0  -14    1      4.06      0.00
    1  -14    1      4.30      0.00
    2  -14    1      4.76      0.00
    3  -14    1      5.22      0.00
    4  -14    1      5.51      0.00
    5  -14    1      5.62      0.00
    6  -14    1      5.42      0.00
    7  -14    1      4.92      0.00
    8  -14    1      4.35      0.00
    9  -14    1      3.75      0.00
   10  -14    1      2.76      0.00
   11  -14    1      1.58      0.00
   12  -14    1      0.90      0.00
   13  -14    1      0.77      0.00
   14  -14    1      0.63      0.00
   -6  -13    1      1.17      0.00
   -5  -13    1      1.94      0.00
   -4  -13    1      2.62      0.00
   -3  -13    1      3.38      0.00
   -2  -13    1      4.29      0.00
   -1  -13    1      4.97      0.00
    0  -13    1      5.34      0.00
    1  -13    1      5.71      0.00
    2  -13    1      6.28      0.00
    3  -13    1      6.98      0.00
    4  -13    1      7.57      0.00
    5  -13    1      7.87      0.00
    6  -13    1      7.85      0.00
    7  -13    1      7.69      0.00
    8  -13    1      7.49      0.00
    9  -13    1      6.94      0.00
   10  -13    1      5.66      0.00
   11  -13    1      4.06      0.00
   12  -13    1      2.93      0.00
   13  -13    1      2.28      0.00
   14  -13    1      1.58      0.00
   15  -13    1      0.77      0.00
   -8  -12    1      0.22      0.00
   -7  -12    1      0.89      0.00
   -6  -12    1      1.68      0.00
   -5  -12    1      2.23      0.00
   -4  -12    1      2.48      0.00
   -3  -12    1      2.72      0.00
   -2  -12    1      3.11      0.00
   -1  -12    1      3.35      0.00
    0  -12    1      3.28      0.00
    1  -12    1      3.15      0.00
    2  -12    1      3.30      0.00
    3  -12    1      3.90      0.00
    4  -12    1      4.75      0.00
    5  -12    1      5.52      0.00
    6  -12    1      6.14      0.00
    7  -12    1      6.69      0.00
    8  -12    1      7.08      0.00
    9  -12    1      6.90      0.00
   10  -12    1      5.93      0.00
   11  -12    1      4.65      0.00
   12  -12    1      3.67      0.00
   13  -12    1      2.95      0.00
   14  -12    1      2.15      0.00
   15  -12    1      1.30      0.00
   -9  -11    1     -0.50      0.00
   -8  -11    1     -0.06      0.00
   -7  -11    1      0.53      0.00
   -6  -11    1      0.85      0.00
   -5  -11    1      0.84      0.00
   -4  -11    1      0.62      0.00
   -3  -11    1      0.36      0.00
   -2  -11    1      0.01      0.00
   -1  -11    1     -0.65      0.00
    0  -11    1     -1.69      0.00
    1  -11    1     -2.78      0.00
    2  -11    1     -3.29      0.00
    3  -11    1     -2.78      0.00
    4  -11    1     -1.55      0.00
    5  -11    1     -0.19      0.00
    6  -11    1      1.04      0.00
    7  -11    1      2.17      0.00
    8  -11    1      3.07      0.00
    9  -11    1      3.49      0.00
   10  -11    1      3.34      0.00
   11  -11    1      2.92      0.00
   12  -11    1      2.57      0.00
   13  -11    1      2.29      0.00
   14  -11    1      1.92      0.00
   15  -11    1      1.46      0.00
   16  -11    1      0.94      0.00
  -10  -10    1     -1.02      0.00
   -9  -10    1     -1.00      0.00
   -8  -10    1     -0.67      0.00
   -7  -10    1     -0.56      0.00
   -6  -10    1     -0.82      0.00
   -5  -10    1     -1.21      0.00
   -4  -10    1     -1.70      0.00
   -3  -10    1     -2.49      0.00
   -2  -10    1     -3.70      0.00
   -1  -10    1     -5.35      0.00
    0  -10    1     -7.35      0.00
    1  -10    1     -9.23      0.00
    2  -10    1    -10.13      0.00
    3  -10    1     -9.52      0.00
    4  -10    1     -7.99      0.00
    5  -10    1     -6.37      0.00
    6  -10    1     -4.94      0.00
    7  -10    1     -3.66      0.00
    8  -10    1     -2.51      0.00
    9  -10    1     -1.52      0.00
   10  -10    1     -0.74      0.00
   11  -10    1     -0.19      0.00
   12  -10    1      0.21      0.00
   13  -10    1      0.51      0.00
   14  -10    1      0.77      0.00
   15  -10    1      0.91      0.00
   16  -10    1      0.82      0.00
  -11   -9    1     -1.05      0.00
  -10   -9    1     -1.29      0.00
   -9   -9    1     -1.31      0.00
   -8   -9    1     -1.31      0.00
   -7   -9    1     -1.61      0.00
   -6   -9    1     -2.06      0.00
   -5   -9    1     -2.45      0.00
   -4   -9    1     -3.05      0.00
   -3   -9    1     -4.20      0.00
   -2   -9    1     -5.90      0.00
   -1   -9    1     -8.02      0.00
    0   -9    1    -10.29      0.00
    1   -9    1    -12.23      0.00
    2   -9    1    -13.00      0.00
    3   -9    1    -12.32      0.00
    4   -9    1    -10.91      0.00
    5   -9    1     -9.59      0.00
    6   -9    1     -8.58      0.00
    7   -9    1     -7.75      0.00
    8   -9    1     -6.84      0.00
    9   -9    1     -5.63      0.00
   10   -9    1     -4.28      0.00
   11   -9    1     -3.16      0.00
   12   -9    1     -2.35      0.00
   13   -9    1     -1.61      0.00
   14   -9    1     -0.83      0.00
   15   -9    1     -0.14      0.00
   16   -9    1      0.22      0.00
  -12   -8    1     -0.97      0.00
  -11   -8    1     -1.11      0.00
  -10   -8    1     -1.22      0.00
   -9   -8    1     -1.35      0.00
   -8   -8    1     -1.54      0.00
   -7   -8    1     -1.80      0.00
   -6   -8    1     -1.94      0.00
   -5   -8    1     -1.98      0.00
   -4   -8    1     -2.32      0.00
   -3   -8    1     -3.25      0.00
   -2   -8    1     -4.71      0.00
   -1   -8    1     -6.41      0.00
    0   -8    1     -8.00      0.00
    1   -8    1     -9.15      0.00
    2   -8    1     -9.42      0.00
    3   -8    1     -8.77      0.00
    4   -8    1     -7.91      0.00
    5   -8    1     -7.51      0.00
    6   -8    1     -7.66      0.00
    7   -8    1     -8.01      0.00
    8   -8    1     -7.92      0.00
    9   -8    1     -7.05      0.00
   10   -8    1     -5.82      0.00
   11   -8    1     -4.76      0.00
   12   -8    1     -3.87      0.00
   13   -8    1     -2.88      0.00
   14   -8    1     -1.80      0.00
   15   -8    1     -0.94      0.00
   16   -8    1     -0.46      0.00
  -13   -7    1     -0.78      0.00
  -12   -7    1     -0.92      0.00
  -11   -7    1     -0.82      0.00
  -10   -7    1     -0.80      0.00
   -9   -7    1     -0.89      0.00
   -8   -7    1     -0.94      0.00
   -7   -7    1     -0.82      0.00
   -6   -7    1     -0.38      0.00
   -5   -7    1      0.23      0.00
   -4   -7    1      0.57      0.00
   -3   -7    1      0.37      0.00
   -2   -7    1     -0.29      0.00
   -1   -7    1     -0.96      0.00
    0   -7    1     -1.25      0.00
    1   -7    1     -1.09      0.00
    2   -7    1     -0.47      0.00
    3   -7    1      0.33      0.00
    4   -7    1      0.43      0.00
    5   -7    1     -0.72      0.00
    6   -7    1     -2.79      0.00
    7   -7    1     -4.86      0.00
    8   -7    1     -5.94      0.00
    9   -7    1     -5.80      0.00
   10   -7    1     -5.09      0.00
   11   -7    1     -4.33      0.00
   12   -7    1     -3.46      0.00
   13   -7    1     -2.43      0.00
   14   -7    1     -1.52      0.00
   15   -7    1     -0.99      0.00
   16   -7    1     -0.72      0.00
  -13   -6    1     -0.56      0.00
  -12   -6    1     -0.40      0.00
  -11   -6    1     -0.04      0.00
  -10   -6    1      0.14      0.00
   -9   -6    1      0.18      0.00
   -8   -6    1      0.34      0.00
   -7   -6    1      0.86      0.00
   -6   -6    1      1.89      0.00
   -5   -6    1      3.18      0.00
   -4   -6    1      4.19      0.00
   -3   -6    1      4.59      0.00
   -2   -6    1      4.54      0.00
   -1   -6    1      4.73      0.00
    0   -6    1      5.78      0.00
    1   -6    1      7.67      0.00
    2   -6    1      9.84      0.00
    3   -6    1     11.13      0.00
    4   -6    1     10.22      0.00
    5   -6    1      6.98      0.00
    6   -6    1      2.74      0.00
    7   -6    1     -0.86      0.00
    8   -6    1     -2.80      0.00
    9   -6    1     -3.12      0.00
   10   -6    1     -2.70      0.00
   11   -6    1     -2.12      0.00
   12   -6    1     -1.42      0.00
   13   -6    1     -0.75      0.00
   14   -6    1     -0.42      0.00
   15   -6    1     -0.44      0.00
   16   -6    1     -0.50      0.00
  -14   -5    1     -0.04      0.00
  -13   -5    1      0.09      0.00
  -12   -5    1      0.63      0.00
  -11   -5    1      1.18      0.00
  -10   -5    1      1.38      0.00
   -9   -5    1      1.39      0.00
   -8   -5    1      1.57      0.00
   -7   -5    1      2.33      0.00
   -6   -5    1      3.78      0.00
   -5   -5    1      5.34      0.00
   -4   -5    1      6.24      0.00
   -3   -5    1      6.11      0.00
   -2   -5    1      5.46      0.00
   -1   -5    1      5.75      0.00
    0   -5    1      8.30      0.00
    1   -5    1     12.76      0.00
    2   -5    1     17.12      0.00
    3   -5    1     18.80      0.00
    4   -5    1     16.43      0.00
    5   -5    1     11.15      0.00
    6   -5    1      5.55      0.00
    7   -5    1      1.57      0.00
    8   -5    1     -0.18      0.00
    9   -5    1     -0.25      0.00
   10   -5    1      0.23      0.00
   11   -5    1      0.60      0.00
   12   -5    1      0.83      0.00
   13   -5    1      0.87      0.00
   14   -5    1      0.56      0.00
   15   -5    1      0.08      0.00
   16   -5    1     -0.19      0.00
  -14   -4    1      0.43      0.00
  -13   -4    1      1.00      0.00
  -12   -4    1      1.73      0.00
  -11   -4    1      2.19      0.00
  -10   -4    1      2.18      0.00
   -9   -4    1      1.96      0.00
   -8   -4    1      2.06      0.00
   -7   -4    1      2.98      0.00
   -6   -4    1      4.48      0.00
   -5   -4    1      5.35      0.00
   -4   -4    1      4.49      0.00
   -3   -4    1      1.90      0.00
   -2   -4    1     -0.87      0.00
   -1   -4    1     -0.74      0.00
    0   -4    1      4.27      0.00
    1   -4    1     12.34      0.00
    2   -4    1     18.95      0.00
    3   -4    1     20.41      0.00
    4   -4    1     16.43      0.00
    5   -4    1     10.02      0.00
    6   -4    1      4.67      0.00
    7   -4    1      1.88      0.00
    8   -4    1      1.41      0.00
    9   -4    1      2.04      0.00
   10   -4    1      2.51      0.00
   11   -4    1      2.43      0.00
   12   -4    1      2.04      0.00
   13   -4    1      1.47      0.00
   14   -4    1      0.74      0.00
   15   -4    1      0.11      0.00
   16   -4    1     -0.08      0.00
  -15   -3    1      0.23      0.00
  -14   -3    1      0.90      0.00
  -13   -3    1      1.65      0.00
  -12   -3    1      2.21      0.00
  -11   -3    1      2.36      0.00
  -10   -3    1      2.07      0.00
   -9   -3    1      1.73      0.00
   -8   -3    1      1.96      0.00
   -7   -3    1      2.95      0.00
   -6   -3    1      3.69      0.00
   -5   -3    1      2.33      0.00
   -4   -3    1     -2.12      0.00
   -3   -3    1     -8.69      0.00
   -2   -3    1    -13.92      0.00
   -1   -3    1    -12.87      0.00
    0   -3    1     -3.84      0.00
    1   -3    1      8.41      0.00
    2   -3    1     16.60      0.00
    3   -3    1     17.13      0.00
    4   -3    1     11.87      0.00
    5   -3    1      5.58      0.00
    6   -3    1      1.87      0.00
    7   -3    1      1.23      0.00
    8   -3    1      2.28      0.00
    9   -3    1      3.35      0.00
   10   -3    1      3.46      0.00
   11   -3    1      2.75      0.00
   12   -3    1      1.80      0.00
   13   -3    1      0.87      0.00
   14   -3    1      0.15      0.00
   15   -3    1     -0.12      0.00
   16   -3    1      0.00      0.00
  -15   -2    1      0.21      0.00
  -14   -2    1      1.02      0.00
  -13   -2    1      1.59      0.00
  -12   -2    1      1.77      0.00
  -11   -2    1      1.65      0.00
  -10   -2    1      1.41      0.00
   -9   -2    1      1.43      0.00
   -8   -2    1      2.02      0.00
   -7   -2    1      2.62      0.00
   -6   -2    1      1.41      0.00
   -5   -2    1     -3.54      0.00
   -4   -2    1    -12.36      0.00
   -3   -2    1    -22.47      0.00
   -2   -2    1    -28.26      0.00
   -1   -2    1    -23.71      0.00
    0   -2    1     -9.20      0.00
    1   -2    1      6.54      0.00
    2   -2    1     14.56      0.00
    3   -2    1     13.15      0.00
    4   -2    1      6.95      0.00
    5   -2    1      1.67      0.00
    6   -2    1      0.00      0.00
    7   -2    1      1.12      0.00
    8   -2    1      2.84      0.00
    9   -2    1      3.56      0.00
   10   -2    1      2.93      0.00
   11   -2    1      1.60      0.00
   12   -2    1      0.34      0.00
   13   -2    1     -0.44      0.00
   14   -2    1     -0.54      0.00
   15   -2    1     -0.14      0.00
   16   -2    1      0.15      0.00
  -16   -1    1     -0.46      0.00
  -15   -1    1     -0.01      0.00
  -14   -1    1      0.56      0.00
  -13   -1    1      0.72      0.00
  -12   -1    1      0.68      0.00
  -11   -1    1      0.75      0.00
  -10   -1    1      1.06      0.00
   -9   -1    1      1.73      0.00
   -8   -1    1      2.46      0.00
   -7   -1    1      1.86      0.00
   -6   -1    1     -2.18      0.00
   -5   -1    1    -10.84      0.00
   -4   -1    1    -22.76      0.00
   -3   -1    1    -33.42      0.00
   -2   -1    1    -35.72      0.00
   -1   -1    1    -24.78      0.00
    0   -1    1     -5.14      0.00
    1   -1    1     11.07      0.00
    2   -1    1     15.88      0.00
    3   -1    1     11.45      0.00
    4   -1    1      4.73      0.00
    5   -1    1      0.75      0.00
    6   -1    1      0.46      0.00
    7   -1    1      1.94      0.00
    8   -1    1      2.99      0.00
    9   -1    1      2.63      0.00
   10   -1    1      1.16      0.00
   11   -1    1     -0.49      0.00
   12   -1    1     -1.51      0.00
   13   -1    1     -1.55      0.00
   14   -1    1     -0.77      0.00
   15   -1    1      0.06      0.00
   16   -1    1      0.21      0.00
  -16    0    1     -0.61      0.00
  -15    0    1     -0.48      0.00
  -14    0    1     -0.43      0.00
  -13    0    1     -0.52      0.00
  -12    0    1     -0.27      0.00
  -11    0    1      0.40      0.00
  -10    0    1      1.34      0.00
   -9    0    1      2.34      0.00
   -8    0    1      2.48      0.00
   -7    0    1     -0.03      0.00
   -6    0    1     -6.81      0.00
   -5    0    1    -17.65      0.00
   -4    0    1    -29.40      0.00
   -3    0    1    -36.06      0.00
   -2    0    1    -31.23      0.00
   -1    0    1    -13.91      0.00
    0    0    1      6.94      0.00
    1    0    1     18.89      0.00
    2    0    1     18.23      0.00
    3    0    1     11.11      0.00
    4    0    1      4.73      0.00
    5    0    1      1.97      0.00
    6    0    1      2.01      0.00
    7    0    1      2.67      0.00
    8    0    1      2.33      0.00
    9    0    1      0.77      0.00
   10    0    1     -1.19      0.00
   11    0    1     -2.53      0.00
   12    0    1     -2.70      0.00
   13    0    1     -1.81      0.00
   14    0    1     -0.53      0.00
   15    0    1      0.21      0.00
   16    0    1      0.13      0.00
  -16    1    1     -0.76      0.00
  -15    1    1     -1.11      0.00
  -14    1    1     -1.38      0.00
  -13    1    1     -1.24      0.00
  -12    1    1     -0.46      0.00
  -11    1    1      0.66      0.00
  -10    1    1      1.75      0.00
   -9    1    1      2.29      0.00
   -8    1    1      1.00      0.00
   -7    1    1     -3.60      0.00
   -6    1    1    -11.92      0.00
   -5    1    1    -22.21      0.00
   -4    1    1    -30.06      0.00
   -3    1    1    -29.93      0.00
   -2    1    1    -18.62      0.00
   -1    1    1      0.39      0.00
    0    1    1     16.78      0.00
    1    1    1     21.87      0.00
    2    1    1     16.83      0.00
    3    1    1      9.21      0.00
    4    1    1      4.25      0.00
    5    1    1      2.59      0.00
    6    1    1      2.56      0.00
    7    1    1      2.25      0.00
    8    1    1      0.76      0.00
    9    1    1     -1.38      0.00
   10    1    1     -3.08      0.00
   11    1    1     -3.50      0.00
   12    1    1     -2.67      0.00
   13    1    1     -1.26      0.00
   14    1    1     -0.12      0.00
   15    1    1      0.26      0.00
  -16    2    1     -0.92      0.00
  -15    2    1     -1.43      0.00
  -14    2    1     -1.56      0.00
  -13    2    1     -1.06      0.00
  -12    2    1     -0.02      0.00
  -11    2    1      1.09      0.00
  -10    2    1      1.72      0.00
   -9    2    1      1.06      0.00
   -8    2    1     -2.05      0.00
   -7    2    1     -8.05      0.00
   -6    2    1    -16.03      0.00
   -5    2    1    -23.34      0.00
   -4    2    1    -25.94      0.00
   -3    2    1    -20.59      0.00
   -2    2    1     -7.81      0.00
   -1    2    1      7.04      0.00
    0    2    1     16.26      0.00
    1    2    1     16.14      0.00
    2    2    1     10.22      0.00
    3    2    1      4.49      0.00
    4    2    1      1.71      0.00
    5    2    1      1.28      0.00
    6    2    1      1.42      0.00
    7    2    1      0.63      0.00
    8    2    1     -1.17      0.00
    9    2    1     -2.96      0.00
   10    2    1     -3.73      0.00
   11    2    1     -3.16      0.00
   12    2    1     -1.75      0.00
   13    2    1     -0.41      0.00
   14    2    1      0.25      0.00
   15    2    1      0.24      0.00
  -17    3    1     -0.40      0.00
  -16    3    1     -0.83      0.00
  -15    3    1     -1.08      0.00
  -14    3    1     -0.91      0.00
  -13    3    1     -0.23      0.00
  -12    3    1      0.75      0.00
  -11    3    1      1.46      0.00
  -10    3    1      1.20      0.00
   -9    3    1     -0.81      0.00
   -8    3    1     -5.06      0.00
   -7    3    1    -11.03      0.00
   -6    3    1    -17.19      0.00
   -5    3    1    -21.16      0.00
   -4    3    1    -20.33      0.00
   -3    3    1    -13.95      0.00
   -2    3    1     -4.41      0.00
   -1    3    1      4.00      0.00
    0    3    1      7.53      0.00
    1    3    1      5.63      0.00
    2    3    1      1.47      0.00
    3    3    1     -1.32      0.00
    4    3    1     -1.74      0.00
    5    3    1     -0.94      0.00
    6    3    1     -0.53      0.00
    7    3    1     -1.28      0.00
    8    3    1     -2.56      0.00
    9    3    1     -3.32      0.00
   10    3    1     -3.09      0.00
   11    3    1     -1.96      0.00
   12    3    1     -0.55      0.00
   13    3    1      0.36      0.00
   14    3    1      0.48      0.00
  -17    4    1     -0.26      0.00
  -16    4    1     -0.33      0.00
  -15    4    1     -0.19      0.00
  -14    4    1      0.27      0.00
  -13    4    1      1.01      0.00
  -12    4    1      1.71      0.00
  -11    4    1      1.78      0.00
  -10    4    1      0.71      0.00
   -9    4    1     -1.81      0.00
   -8    4    1     -5.78      0.00
   -7    4    1    -10.49      0.00
   -6    4    1    -14.62      0.00
   -5    4    1    -16.49      0.00
   -4    4    1    -14.85      0.00
   -3    4    1    -10.33      0.00
   -2    4    1     -5.35      0.00
   -1    4    1     -2.11      0.00
    0    4    1     -1.56      0.00
    1    4    1     -3.16      0.00
    2    4    1     -4.94      0.00
    3    4    1     -5.17      0.00
    4    4    1     -3.91      0.00
    5    4    1     -2.47      0.00
    6    4    1     -1.93      0.00
    7    4    1     -2.29      0.00
    8    4    1     -2.66      0.00
    9    4    1     -2.43      0.00
   10    4    1     -1.63      0.00
   11    4    1     -0.45      0.00
   12    4    1      0.59      0.00
   13    4    1      0.90      0.00
   14    4    1      0.54      0.00
  -17    5    1      0.09      0.00
  -16    5    1      0.42      0.00
  -15    5    1      0.99      0.00
  -14    5    1      1.70      0.00
  -13    5    1      2.33      0.00
  -12    5    1      2.57      0.00
  -11    5    1      2.20      0.00
  -10    5    1      1.15      0.00
   -9    5    1     -0.70      0.00
   -8    5    1     -3.42      0.00
   -7    5    1     -6.50      0.00
   -6    5    1     -8.94      0.00
   -5    5    1     -9.70      0.00
   -4    5    1     -8.46      0.00
   -3    5    1     -6.32      0.00
   -2    5    1     -4.90      0.00
   -1    5    1     -4.70      0.00
    0    5    1     -5.30      0.00
    1    5    1     -6.12      0.00
    2    5    1     -6.29      0.00
    3    5    1     -5.32      0.00
    4    5    1     -3.69      0.00
    5    5    1     -2.35      0.00
    6    5    1     -1.84      0.00
    7    5    1     -1.82      0.00
    8    5    1     -1.57      0.00
    9    5    1     -0.87      0.00
   10    5    1      0.06      0.00
   11    5    1      0.96      0.00
   12    5    1      1.37      0.00
   13    5    1      1.04      0.00
   14    5    1      0.38      0.00
  -17    6    1      0.44      0.00
  -16    6    1      1.10      0.00
  -15    6    1      1.99      0.00
  -14    6    1      2.74      0.00
  -13    6    1      3.08      0.00
  -12    6    1      3.09      0.00
  -11    6    1      2.97      0.00
  -10    6    1      2.74      0.00
   -9    6    1      2.04      0.00
   -8    6    1      0.69      0.00
   -7    6    1     -0.77      0.00
   -6    6    1     -1.59      0.00
   -5    6    1     -1.45      0.00
   -4    6    1     -0.64      0.00
   -3    6    1     -0.14      0.00
   -2    6    1     -0.65      0.00
   -1    6    1     -1.74      0.00
    0    6    1     -2.64      0.00
    1    6    1     -3.12      0.00
    2    6    1     -3.06      0.00
    3    6    1     -2.38      0.00
    4    6    1     -1.38      0.00
    5    6    1     -0.60      0.00
    6    6    1     -0.39      0.00
    7    6    1     -0.40      0.00
    8    6    1     -0.05      0.00
    9    6    1      0.68      0.00
   10    6    1      1.36      0.00
   11    6    1      1.65      0.00
   12    6    1      1.37      0.00
   13    6    1      0.67      0.00
  -17    7    1      0.51      0.00
  -16    7    1      1.25      0.00
  -15    7    1      2.14      0.00
  -14    7    1      2.72      0.00
  -13    7    1      2.91      0.00
  -12    7    1      3.13      0.00
  -11    7    1      3.66      0.00
  -10    7    1      4.26      0.00
   -9    7    1      4.46      0.00
   -8    7    1      4.28      0.00
   -7    7    1      4.34      0.00
   -6    7    1      4.96      0.00
   -5    7    1      5.91      0.00
   -4    7    1      6.72      0.00
   -3    7    1      6.79      0.00
   -2    7    1      5.88      0.00
   -1    7    1      4.55      0.00
    0    7    1      3.42      0.00
    1    7    1      2.53      0.00
    2    7    1      1.92      0.00
    3    7    1      1.68      0.00
    4    7    1      1.75      0.00
    5    7    1      1.70      0.00
    6    7    1      1.31      0.00
    7    7    1      0.95      0.00
    8    7    1      1.15      0.00
    9    7    1      1.59      0.00
   10    7    1      1.67      0.00
   11    7    1      1.30      0.00
   12    7    1      0.67      0.00
  -17    8    1      0.16      0.00
  -16    8    1      0.64      0.00
  -15    8    1      1.32      0.00
  -14    8    1      1.74      0.00
  -13    8    1      1.92      0.00
  -12    8    1      2.31      0.00
  -11    8    1      3.09      0.00
  -10    8    1      3.95      0.00
   -9    8    1      4.58      0.00
   -8    8    1      5.20      0.00
   -7    8    1      6.29      0.00
   -6    8    1      7.86      0.00
   -5    8    1      9.47      0.00
   -4    8    1     10.79      0.00
   -3    8    1     11.34      0.00
   -2    8    1     10.80      0.00
   -1    8    1      9.54      0.00
    0    8    1      8.13      0.00
    1    8    1      6.78      0.00
    2    8    1      5.59      0.00
    3    8    1      4.64      0.00
    4    8    1      3.87      0.00
    5    8    1      3.06      0.00
    6    8    1      2.14      0.00
    7    8    1      1.57      0.00
    8    8    1      1.56      0.00
    9    8    1      1.58      0.00
   10    8    1      1.15      0.00
   11    8    1      0.52      0.00
  -16    9    1     -0.22      0.00
  -15    9    1      0.18      0.00
  -14    9    1      0.33      0.00
  -13    9    1      0.23      0.00
  -12    9    1      0.29      0.00
  -11    9    1      0.65      0.00
  -10    9    1      1.13      0.00
   -9    9    1      1.64      0.00
   -8    9    1      2.50      0.00
   -7    9    1      4.06      0.00
   -6    9    1      6.09      0.00
   -5    9    1      8.16      0.00
   -4    9    1      9.97      0.00
   -3    9    1     11.00      0.00
   -2    9    1     10.86      0.00
   -1    9    1      9.89      0.00
    0    9    1      8.65      0.00
    1    9    1      7.39      0.00
    2    9    1      6.14      0.00
    3    9    1      4.91      0.00
    4    9    1      3.76      0.00
    5    9    1      2.68      0.00
    6    9    1      1.74      0.00
    7    9    1      1.24      0.00
    8    9    1      1.19      0.00
    9    9    1      1.04      0.00
   10    9    1      0.58      0.00
  -16   10    1     -0.66      0.00
  -15   10    1     -0.68      0.00
  -14   10    1     -1.06      0.00
  -13   10    1     -1.73      0.00
  -12   10    1     -2.36      0.00
  -11   10    1     -2.87      0.00
  -10   10    1     -3.19      0.00
   -9   10    1     -3.13      0.00
   -8   10    1     -2.34      0.00
   -7   10    1     -0.74      0.00
   -6   10    1      1.27      0.00
   -5   10    1      3.26      0.00
   -4   10    1      5.01      0.00
   -3   10    1      6.14      0.00
   -2   10    1      6.36      0.00
   -1   10    1      5.93      0.00
    0   10    1      5.23      0.00
    1   10    1      4.42      0.00
    2   10    1      3.51      0.00
    3   10    1      2.54      0.00
    4   10    1      1.64      0.00
    5   10    1      0.94      0.00
    6   10    1      0.45      0.00
    7   10    1      0.35      0.00
    8   10    1      0.53      0.00
    9   10    1      0.54      0.00
   10   10    1      0.31      0.00
  -16   11    1     -0.60      0.00
  -15   11    1     -1.07      0.00
  -14   11    1     -1.91      0.00
  -13   11    1     -2.99      0.00
  -12   11    1     -4.27      0.00
  -11   11    1     -5.63      0.00
  -10   11    1     -6.65      0.00
   -9   11    1     -6.95      0.00
   -8   11    1     -6.44      0.00
   -7   11    1     -5.31      0.00
   -6   11    1     -3.94      0.00
   -5   11    1     -2.57      0.00
   -4   11    1     -1.26      0.00
   -3   11    1     -0.25      0.00
   -2   11    1      0.23      0.00
   -1   11    1      0.23      0.00
    0   11    1     -0.03      0.00
    1   11    1     -0.30      0.00
    2   11    1     -0.52      0.00
    3   11    1     -0.76      0.00
    4   11    1     -0.95      0.00
    5   11    1     -0.96      0.00
    6   11    1     -0.79      0.00
    7   11    1     -0.41      0.00
    8   11    1      0.00      0.00
    9   11    1      0.16      0.00
  -15   12    1     -0.89      0.00
  -14   12    1     -1.72      0.00
  -13   12    1     -2.79      0.00
  -12   12    1     -4.27      0.00
  -11   12    1     -5.92      0.00
  -10   12    1     -7.14      0.00
   -9   12    1     -7.70      0.00
   -8   12    1     -7.81      0.00
   -7   12    1     -7.58      0.00
   -6   12    1     -7.07      0.00
   -5   12    1     -6.42      0.00
   -4   12    1     -5.67      0.00
   -3   12    1     -4.98      0.00
   -2   12    1     -4.55      0.00
   -1   12    1     -4.44      0.00
    0   12    1     -4.38      0.00
    1   12    1     -4.03      0.00
    2   12    1     -3.41      0.00
    3   12    1     -2.87      0.00
    4   12    1     -2.40      0.00
    5   12    1     -1.81      0.00
    6   12    1     -1.19      0.00
    7   12    1     -0.65      0.00
  -14   13    1     -0.72      0.00
  -13   13    1     -1.32      0.00
  -12   13    1     -2.32      0.00
  -11   13    1     -3.55      0.00
  -10   13    1     -4.57      0.00
   -9   13    1     -5.36      0.00
   -8   13    1     -6.03      0.00
   -7   13    1     -6.42      0.00
   -6   13    1     -6.48      0.00
   -5   13    1     -6.43      0.00
   -4   13    1     -6.31      0.00
   -3   13    1     -6.11      0.00
   -2   13    1     -5.96      0.00
   -1   13    1     -5.85      0.00
    0   13    1     -5.53      0.00
    1   13    1     -4.74      0.00
    2   13    1     -3.71      0.00
    3   13    1     -2.87      0.00
    4   13    1     -2.15      0.00
    5   13    1     -1.39      0.00
    6   13    1     -0.78      0.00
  -14   14    1      0.24      0.00
  -13   14    1      0.34      0.00
  -12   14    1      0.18      0.00
  -11   14    1     -0.29      0.00
  -10   14    1     -0.80      0.00
   -9   14    1     -1.35      0.00
   -8   14    1     -1.92      0.00
   -7   14    1     -2.28      0.00
   -6   14    1     -2.50      0.00
   -5   14    1     -2.86      0.00
   -4   14    1     -3.26      0.00
   -3   14    1     -3.54      0.00
   -2   14    1     -3.65      0.00
   -1   14    1     -3.62      0.00
    0   14    1     -3.35      0.00
    1   14    1     -2.76      0.00
    2   14    1     -2.09      0.00
    3   14    1     -1.56      0.00
    4   14    1     -1.05      0.00
  -12   15    1      1.46      0.00
  -11   15    1      1.72      0.00
  -10   15    1      1.96      0.00
   -9   15    1      2.10      0.00
   -8   15    1      2.12      0.00
   -7   15    1      2.19      0.00
   -6   15    1      2.15      0.00
   -5   15    1      1.70      0.00
   -4   15    1      1.05      0.00
   -3   15    1      0.56      0.00
   -2   15    1      0.28      0.00
   -1   15    1      0.08      0.00
    0   15    1     -0.17      0.00
    1   15    1     -0.37      0.00
    2   15    1     -0.44      0.00
    3   15    1     -0.42      0.00
  -10   16    1      2.38      0.00
   -9   16    1      3.01      0.00
   -8   16    1      3.55      0.00
   -7   16    1      4.12      0.00
   -6   16    1      4.38      0.00
   -5   16    1      4.03      0.00
   -4   16    1      3.44      0.00
   -3   16    1      3.03      0.00
   -2   16    1      2.74      0.00
   -1   16    1      2.21      0.00
    0   16    1      1.35      0.00
    1   16    1      0.55      0.00
   -7   17    1      3.07      0.00
   -6   17    1      3.40      0.00
   -5   17    1      3.14      0.00
   -4   17    1      2.81      0.00
   -3   17    1      2.66      0.00
   -2   17    1      2.41      0.00
   -1   17    1      1.76      0.00
   -1  -17    2      0.28      0.00
    0  -17    2      0.09      0.00
    1  -17    2     -0.34      0.00
    2  -17    2     -0.71      0.00
    3  -17    2     -1.05      0.00
    4  -17    2     -1.50      0.00
    5  -17    2     -1.85      0.00
    6  -17    2     -1.80      0.00
    7  -17    2     -1.50      0.00
    8  -17    2     -1.15      0.00
    9  -17    2     -0.77      0.00
   -2  -16    2      0.59      0.00
   -1  -16    2      0.80      0.00
    0  -16    2      0.44      0.00
    1  -16    2     -0.26      0.00
    2  -16    2     -0.85      0.00
    3  -16    2     -1.40      0.00
    4  -16    2     -2.09      0.00
    5  -16    2     -2.63      0.00
    6  -16    2     -2.67      0.00
    7  -16    2     -2.31      0.00
    8  -16    2     -1.74      0.00
    9  -16    2     -1.06      0.00
   10  -16    2     -0.44      0.00
   11  -16    2     -0.09      0.00
   -4  -15    2      0.63      0.00
   -3  -15    2      0.91      0.00
   -2  -15    2      1.39      0.00
   -1  -15    2      1.67      0.00
    0  -15    2      1.39      0.00
    1  -15    2      0.85      0.00
    2  -15    2      0.39      0.00
    3  -15    2     -0.17      0.00
    4  -15    2     -0.91      0.00
    5  -15    2     -1.42      0.00
    6  -15    2     -1.40      0.00
    7  -15    2     -1.08      0.00
    8  -15    2     -0.63      0.00
    9  -15    2     -0.02      0.00
   10  -15    2      0.48      0.00
   11  -15    2      0.62      0.00
   12  -15    2      0.51      0.00
   13  -15    2      0.31      0.00
   -5  -14    2      0.84      0.00
   -4  -14    2      1.23      0.00
   -3  -14    2      1.63      0.00
   -2  -14    2      2.25      0.00
   -1  -14    2      2.82      0.00
    0  -14    2      3.02      0.00
    1  -14    2      2.97      0.00
    2  -14    2      2.82      0.00
    3  -14    2      2.45      0.00
    4  -14    2      1.96      0.00
    5  -14    2      1.68      0.00
    6  -14    2      1.63      0.00
    7  -14    2      1.63      0.00
    8  -14    2      1.76      0.00
    9  -14    2      2.13      0.00
   10  -14    2      2.27      0.00
   11  -14    2      1.85      0.00
   12  -14    2      1.23      0.00
   13  -14    2      0.80      0.00
   14  -14    2      0.48      0.00
   -7  -13    2     -0.06      0.00
   -6  -13    2      0.39      0.00
   -5  -13    2      0.92      0.00
   -4  -13    2      1.33      0.00
   -3  -13    2      1.84      0.00
   -2  -13    2      2.71      0.00
   -1  -13    2      3.70      0.00
    0  -13    2      4.38      0.00
    1  -13    2      4.70      0.00
    2  -13    2      4.75      0.00
    3  -13    2      4.63      0.00
    4  -13    2      4.45      0.00
    5  -13    2      4.27      0.00
    6  -13    2      4.01      0.00
    7  -13    2      3.76      0.00
    8  -13    2      3.77      0.00
    9  -13    2      3.88      0.00
   10  -13    2      3.49      0.00
   11  -13    2      2.60      0.00
   12  -13    2      1.84      0.00
   13  -13    2      1.46      0.00
   14  -13    2      1.10      0.00
   -8  -12    2     -0.47      0.00
   -7  -12    2     -0.52      0.00
   -6  -12    2     -0.28      0.00
   -5  -12    2      0.06      0.00
   -4  -12    2      0.44      0.00
   -3  -12    2      1.05      0.00
   -2  -12    2      2.04      0.00
   -1  -12    2      3.15      0.00
    0  -12    2      3.92      0.00
    1  -12    2      4.20      0.00
    2  -12    2      4.14      0.00
    3  -12    2      4.05      0.00
    4  -12    2      4.02      0.00
    5  -12    2      3.91      0.00
    6  -12    2      3.72      0.00
    7  -12    2      3.61      0.00
    8  -12    2      3.62      0.00
    9  -12    2      3.44      0.00
   10  -12    2      2.84      0.00
   11  -12    2      2.14      0.00
   12  -12    2      1.78      0.00
   13  -12    2      1.60      0.00
   14  -12    2      1.21      0.00
   15  -12    2      0.64      0.00
   -9  -11    2     -0.63      0.00
   -8  -11    2     -1.21      0.00
   -7  -11    2     -1.58      0.00
   -6  -11    2     -1.71      0.00
   -5  -11    2     -1.63      0.00
   -4  -11    2     -1.38      0.00
   -3  -11    2     -0.94      0.00
   -2  -11    2     -0.26      0.00
   -1  -11    2      0.43      0.00
    0  -11    2      0.72      0.00
    1  -11    2      0.42      0.00
    2  -11    2     -0.12      0.00
    3  -11    2     -0.36      0.00
    4  -11    2     -0.19      0.00
    5  -11    2      0.09      0.00
    6  -11    2      0.34      0.00
    7  -11    2      0.55      0.00
    8  -11    2      0.62      0.00
    9  -11    2      0.52      0.00
   10  -11    2      0.40      0.00
   11  -11    2      0.41      0.00
   12  -11    2      0.52      0.00
   13  -11    2      0.52      0.00
   14  -11    2      0.35      0.00
   15  -11    2      0.11      0.00
   16  -11    2     -0.10      0.00
  -10  -10    2     -0.77      0.00
   -9  -10    2     -1.38      0.00
   -8  -10    2     -2.02      0.00
   -7  -10    2     -2.64      0.00
   -6  -10    2     -3.13      0.00
   -5  -10    2     -3.35      0.00
   -4  -10    2     -3.40      0.00
   -3  -10    2     -3.46      0.00
   -2  -10    2     -3.55      0.00
   -1  -10    2     -3.77      0.00
    0  -10    2     -4.43      0.00
    1  -10    2     -5.61      0.00
    2  -10    2     -6.73      0.00
    3  -10    2     -7.02      0.00
    4  -10    2     -6.51      0.00
    5  -10    2     -5.73      0.00
    6  -10    2     -5.00      0.00
    7  -10    2     -4.43      0.00
    8  -10    2     -3.99      0.00
    9  -10    2     -3.46      0.00
   10  -10    2     -2.78      0.00
   11  -10    2     -2.12      0.00
   12  -10    2     -1.66      0.00
   13  -10    2     -1.31      0.00
   14  -10    2     -0.95      0.00
   15  -10    2     -0.64      0.00
  -11   -9    2     -0.93      0.00
  -10   -9    2     -1.22      0.00
   -9   -9    2     -1.54      0.00
   -8   -9    2     -2.10      0.00
   -7   -9    2     -2.92      0.00
   -6   -9    2     -3.62      0.00
   -5   -9    2     -3.95      0.00
   -4   -9    2     -4.20      0.00
   -3   -9    2     -4.77      0.00
   -2   -9    2     -5.67      0.00
   -1   -9    2     -6.80      0.00
    0   -9    2     -8.30      0.00
    1   -9    2    -10.15      0.00
    2   -9    2    -11.64      0.00
    3   -9    2    -11.98      0.00
    4   -9    2    -11.27      0.00
    5   -9    2    -10.18      0.00
    6   -9    2     -9.15      0.00
    7   -9    2     -8.29      0.00
    8   -9    2     -7.48      0.00
    9   -9    2     -6.45      0.00
   10   -9    2     -5.23      0.00
   11   -9    2     -4.16      0.00
   12   -9    2     -3.40      0.00
   13   -9    2     -2.73      0.00
   14   -9    2     -1.95      0.00
   15   -9    2     -1.20      0.00
   16   -9    2     -0.62      0.00
  -12   -8    2     -0.66      0.00
  -11   -8    2     -0.71      0.00
  -10   -8    2     -0.57      0.00
   -9   -8    2     -0.67      0.00
   -8   -8    2     -1.26      0.00
   -7   -8    2     -2.07      0.00
   -6   -8    2     -2.45      0.00
   -5   -8    2     -2.30      0.00
   -4   -8    2     -2.27      0.00
   -3   -8    2     -2.83      0.00
   -2   -8    2     -3.88      0.00
   -1   -8    2     -5.22      0.00
    0   -8    2     -6.94      0.00
    1   -8    2     -8.97      0.00
    2   -8    2    -10.55      0.00
    3   -8    2    -10.85      0.00
    4   -8    2    -10.05      0.00
    5   -8    2     -8.93      0.00
    6   -8    2     -8.07      0.00
    7   -8    2     -7.62      0.00
    8   -8    2     -7.25      0.00
    9   -8    2     -6.48      0.00
   10   -8    2     -5.36      0.00
   11   -8    2     -4.36      0.00
   12   -8    2     -3.68      0.00
   13   -8    2     -3.05      0.00
   14   -8    2     -2.21      0.00
   15   -8    2     -1.28      0.00
   16   -8    2     -0.53      0.00
  -13   -7    2     -0.06      0.00
  -12   -7    2      0.04      0.00
  -11   -7    2      0.41      0.00
  -10   -7    2      0.72      0.00
   -9   -7    2      0.60      0.00
   -8   -7    2      0.16      0.00
   -7   -7    2     -0.03      0.00
   -6   -7    2      0.57      0.00
   -5   -7    2      1.77      0.00
   -4   -7    2      2.77      0.00
   -3   -7    2      3.09      0.00
   -2   -7    2      2.73      0.00
   -1   -7    2      1.84      0.00
    0   -7    2      0.53      0.00
    1   -7    2     -0.94      0.00
    2   -7    2     -1.75      0.00
    3   -7    2     -1.38      0.00
    4   -7    2     -0.40      0.00
    5   -7    2      0.15      0.00
    6   -7    2     -0.27      0.00
    7   -7    2     -1.47      0.00
    8   -7    2     -2.64      0.00
    9   -7    2     -3.06      0.00
   10   -7    2     -2.87      0.00
   11   -7    2     -2.61      0.00
   12   -7    2     -2.45      0.00
   13   -7    2     -2.15      0.00
   14   -7    2     -1.54      0.00
   15   -7    2     -0.86      0.00
   16   -7    2     -0.34      0.00
  -13   -6    2      0.45      0.00
  -12   -6    2      0.88      0.00
  -11   -6    2      1.33      0.00
  -10   -6    2      1.54      0.00
   -9   -6    2      1.56      0.00
   -8   -6    2      1.73      0.00
   -7   -6    2      2.52      0.00
   -6   -6    2      4.31      0.00
   -5   -6    2      6.85      0.00
   -4   -6    2      9.28      0.00
   -3   -6    2     10.83      0.00
   -2   -6    2     11.26      0.00
   -1   -6    2     10.95      0.00
    0   -6    2     10.66      0.00
    1   -6    2     11.06      0.00
    2   -6    2     12.44      0.00
    3   -6    2     14.28      0.00
    4   -6    2     15.14      0.00
    5   -6    2     13.95      0.00
    6   -6    2     10.90      0.00
    7   -6    2      7.05      0.00
    8   -6    2      3.74      0.00
    9   -6    2      1.71      0.00
   10   -6    2      0.72      0.00
   11   -6    2      0.15      0.00
   12   -6    2     -0.23      0.00
   13   -6    2     -0.35      0.00
   14   -6    2     -0.27      0.00
   15   -6    2     -0.17      0.00
   16   -6    2     -0.10      0.00
  -14   -5    2      0.17      0.00
  -13   -5    2      0.52      0.00
  -12   -5    2      0.95      0.00
  -11   -5    2      1.23      0.00
  -10   -5    2      1.36      0.00
   -9   -5    2      1.67      0.00
   -8   -5    2      2.40      0.00
   -7   -5    2      3.94      0.00
   -6   -5    2      6.73      0.00
   -5   -5    2     10.42      0.00
   -4   -5    2     13.77      0.00
   -3   -5    2     15.69      0.00
   -2   -5    2     16.03      0.00
   -1   -5    2     16.02      0.00
    0   -5    2     17.46      0.00
    1   -5    2     21.05      0.00
    2   -5    2     25.67      0.00
    3   -5    2     28.98      0.00
    4   -5    2     28.76      0.00
    5   -5    2     24.73      0.00
    6   -5    2     18.54      0.00
    7   -5    2     12.30      0.00
    8   -5    2      7.54      0.00
    9   -5    2      4.81      0.00
   10   -5    2      3.48      0.00
   11   -5    2      2.65      0.00
   12   -5    2      1.94      0.00
   13   -5    2      1.33      0.00
   14   -5    2      0.82      0.00
   15   -5    2      0.40      0.00
   16   -5    2      0.16      0.00
  -14   -4    2     -0.34      0.00
  -13   -4    2     -0.06      0.00
  -12   -4    2      0.15      0.00
  -11   -4    2      0.12      0.00
  -10   -4    2      0.01      0.00
   -9   -4    2      0.20      0.00
   -8   -4    2      0.99      0.00
   -7   -4    2      2.89      0.00
   -6   -4    2      6.17      0.00
   -5   -4    2      9.86      0.00
   -4   -4    2     12.30      0.00
   -3   -4    2     12.55      0.00
   -2   -4    2     11.19      0.00
   -1   -4    2     10.81      0.00
    0   -4    2     14.31      0.00
    1   -4    2     21.72      0.00
    2   -4    2     29.53      0.00
    3   -4    2     33.38      0.00
    4   -4    2     31.25      0.00
    5   -4    2     24.63      0.00
    6   -4    2     16.81      0.00
    7   -4    2     10.37      0.00
    8   -4    2      6.43      0.00
    9   -4    2      4.78      0.00
   10   -4    2      4.22      0.00
   11   -4    2      3.64      0.00
   12   -4    2      2.78      0.00
   13   -4    2      1.86      0.00
   14   -4    2      1.05      0.00
   15   -4    2      0.48      0.00
   16   -4    2      0.23      0.00
  -15   -3    2     -0.86      0.00
  -14   -3    2     -0.94      0.00
  -13   -3    2     -0.92      0.00
  -12   -3    2     -1.19      0.00
  -11   -3    2     -1.81      0.00
  -10   -3    2     -2.50      0.00
   -9   -3    2     -2.80      0.00
   -8   -3    2     -2.20      0.00
   -7   -3    2     -0.32      0.00
   -6   -3    2      2.30      0.00
   -5   -3    2      3.92      0.00
   -4   -3    2      2.92      0.00
   -3   -3    2     -1.01      0.00
   -2   -3    2     -6.01      0.00
   -1   -3    2     -7.63      0.00
    0   -3    2     -2.09      0.00
    1   -3    2      8.81      0.00
    2   -3    2     18.59      0.00
    3   -3    2     21.90      0.00
    4   -3    2     18.35      0.00
    5   -3    2     11.56      0.00
    6   -3    2      5.57      0.00
    7   -3    2      2.26      0.00
    8   -3    2      1.50      0.00
    9   -3    2      2.13      0.00
   10   -3    2      2.74      0.00
   11   -3    2      2.61      0.00
   12   -3    2      1.90      0.00
   13   -3    2      1.00      0.00
   14   -3    2      0.28      0.00
   15   -3    2      0.00      0.00
   16   -3    2      0.12      0.00
  -15   -2    2     -1.03      0.00
  -14   -2    2     -1.25      0.00
  -13   -2    2     -1.77      0.00
  -12   -2    2     -2.79      0.00
  -11   -2    2     -4.03      0.00
  -10   -2    2     -5.16      0.00
   -9   -2    2     -5.66      0.00
   -8   -2    2     -5.11      0.00
   -7   -2    2     -3.77      0.00
   -6   -2    2     -3.15      0.00
   -5   -2    2     -5.38      0.00
   -4   -2    2    -11.66      0.00
   -3   -2    2    -21.28      0.00
   -2   -2    2    -30.59      0.00
   -1   -2    2    -33.32      0.00
    0   -2    2    -26.05      0.00
    1   -2    2    -13.35      0.00
    2   -2    2     -3.71      0.00
    3   -2    2     -1.39      0.00
    4   -2    2     -4.33      0.00
    5   -2    2     -7.88      0.00
    6   -2    2     -8.86      0.00
    7   -2    2     -7.09      0.00
    8   -2    2     -4.06      0.00
    9   -2    2     -1.35      0.00
   10   -2    2      0.13      0.00
   11   -2    2      0.39      0.00
   12   -2    2     -0.08      0.00
   13   -2    2     -0.71      0.00
   14   -2    2     -0.91      0.00
   15   -2    2     -0.49      0.00
   16   -2    2      0.13      0.00
  -16   -1    2     -0.54      0.00
  -15   -1    2     -0.86      0.00
  -14   -1    2     -1.41      0.00
  -13   -1    2     -2.60      0.00
  -12   -1    2     -4.10      0.00
  -11   -1    2     -5.36      0.00
  -10   -1    2     -6.08      0.00
   -9   -1    2     -5.98      0.00
   -8   -1    2     -5.10      0.00
   -7   -1    2     -4.47      0.00
   -6   -1    2     -6.23      0.00
   -5   -1    2    -12.46      0.00
   -4   -1    2    -23.59      0.00
   -3   -1    2    -37.45      0.00
   -2   -1    2    -48.78      0.00
   -1   -1    2    -51.10      0.00
    0   -1    2    -43.10      0.00
    1   -1    2    -31.57      0.00
    2   -1    2    -24.30      0.00
    3   -1    2    -22.78      0.00
    4   -1    2    -23.37      0.00
    5   -1    2    -22.24      0.00
    6   -1    2    -18.11      0.00
    7   -1    2    -12.31      0.00
    8   -1    2     -7.03      0.00
    9   -1    2     -3.58      0.00
   10   -1    2     -2.06      0.00
   11   -1    2     -1.84      0.00
   12   -1    2     -2.14      0.00
   13   -1    2     -2.22      0.00
   14   -1    2     -1.56      0.00
   15   -1    2     -0.47      0.00
   16   -1    2      0.23      0.00
  -16    0    2     -0.27      0.00
  -15    0    2     -0.72      0.00
  -14    0    2     -1.70      0.00
  -13    0    2     -3.14      0.00
  -12    0    2     -4.27      0.00
  -11    0    2     -4.55      0.00
  -10    0    2     -3.92      0.00
   -9    0    2     -2.40      0.00
   -8    0    2     -0.56      0.00
   -7    0    2     -0.05      0.00
   -6    0    2     -3.22      0.00
   -5    0    2    -11.58      0.00
   -4    0    2    -24.27      0.00
   -3    0    2    -37.79      0.00
   -2    0    2    -46.87      0.00
   -1    0    2    -47.22      0.00
    0    0    2    -40.26      0.00
    1    0    2    -32.71      0.00
    2    0    2    -29.31      0.00
    3    0    2    -28.81      0.00
    4    0    2    -27.63      0.00
    5    0    2    -23.74      0.00
    6    0    2    -17.46      0.00
    7    0    2    -10.85      0.00
    8    0    2     -6.02      0.00
    9    0    2     -3.64      0.00
   10    0    2     -3.04      0.00
   11    0    2     -3.19      0.00
   12    0    2     -3.23      0.00
   13    0    2     -2.58      0.00
   14    0    2     -1.28      0.00
   15    0    2     -0.12      0.00
  -16    1    2     -0.07      0.00
  -15    1    2     -0.82      0.00
  -14    1    2     -1.91      0.00
  -13    1    2     -2.79      0.00
  -12    1    2     -2.71      0.00
  -11    1    2     -1.40      0.00
  -10    1    2      1.04      0.00
   -9    1    2      4.35      0.00
   -8    1    2      7.50      0.00
   -7    1    2      8.55      0.00
   -6    1    2      5.58      0.00
   -5    1    2     -1.80      0.00
   -4    1    2    -11.58      0.00
   -3    1    2    -20.08      0.00
   -2    1    2    -23.93      0.00
   -1    1    2    -22.17      0.00
    0    1    2    -17.79      0.00
    1    1    2    -15.41      0.00
    2    1    2    -16.25      0.00
    3    1    2    -17.62      0.00
    4    1    2    -16.92      0.00
    5    1    2    -13.59      0.00
    6    1    2     -8.74      0.00
    7    1    2     -4.48      0.00
    8    1    2     -2.33      0.00
    9    1    2     -2.12      0.00
   10    1    2     -2.74      0.00
   11    1    2     -3.14      0.00
   12    1    2     -2.80      0.00
   13    1    2     -1.74      0.00
   14    1    2     -0.49      0.00
   15    1    2      0.24      0.00
  -16    2    2     -0.05      0.00
  -15    2    2     -0.87      0.00
  -14    2    2     -1.49      0.00
  -13    2    2     -1.30      0.00
  -12    2    2      0.12      0.00
  -11    2    2      2.85      0.00
  -10    2    2      6.72      0.00
   -9    2    2     11.22      0.00
   -8    2    2     15.04      0.00
   -7    2    2     16.69      0.00
   -6    2    2     15.28      0.00
   -5    2    2     11.31      0.00
   -4    2    2      7.00      0.00
   -3    2    2      4.95      0.00
   -2    2    2      5.99      0.00
   -1    2    2      8.68      0.00
    0    2    2     10.11      0.00
    1    2    2      8.27      0.00
    2    2    2      4.23      0.00
    3    2    2      0.79      0.00
    4    2    2     -0.47      0.00
    5    2    2      0.29      0.00
    6    2    2      1.81      0.00
    7    2    2      2.46      0.00
    8    2    2      1.56      0.00
    9    2    2     -0.13      0.00
   10    2    2     -1.46      0.00
   11    2    2     -1.84      0.00
   12    2    2     -1.33      0.00
   13    2    2     -0.42      0.00
   14    2    2      0.28      0.00
   15    2    2      0.46      0.00
  -17    3    2      0.38      0.00
  -16    3    2     -0.05      0.00
  -15    3    2     -0.58      0.00
  -14    3    2     -0.54      0.00
  -13    3    2      0.48      0.00
  -12    3    2      2.65      0.00
  -11    3    2      5.96      0.00
  -10    3    2     10.09      0.00
   -9    3    2     14.30      0.00
   -8    3    2     17.60      0.00
   -7    3    2     19.43      0.00
   -6    3    2     19.79      0.00
   -5    3    2     19.37      0.00
   -4    3    2     19.75      0.00
   -3    3    2     22.10      0.00
   -2    3    2     25.58      0.00
   -1    3    2     27.98      0.00
    0    3    2     27.49      0.00
    1    3    2     23.89      0.00
    2    3    2     18.83      0.00
    3    3    2     14.41      0.00
    4    3    2     11.51      0.00
    5    3    2      9.85      0.00
    6    3    2      8.49      0.00
    7    3    2      6.47      0.00
    8    3    2      3.80      0.00
    9    3    2      1.40      0.00
   10    3    2      0.01      0.00
   11    3    2     -0.24      0.00
   12    3    2      0.19      0.00
   13    3    2      0.65      0.00
   14    3    2      0.73      0.00
  -17    4    2      0.21      0.00
  -16    4    2     -0.15      0.00
  -15    4    2     -0.40      0.00
  -14    4    2     -0.01      0.00
  -13    4    2      1.23      0.00
  -12    4    2      3.31      0.00
  -11    4    2      6.06      0.00
  -10    4    2      9.05      0.00
   -9    4    2     11.71      0.00
   -8    4    2     13.63      0.00
   -7    4    2     14.91      0.00
   -6    4    2     15.92      0.00
   -5    4    2     17.21      0.00
   -4    4    2     19.67      0.00
   -3    4    2     23.48      0.00
   -2    4    2     27.21      0.00
   -1    4    2     29.09      0.00
    0    4    2     28.37      0.00
    1    4    2     25.38      0.00
    2    4    2     21.31      0.00
    3    4    2     17.44      0.00
    4    4    2     14.33      0.00
    5    4    2     11.85      0.00
    6    4    2      9.42      0.00
    7    4    2      6.63      0.00
    8    4    2      3.86      0.00
    9    4    2      1.82      0.00
   10    4    2      0.84      0.00
   11    4    2      0.77      0.00
   12    4    2      1.05      0.00
   13    4    2      1.10      0.00
  -17    5    2     -0.19      0.00
  -16    5    2     -0.67      0.00
  -15    5    2     -0.88      0.00
  -14    5    2     -0.46      0.00
  -13    5    2      0.51      0.00
  -12    5    2      1.76      0.00
  -11    5    2      3.04      0.00
  -10    5    2      4.18      0.00
   -9    5    2      4.96      0.00
   -8    5    2      5.18      0.00
   -7    5    2      5.10      0.00
   -6    5    2      5.32      0.00
   -5    5    2      6.43      0.00
   -4    5    2      8.84      0.00
   -3    5    2     12.21      0.00
   -2    5    2     15.27      0.00
   -1    5    2     17.00      0.00
    0    5    2     17.15      0.00
    1    5    2     15.85      0.00
    2    5    2     13.70      0.00
    3    5    2     11.50      0.00
    4    5    2      9.65      0.00
    5    5    2      7.98      0.00
    6    5    2      6.13      0.00
    7    5    2      4.03      0.00
    8    5    2      2.22      0.00
    9    5    2      1.15      0.00
   10    5    2      0.82      0.00
   11    5    2      0.97      0.00
   12    5    2      1.15      0.00
   13    5    2      0.99      0.00
  -17    6    2     -0.83      0.00
  -16    6    2     -1.49      0.00
  -15    6    2     -1.69      0.00
  -14    6    2     -1.34      0.00
  -13    6    2     -0.93      0.00
  -12    6    2     -0.86      0.00
  -11    6    2     -1.13      0.00
  -10    6    2     -1.57      0.00
   -9    6    2     -2.35      0.00
   -8    6    2     -3.78      0.00
   -7    6    2     -5.44      0.00
   -6    6    2     -6.45      0.00
   -5    6    2     -6.28      0.00
   -4    6    2     -4.89      0.00
   -3    6    2     -2.70      0.00
   -2    6    2     -0.49      0.00
   -1    6    2      1.26      0.00
    0    6    2      2.34      0.00
    1    6    2      2.67      0.00
    2    6    2      2.54      0.00
    3    6    2      2.38      0.00
    4    6    2      2.32      0.00
    5    6    2      2.11      0.00
    6    6    2      1.48      0.00
    7    6    2      0.61      0.00
    8    6    2      0.05      0.00
    9    6    2      0.03      0.00
   10    6    2      0.33      0.00
   11    6    2      0.66      0.00
   12    6    2      0.80      0.00
   13    6    2      0.64      0.00
  -17    7    2     -1.31      0.00
  -16    7    2     -1.93      0.00
  -15    7    2     -1.99      0.00
  -14    7    2     -1.77      0.00
  -13    7    2     -1.93      0.00
  -12    7    2     -2.68      0.00
  -11    7    2     -3.78      0.00
  -10    7    2     -5.06      0.00
   -9    7    2     -6.82      0.00
   -8    7    2     -9.26      0.00
   -7    7    2    -11.77      0.00
   -6    7    2    -13.51      0.00
   -5    7    2    -14.23      0.00
   -4    7    2    -13.97      0.00
   -3    7    2    -12.92      0.00
   -2    7    2    -11.48      0.00
   -1    7    2     -9.92      0.00
    0    7    2     -8.40      0.00
    1    7    2     -7.03      0.00
    2    7    2     -5.75      0.00
    3    7    2     -4.48      0.00
    4    7    2     -3.29      0.00
    5    7    2     -2.41      0.00
    6    7    2     -2.04      0.00
    7    7    2     -1.92      0.00
    8    7    2     -1.50      0.00
    9    7    2     -0.77      0.00
   10    7    2     -0.12      0.00
   11    7    2      0.24      0.00
   12    7    2      0.36      0.00
  -17    8    2     -1.23      0.00
  -16    8    2     -1.58      0.00
  -15    8    2     -1.42      0.00
  -14    8    2     -1.21      0.00
  -13    8    2     -1.53      0.00
  -12    8    2     -2.40      0.00
  -11    8    2     -3.57      0.00
  -10    8    2     -4.98      0.00
   -9    8    2     -6.87      0.00
   -8    8    2     -9.28      0.00
   -7    8    2    -11.66      0.00
   -6    8    2    -13.48      0.00
   -5    8    2    -14.64      0.00
   -4    8    2    -14.99      0.00
   -3    8    2    -14.56      0.00
   -2    8    2    -13.74      0.00
   -1    8    2    -12.70      0.00
    0    8    2    -11.39      0.00
    1    8    2     -9.87      0.00
    2    8    2     -8.24      0.00
    3    8    2     -6.64      0.00
    4    8    2     -5.17      0.00
    5    8    2     -4.00      0.00
    6    8    2     -3.30      0.00
    7    8    2     -2.74      0.00
    8    8    2     -1.87      0.00
    9    8    2     -0.86      0.00
   10    8    2     -0.23      0.00
   11    8    2     -0.01      0.00
  -17    9    2     -0.67      0.00
  -16    9    2     -0.62      0.00
  -15    9    2     -0.11      0.00
  -14    9    2      0.33      0.00
  -13    9    2      0.24      0.00
  -12    9    2     -0.33      0.00
  -11    9    2     -1.14      0.00
  -10    9    2     -2.10      0.00
   -9    9    2     -3.38      0.00
   -8    9    2     -5.03      0.00
   -7    9    2     -6.75      0.00
   -6    9    2     -8.19      0.00
   -5    9    2     -9.13      0.00
   -4    9    2     -9.38      0.00
   -3    9    2     -9.14      0.00
   -2    9    2     -8.86      0.00
   -1    9    2     -8.53      0.00
    0    9    2     -7.90      0.00
    1    9    2     -6.92      0.00
    2    9    2     -5.81      0.00
    3    9    2     -4.74      0.00
    4    9    2     -3.77      0.00
    5    9    2     -3.00      0.00
    6    9    2     -2.51      0.00
    7    9    2     -2.00      0.00
    8    9    2     -1.19      0.00
    9    9    2     -0.42      0.00
   10    9    2     -0.08      0.00
  -16   10    2      0.46      0.00
  -15   10    2      1.34      0.00
  -14   10    2      2.04      0.00
  -13   10    2      2.25      0.00
  -12   10    2      2.10      0.00
  -11   10    2      1.85      0.00
  -10   10    2      1.57      0.00
   -9   10    2      1.08      0.00
   -8   10    2      0.25      0.00
   -7   10    2     -0.69      0.00
   -6   10    2     -1.41      0.00
   -5   10    2     -1.77      0.00
   -4   10    2     -1.72      0.00
   -3   10    2     -1.55      0.00
   -2   10    2     -1.60      0.00
   -1   10    2     -1.76      0.00
    0   10    2     -1.77      0.00
    1   10    2     -1.56      0.00
    2   10    2     -1.30      0.00
    3   10    2     -1.15      0.00
    4   10    2     -1.05      0.00
    5   10    2     -0.91      0.00
    6   10    2     -0.82      0.00
    7   10    2     -0.65      0.00
    8   10    2     -0.29      0.00
    9   10    2      0.01      0.00
  -16   11    2      1.07      0.00
  -15   11    2      2.03      0.00
  -14   11    2      2.81      0.00
  -13   11    2      3.32      0.00
  -12   11    2      3.64      0.00
  -11   11    2      3.83      0.00
  -10   11    2      3.96      0.00
   -9   11    2      3.98      0.00
   -8   11    2      3.79      0.00
   -7   11    2      3.57      0.00
   -6   11    2      3.48      0.00
   -5   11    2      3.54      0.00
   -4   11    2      3.77      0.00
   -3   11    2      4.04      0.00
   -2   11    2      4.07      0.00
   -1   11    2      3.79      0.00
    0   11    2      3.33      0.00
    1   11    2      2.82      0.00
    2   11    2      2.27      0.00
    3   11    2      1.61      0.00
    4   11    2      0.99      0.00
    5   11    2      0.61      0.00
    6   11    2      0.35      0.00
    7   11    2      0.15      0.00
    8   11    2      0.11      0.00
  -15   12    2      1.61      0.00
  -14   12    2      2.38      0.00
  -13   12    2      3.12      0.00
  -12   12    2      3.64      0.00
  -11   12    2      3.85      0.00
  -10   12    2      4.01      0.00
   -9   12    2      4.25      0.00
   -8   12    2      4.45      0.00
   -7   12    2      4.62      0.00
   -6   12    2      4.82      0.00
   -5   12    2      5.05      0.00
   -4   12    2      5.45      0.00
   -3   12    2      5.96      0.00
   -2   12    2      6.21      0.00
   -1   12    2      5.89      0.00
    0   12    2      5.10      0.00
    1   12    2      4.17      0.00
    2   12    2      3.27      0.00
    3   12    2      2.28      0.00
    4   12    2      1.32      0.00
    5   12    2      0.68      0.00
    6   12    2      0.31      0.00
    7   12    2      0.09      0.00
  -14   13    2      1.35      0.00
  -13   13    2      2.01      0.00
  -12   13    2      2.31      0.00
  -11   13    2      2.20      0.00
  -10   13    2      2.13      0.00
   -9   13    2      2.32      0.00
   -8   13    2      2.54      0.00
   -7   13    2      2.78      0.00
   -6   13    2      3.09      0.00
   -5   13    2      3.40      0.00
   -4   13    2      3.82      0.00
   -3   13    2      4.36      0.00
   -2   13    2      4.63      0.00
   -1   13    2      4.33      0.00
    0   13    2      3.57      0.00
    1   13    2      2.79      0.00
    2   13    2      2.08      0.00
    3   13    2      1.22      0.00
    4   13    2      0.33      0.00
    5   13    2     -0.16      0.00
  -14   14    2      0.41      0.00
  -13   14    2      0.73      0.00
  -12   14    2      0.67      0.00
  -11   14    2      0.22      0.00
  -10   14    2     -0.17      0.00
   -9   14    2     -0.28      0.00
   -8   14    2     -0.25      0.00
   -7   14    2     -0.01      0.00
   -6   14    2      0.32      0.00
   -5   14    2      0.46      0.00
   -4   14    2      0.57      0.00
   -3   14    2      0.89      0.00
   -2   14    2      1.26      0.00
   -1   14    2      1.29      0.00
    0   14    2      0.98      0.00
    1   14    2      0.63      0.00
    2   14    2      0.32      0.00
    3   14    2     -0.17      0.00
    4   14    2     -0.61      0.00
  -13   15    2      0.00      0.00
  -12   15    2     -0.20      0.00
  -11   15    2     -0.79      0.00
  -10   15    2     -1.38      0.00
   -9   15    2     -1.73      0.00
   -8   15    2     -1.83      0.00
   -7   15    2     -1.67      0.00
   -6   15    2     -1.54      0.00
   -5   15    2     -1.75      0.00
   -4   15    2     -1.96      0.00
   -3   15    2     -1.65      0.00
   -2   15    2     -1.00      0.00
   -1   15    2     -0.54      0.00
    0   15    2     -0.47      0.00
    1   15    2     -0.55      0.00
    2   15    2     -0.60      0.00
  -10   16    2     -1.10      0.00
   -9   16    2     -1.44      0.00
   -8   16    2     -1.65      0.00
   -7   16    2     -1.67      0.00
   -6   16    2     -1.76      0.00
   -5   16    2     -2.11      0.00
   -4   16    2     -2.26      0.00
   -3   16    2     -1.80      0.00
   -2   16    2     -1.02      0.00
   -1   16    2     -0.49      0.00
    0   16    2     -0.43      0.00
    1   16    2     -0.51      0.00
   -6   17    2     -0.92      0.00
   -5   17    2     -1.11      0.00
   -4   17    2     -1.07      0.00
   -3   17    2     -0.59      0.00
   -2   17    2     -0.04      0.00
   -1  -17    3      0.99      0.00
    0  -17    3      1.84      0.00
    1  -17    3      2.38      0.00
    2  -17    3      2.74      0.00
    3  -17    3      3.07      0.00
    4  -17    3      3.20      0.00
    5  -17    3      3.14      0.00
    6  -17    3      3.14      0.00
    7  -17    3      3.17      0.00
    8  -17    3      2.91      0.00
    9  -17    3      2.27      0.00
   -3  -16    3      0.01      0.00
   -2  -16    3      0.22      0.00
   -1  -16    3      0.83      0.00
    0  -16    3      1.38      0.00
    1  -16    3      1.65      0.00
    2  -16    3      1.91      0.00
    3  -16    3      2.23      0.00
    4  -16    3      2.35      0.00
    5  -16    3      2.28      0.00
    6  -16    3      2.25      0.00
    7  -16    3      2.16      0.00
    8  -16    3      1.82      0.00
    9  -16    3      1.37      0.00
   10  -16    3      1.00      0.00
   11  -16    3      0.75      0.00
   12  -16    3      0.58      0.00
   -4  -15    3     -0.57      0.00
   -3  -15    3     -0.90      0.00
   -2  -15    3     -1.14      0.00
   -1  -15    3     -1.23      0.00
    0  -15    3     -1.40      0.00
    1  -15    3     -1.64      0.00
    2  -15    3     -1.71      0.00
    3  -15    3     -1.70      0.00
    4  -15    3     -1.83      0.00
    5  -15    3     -1.98      0.00
    6  -15    3     -1.96      0.00
    7  -15    3     -1.90      0.00
    8  -15    3     -1.82      0.00
    9  -15    3     -1.49      0.00
   10  -15    3     -0.97      0.00
   11  -15    3     -0.54      0.00
   12  -15    3     -0.29      0.00
   13  -15    3     -0.14      0.00
   -6  -14    3     -0.89      0.00
   -5  -14    3     -1.37      0.00
   -4  -14    3     -1.86      0.00
   -3  -14    3     -2.55      0.00
   -2  -14    3     -3.28      0.00
   -1  -14    3     -3.85      0.00
    0  -14    3     -4.35      0.00
    1  -14    3     -4.85      0.00
    2  -14    3     -5.31      0.00
    3  -14    3     -5.76      0.00
    4  -14    3     -6.17      0.00
    5  -14    3     -6.31      0.00
    6  -14    3     -6.15      0.00
    7  -14    3     -5.87      0.00
    8  -14    3     -5.31      0.00
    9  -14    3     -4.28      0.00
   10  -14    3     -3.13      0.00
   11  -14    3     -2.34      0.00
   12  -14    3     -1.88      0.00
   13  -14    3     -1.47      0.00
   14  -14    3     -1.01      0.00
   -7  -13    3     -0.83      0.00
   -6  -13    3     -1.56      0.00
   -5  -13    3     -2.24      0.00
   -4  -13    3     -2.92      0.00
   -3  -13    3     -3.63      0.00
   -2  -13    3     -4.17      0.00
   -1  -13    3     -4.45      0.00
    0  -13    3     -4.66      0.00
    1  -13    3     -5.04      0.00
    2  -13    3     -5.64      0.00
    3  -13    3     -6.27      0.00
    4  -13    3     -6.69      0.00
    5  -13    3     -6.81      0.00
    6  -13    3     -6.77      0.00
    7  -13    3     -6.56      0.00
    8  -13    3     -5.91      0.00
    9  -13    3     -4.81      0.00
   10  -13    3     -3.87      0.00
   11  -13    3     -3.41      0.00
   12  -13    3     -3.10      0.00
   13  -13    3     -2.59      0.00
   14  -13    3     -1.88      0.00
   15  -13    3     -1.12      0.00
   -8  -12    3     -0.25      0.00
   -7  -12    3     -0.78      0.00
   -6  -12    3     -1.53      0.00
   -5  -12    3     -2.23      0.00
   -4  -12    3     -2.63      0.00
   -3  -12    3     -2.71      0.00
   -2  -12    3     -2.50      0.00
   -1  -12    3     -2.08      0.00
    0  -12    3     -1.65      0.00
    1  -12    3     -1.53      0.00
    2  -12    3     -1.82      0.00
    3  -12    3     -2.23      0.00
    4  -12    3     -2.51      0.00
    5  -12    3     -2.74      0.00
    6  -12    3     -3.02      0.00
    7  -12    3     -3.16      0.00
    8  -12    3     -2.96      0.00
    9  -12    3     -2.66      0.00
   10  -12    3     -2.65      0.00
   11  -12    3     -2.79      0.00
   12  -12    3     -2.72      0.00
   13  -12    3     -2.37      0.00
   14  -12    3     -1.87      0.00
   15  -12    3     -1.24      0.00
   -9  -11    3      0.50      0.00
   -8  -11    3      0.39      0.00
   -7  -11    3     -0.09      0.00
   -6  -11    3     -0.75      0.00
   -5  -11    3     -1.05      0.00
   -4  -11    3     -0.72      0.00
   -3  -11    3      0.02      0.00
   -2  -11    3      0.92      0.00
   -1  -11    3      2.04      0.00
    0  -11    3      3.23      0.00
    1  -11    3      4.02      0.00
    2  -11    3      4.24      0.00
    3  -11    3      4.20      0.00
    4  -11    3      4.09      0.00
    5  -11    3      3.76      0.00
    6  -11    3      3.16      0.00
    7  -11    3      2.48      0.00
    8  -11    3      1.75      0.00
    9  -11    3      0.89      0.00
   10  -11    3      0.05      0.00
   11  -11    3     -0.45      0.00
   12  -11    3     -0.66      0.00
   13  -11    3     -0.86      0.00
   14  -11    3     -0.98      0.00
   15  -11    3     -0.80      0.00
  -10  -10    3      1.07      0.00
   -9  -10    3      1.35      0.00
   -8  -10    3      1.25      0.00
   -7  -10    3      0.80      0.00
   -6  -10    3      0.39      0.00
   -5  -10    3      0.62      0.00
   -4  -10    3      1.54      0.00
   -3  -10    3      2.76      0.00
   -2  -10    3      4.09      0.00
   -1  -10    3      5.65      0.00
    0  -10    3      7.30      0.00
    1  -10    3      8.50      0.00
    2  -10    3      9.10      0.00
    3  -10    3      9.41      0.00
    4  -10    3      9.50      0.00
    5  -10    3      9.15      0.00
    6  -10    3      8.31      0.00
    7  -10    3      7.10      0.00
    8  -10    3      5.60      0.00
    9  -10    3      4.09      0.00
   10  -10    3      2.96      0.00
   11  -10    3      2.26      0.00
   12  -10    3      1.64      0.00
   13  -10    3      0.91      0.00
   14  -10    3      0.33      0.00
   15  -10    3      0.10      0.00
  -11   -9    3      1.16      0.00
  -10   -9    3      1.64      0.00
   -9   -9    3      1.92      0.00
   -8   -9    3      1.80      0.00
   -7   -9    3      1.32      0.00
   -6   -9    3      0.95      0.00
   -5   -9    3      1.31      0.00
   -4   -9    3      2.36      0.00
   -3   -9    3      3.63      0.00
   -2   -9    3      4.89      0.00
   -1   -9    3      6.26      0.00
    0   -9    3      7.68      0.00
    1   -9    3      8.76      0.00
    2   -9    3      9.44      0.00
    3   -9    3      9.96      0.00
    4   -9    3     10.29      0.00
    5   -9    3     10.10      0.00
    6   -9    3      9.35      0.00
    7   -9    3      8.12      0.00
    8   -9    3      6.64      0.00
    9   -9    3      5.27      0.00
   10   -9    3      4.27      0.00
   11   -9    3      3.53      0.00
   12   -9    3      2.82      0.00
   13   -9    3      2.12      0.00
   14   -9    3      1.53      0.00
   15   -9    3      1.03      0.00
   16   -9    3      0.56      0.00
  -12   -8    3      0.94      0.00
  -11   -8    3      1.27      0.00
  -10   -8    3      1.71      0.00
   -9   -8    3      1.97      0.00
   -8   -8    3      1.64      0.00
   -7   -8    3      0.74      0.00
   -6   -8    3      0.00      0.00
   -5   -8    3      0.12      0.00
   -4   -8    3      0.91      0.00
   -3   -8    3      1.71      0.00
   -2   -8    3      2.24      0.00
   -1   -8    3      2.73      0.00
    0   -8    3      3.23      0.00
    1   -8    3      3.56      0.00
    2   -8    3      3.82      0.00
    3   -8    3      4.42      0.00
    4   -8    3      5.25      0.00
    5   -8    3      5.78      0.00
    6   -8    3      5.72      0.00
    7   -8    3      5.13      0.00
    8   -8    3      4.29      0.00
    9   -8    3      3.57      0.00
   10   -8    3      3.13      0.00
   11   -8    3      2.89      0.00
   12   -8    3      2.70      0.00
   13   -8    3      2.41      0.00
   14   -8    3      1.95      0.00
   15   -8    3      1.31      0.00
   16   -8    3      0.68      0.00
  -13   -7    3      0.47      0.00
  -12   -7    3      0.68      0.00
  -11   -7    3      1.02      0.00
  -10   -7    3      1.38      0.00
   -9   -7    3      1.27      0.00
   -8   -7    3      0.29      0.00
   -7   -7    3     -1.23      0.00
   -6   -7    3     -2.31      0.00
   -5   -7    3     -2.39      0.00
   -4   -7    3     -1.99      0.00
   -3   -7    3     -1.94      0.00
   -2   -7    3     -2.46      0.00
   -1   -7    3     -3.36      0.00
    0   -7    3     -4.44      0.00
    1   -7    3     -5.50      0.00
    2   -7    3     -5.79      0.00
    3   -7    3     -4.71      0.00
    4   -7    3     -2.78      0.00
    5   -7    3     -1.10      0.00
    6   -7    3     -0.24      0.00
    7   -7    3     -0.07      0.00
    8   -7    3     -0.10      0.00
    9   -7    3      0.09      0.00
   10   -7    3      0.59      0.00
   11   -7    3      1.22      0.00
   12   -7    3      1.66      0.00
   13   -7    3      1.69      0.00
   14   -7    3      1.30      0.00
   15   -7    3      0.66      0.00
   16   -7    3      0.11      0.00
  -13   -6    3     -0.04      0.00
  -12   -6    3      0.25      0.00
  -11   -6    3      0.56      0.00
  -10   -6    3      0.47      0.00
   -9   -6    3     -0.37      0.00
   -8   -6    3     -1.98      0.00
   -7   -6    3     -3.74      0.00
   -6   -6    3     -4.63      0.00
   -5   -6    3     -4.40      0.00
   -4   -6    3     -3.95      0.00
   -3   -6    3     -4.39      0.00
   -2   -6    3     -6.17      0.00
   -1   -6    3     -9.02      0.00
    0   -6    3    -12.11      0.00
    1   -6    3    -14.20      0.00
    2   -6    3    -14.09      0.00
    3   -6    3    -11.68      0.00
    4   -6    3     -8.41      0.00
    5   -6    3     -5.94      0.00
    6   -6    3     -4.71      0.00
    7   -6    3     -4.24      0.00
    8   -6    3     -3.81      0.00
    9   -6    3     -2.92      0.00
   10   -6    3     -1.66      0.00
   11   -6    3     -0.46      0.00
   12   -6    3      0.27      0.00
   13   -6    3      0.39      0.00
   14   -6    3      0.02      0.00
   15   -6    3     -0.55      0.00
   16   -6    3     -0.83      0.00
  -14   -5    3     -0.59      0.00
  -13   -5    3     -0.45      0.00
  -12   -5    3     -0.13      0.00
  -11   -5    3     -0.19      0.00
  -10   -5    3     -0.97      0.00
   -9   -5    3     -2.36      0.00
   -8   -5    3     -4.04      0.00
   -7   -5    3     -5.33      0.00
   -6   -5    3     -5.25      0.00
   -5   -5    3     -3.81      0.00
   -4   -5    3     -2.61      0.00
   -3   -5    3     -3.44      0.00
   -2   -5    3     -6.91      0.00
   -1   -5    3    -11.92      0.00
    0   -5    3    -16.18      0.00
    1   -5    3    -17.59      0.00
    2   -5    3    -15.50      0.00
    3   -5    3    -11.22      0.00
    4   -5    3     -7.23      0.00
    5   -5    3     -5.16      0.00
    6   -5    3     -4.82      0.00
    7   -5    3     -5.10      0.00
    8   -5    3     -4.98      0.00
    9   -5    3     -4.03      0.00
   10   -5    3     -2.61      0.00
   11   -5    3     -1.41      0.00
   12   -5    3     -0.81      0.00
   13   -5    3     -0.83      0.00
   14   -5    3     -1.25      0.00
   15   -5    3     -1.65      0.00
   16   -5    3     -1.49      0.00
  -14   -4    3     -0.74      0.00
  -13   -4    3     -0.49      0.00
  -12   -4    3     -0.37      0.00
  -11   -4    3     -0.99      0.00
  -10   -4    3     -2.28      0.00
   -9   -4    3     -3.73      0.00
   -8   -4    3     -4.89      0.00
   -7   -4    3     -4.98      0.00
   -6   -4    3     -3.10      0.00
   -5   -4    3      0.03      0.00
   -4   -4    3      1.85      0.00
   -3   -4    3      0.14      0.00
   -2   -4    3     -5.10      0.00
   -1   -4    3    -11.27      0.00
    0   -4    3    -14.62      0.00
    1   -4    3    -13.08      0.00
    2   -4    3     -7.86      0.00
    3   -4    3     -2.19      0.00
    4   -4    3      0.95      0.00
    5   -4    3      0.80      0.00
    6   -4    3     -1.18      0.00
    7   -4    3     -3.10      0.00
    8   -4    3     -3.79      0.00
    9   -4    3     -3.19      0.00
   10   -4    3     -2.11      0.00
   11   -4    3     -1.39      0.00
   12   -4    3     -1.31      0.00
   13   -4    3     -1.67      0.00
   14   -4    3     -2.11      0.00
   15   -4    3     -2.19      0.00
   16   -4    3     -1.58      0.00
  -15   -3    3     -0.56      0.00
  -14   -3    3     -0.41      0.00
  -13   -3    3     -0.06      0.00
  -12   -3    3     -0.34      0.00
  -11   -3    3     -1.50      0.00
  -10   -3    3     -3.00      0.00
   -9   -3    3     -4.09      0.00
   -8   -3    3     -4.18      0.00
   -7   -3    3     -2.51      0.00
   -6   -3    3      1.15      0.00
   -5   -3    3      5.07      0.00
   -4   -3    3      6.28      0.00
   -3   -3    3      3.06      0.00
   -2   -3    3     -3.36      0.00
   -1   -3    3     -8.77      0.00
    0   -3    3     -8.64      0.00
    1   -3    3     -2.47      0.00
    2   -3    3      5.58      0.00
    3   -3    3     10.66      0.00
    4   -3    3     10.77      0.00
    5   -3    3      7.20      0.00
    6   -3    3      2.79      0.00
    7   -3    3     -0.32      0.00
    8   -3    3     -1.47      0.00
    9   -3    3     -1.23      0.00
   10   -3    3     -0.76      0.00
   11   -3    3     -0.81      0.00
   12   -3    3     -1.35      0.00
   13   -3    3     -2.01      0.00
   14   -3    3     -2.36      0.00
   15   -3    3     -2.10      0.00
   16   -3    3     -1.29      0.00
  -15   -2    3     -0.07      0.00
  -14   -2    3      0.46      0.00
  -13   -2    3      0.61      0.00
  -12   -2    3     -0.24      0.00
  -11   -2    3     -1.76      0.00
  -10   -2    3     -3.09      0.00
   -9   -2    3     -3.42      0.00
   -8   -2    3     -2.18      0.00
   -7   -2    3      0.87      0.00
   -6   -2    3      4.92      0.00
   -5   -2    3      7.68      0.00
   -4   -2    3      6.73      0.00
   -3   -2    3      1.63      0.00
   -2   -2    3     -4.83      0.00
   -1   -2    3     -7.22      0.00
    0   -2    3     -1.84      0.00
    1   -2    3      8.53      0.00
    2   -2    3     16.86      0.00
    3   -2    3     18.76      0.00
    4   -2    3     15.03      0.00
    5   -2    3      9.17      0.00
    6   -2    3      4.22      0.00
    7   -2    3      1.44      0.00
    8   -2    3      0.57      0.00
    9   -2    3      0.62      0.00
   10   -2    3      0.55      0.00
   11   -2    3     -0.10      0.00
   12   -2    3     -1.05      0.00
   13   -2    3     -1.81      0.00
   14   -2    3     -1.99      0.00
   15   -2    3     -1.54      0.00
   16   -2    3     -0.77      0.00
  -16   -1    3      0.29      0.00
  -15   -1    3      0.95      0.00
  -14   -1    3      1.49      0.00
  -13   -1    3      1.09      0.00
  -12   -1    3     -0.23      0.00
  -11   -1    3     -1.67      0.00
  -10   -1    3     -2.44      0.00
   -9   -1    3     -1.92      0.00
   -8   -1    3      0.13      0.00
   -7   -1    3      3.14      0.00
   -6   -1    3      5.62      0.00
   -5   -1    3      5.54      0.00
   -4   -1    3      1.75      0.00
   -3   -1    3     -4.58      0.00
   -2   -1    3     -9.38      0.00
   -1   -1    3     -7.50      0.00
    0   -1    3      2.05      0.00
    1   -1    3     13.23      0.00
    2   -1    3     18.70      0.00
    3   -1    3     16.92      0.00
    4   -1    3     11.45      0.00
    5   -1    3      6.14      0.00
    6   -1    3      2.79      0.00
    7   -1    3      1.51      0.00
    8   -1    3      1.49      0.00
    9   -1    3      1.70      0.00
   10   -1    3      1.39      0.00
   11   -1    3      0.45      0.00
   12   -1    3     -0.65      0.00
   13   -1    3     -1.31      0.00
   14   -1    3     -1.24      0.00
   15   -1    3     -0.68      0.00
  -16    0    3      1.17      0.00
  -15    0    3      2.01      0.00
  -14    0    3      2.16      0.00
  -13    0    3      1.29      0.00
  -12    0    3     -0.06      0.00
  -11    0    3     -1.08      0.00
  -10    0    3     -1.24      0.00
   -9    0    3     -0.25      0.00
   -8    0    3      1.63      0.00
   -7    0    3      3.25      0.00
   -6    0    3      3.12      0.00
   -5    0    3      0.13      0.00
   -4    0    3     -5.41      0.00
   -3    0    3    -11.12      0.00
   -2    0    3    -13.06      0.00
   -1    0    3     -8.24      0.00
    0    0    3      1.50      0.00
    1    0    3      9.67      0.00
    2    0    3     11.55      0.00
    3    0    3      8.35      0.00
    4    0    3      4.04      0.00
    5    0    3      1.13      0.00
    6    0    3      0.21      0.00
    7    0    3      0.77      0.00
    8    0    3      1.74      0.00
    9    0    3      2.15      0.00
   10    0    3      1.63      0.00
   11    0    3      0.51      0.00
   12    0    3     -0.50      0.00
   13    0    3     -0.82      0.00
   14    0    3     -0.45      0.00
   15    0    3      0.05      0.00
  -17    1    3      0.86      0.00
  -16    1    3      1.90      0.00
  -15    1    3      2.51      0.00
  -14    1    3      2.29      0.00
  -13    1    3      1.32      0.00
  -12    1    3      0.25      0.00
  -11    1    3     -0.35      0.00
  -10    1    3     -0.14      0.00
   -9    1    3      0.91      0.00
   -8    1    3      2.08      0.00
   -7    1    3      2.10      0.00
   -6    1    3      0.00      0.00
   -5    1    3     -4.22      0.00
   -4    1    3     -9.26      0.00
   -3    1    3    -12.73      0.00
   -2    1    3    -12.37      0.00
   -1    1    3     -7.65      0.00
    0    1    3     -1.13      0.00
    1    1    3      2.97      0.00
    2    1    3      2.79      0.00
    3    1    3      0.30      0.00
    4    1    3     -1.80      0.00
    5    1    3     -2.25      0.00
    6    1    3     -1.09      0.00
    7    1    3      0.73      0.00
    8    1    3      1.98      0.00
    9    1    3      2.07      0.00
   10    1    3      1.23      0.00
   11    1    3      0.12      0.00
   12    1    3     -0.56      0.00
   13    1    3     -0.50      0.00
   14    1    3     -0.03      0.00
   15    1    3      0.25      0.00
  -17    2    3      1.10      0.00
  -16    2    3      1.90      0.00
  -15    2    3      2.16      0.00
  -14    2    3      1.77      0.00
  -13    2    3      0.98      0.00
  -12    2    3      0.22      0.00
  -11    2    3     -0.08      0.00
  -10    2    3      0.34      0.00
   -9    2    3      1.35      0.00
   -8    2    3      2.03      0.00
   -7    2    3      1.31      0.00
   -6    2    3     -1.08      0.00
   -5    2    3     -4.45      0.00
   -4    2    3     -7.41      0.00
   -3    2    3     -8.57      0.00
   -2    2    3     -7.44      0.00
   -1    2    3     -4.66      0.00
    0    2    3     -1.82      0.00
    1    2    3     -0.73      0.00
    2    2    3     -1.66      0.00
    3    2    3     -3.10      0.00
    4    2    3     -3.43      0.00
    5    2    3     -2.21      0.00
    6    2    3     -0.10      0.00
    7    2    3      1.61      0.00
    8    2    3      2.11      0.00
    9    2    3      1.55      0.00
   10    2    3      0.56      0.00
   11    2    3     -0.28      0.00
   12    2    3     -0.59      0.00
   13    2    3     -0.38      0.00
   14    2    3     -0.03      0.00
  -17    3    3      0.73      0.00
  -16    3    3      1.10      0.00
  -15    3    3      1.01      0.00
  -14    3    3      0.60      0.00
  -13    3    3      0.06      0.00
  -12    3    3     -0.41      0.00
  -11    3    3     -0.48      0.00
  -10    3    3      0.09      0.00
   -9    3    3      1.13      0.00
   -8    3    3      1.80      0.00
   -7    3    3      1.40      0.00
   -6    3    3      0.06      0.00
   -5    3    3     -1.48      0.00
   -4    3    3     -2.32      0.00
   -3    3    3     -2.03      0.00
   -2    3    3     -1.07      0.00
   -1    3    3     -0.21      0.00
    0    3    3      0.07      0.00
    1    3    3     -0.49      0.00
    2    3    3     -1.55      0.00
    3    3    3     -2.10      0.00
    4    3    3     -1.43      0.00
    5    3    3      0.20      0.00
    6    3    3      1.82      0.00
    7    3    3      2.43      0.00
    8    3    3      1.92      0.00
    9    3    3      0.90      0.00
   10    3    3     -0.02      0.00
   11    3    3     -0.55      0.00
   12    3    3     -0.62      0.00
   13    3    3     -0.38      0.00
   14    3    3     -0.11      0.00
  -17    4    3      0.01      0.00
  -16    4    3     -0.08      0.00
  -15    4    3     -0.44      0.00
  -14    4    3     -0.86      0.00
  -13    4    3     -1.23      0.00
  -12    4    3     -1.49      0.00
  -11    4    3     -1.42      0.00
  -10    4    3     -0.81      0.00
   -9    4    3      0.24      0.00
   -8    4    3      1.12      0.00
   -7    4    3      1.37      0.00
   -6    4    3      1.22      0.00
   -5    4    3      1.18      0.00
   -4    4    3      1.67      0.00
   -3    4    3      2.53      0.00
   -2    4    3      3.02      0.00
   -1    4    3      2.68      0.00
    0    4    3      1.89      0.00
    1    4    3      1.10      0.00
    2    4    3      0.62      0.00
    3    4    3      0.70      0.00
    4    4    3      1.41      0.00
    5    4    3      2.39      0.00
    6    4    3      2.94      0.00
    7    4    3      2.55      0.00
    8    4    3      1.39      0.00
    9    4    3      0.17      0.00
   10    4    3     -0.59      0.00
   11    4    3     -0.83      0.00
   12    4    3     -0.70      0.00
   13    4    3     -0.40      0.00
  -17    5    3     -0.52      0.00
  -16    5    3     -0.96      0.00
  -15    5    3     -1.59      0.00
  -14    5    3     -2.11      0.00
  -13    5    3     -2.46      0.00
  -12    5    3     -2.65      0.00
  -11    5    3     -2.60      0.00
  -10    5    3     -2.11      0.00
   -9    5    3     -1.21      0.00
   -8    5    3     -0.37      0.00
   -7    5    3      0.05      0.00
   -6    5    3      0.30      0.00
   -5    5    3      0.80      0.00
   -4    5    3      1.65      0.00
   -3    5    3      2.44      0.00
   -2    5    3      2.58      0.00
   -1    5    3      2.11      0.00
    0    5    3      1.75      0.00
    1    5    3      1.80      0.00
    2    5    3      2.03      0.00
    3    5    3      2.26      0.00
    4    5    3      2.57      0.00
    5    5    3      2.90      0.00
    6    5    3      2.80      0.00
    7    5    3      1.88      0.00
    8    5    3      0.48      0.00
    9    5    3     -0.63      0.00
   10    5    3     -1.06      0.00
   11    5    3     -0.99      0.00
   12    5    3     -0.73      0.00
   13    5    3     -0.40      0.00
  -17    6    3     -0.54      0.00
  -16    6    3     -1.24      0.00
  -15    6    3     -2.10      0.00
  -14    6    3     -2.74      0.00
  -13    6    3     -3.09      0.00
  -12    6    3     -3.31      0.00
  -11    6    3     -3.43      0.00
  -10    6    3     -3.24      0.00
   -9    6    3     -2.73      0.00
   -8    6    3     -2.40      0.00
   -7    6    3     -2.53      0.00
   -6    6    3     -2.73      0.00
   -5    6    3     -2.60      0.00
   -4    6    3     -2.12      0.00
   -3    6    3     -1.62      0.00
   -2    6    3     -1.34      0.00
   -1    6    3     -1.06      0.00
    0    6    3     -0.43      0.00
    1    6    3      0.38      0.00
    2    6    3      0.99      0.00
    3    6    3      1.37      0.00
    4    6    3      1.72      0.00
    5    6    3      1.96      0.00
    6    6    3      1.65      0.00
    7    6    3      0.64      0.00
    8    6    3     -0.50      0.00
    9    6    3     -1.08      0.00
   10    6    3     -1.06      0.00
   11    6    3     -0.83      0.00
   12    6    3     -0.59      0.00
  -17    7    3     -0.25      0.00
  -16    7    3     -1.05      0.00
  -15    7    3     -1.90      0.00
  -14    7    3     -2.42      0.00
  -13    7    3     -2.68      0.00
  -12    7    3     -2.94      0.00
  -11    7    3     -3.24      0.00
  -10    7    3     -3.38      0.00
   -9    7    3     -3.42      0.00
   -8    7    3     -3.85      0.00
   -7    7    3     -4.79      0.00
   -6    7    3     -5.74      0.00
   -5    7    3     -6.32      0.00
   -4    7    3     -6.46      0.00
   -3    7    3     -6.20      0.00
   -2    7    3     -5.63      0.00
   -1    7    3     -4.76      0.00
    0    7    3     -3.67      0.00
    1    7    3     -2.56      0.00
    2    7    3     -1.56      0.00
    3    7    3     -0.71      0.00
    4    7    3     -0.03      0.00
    5    7    3      0.33      0.00
    6    7    3      0.12      0.00
    7    7    3     -0.50      0.00
    8    7    3     -0.94      0.00
    9    7    3     -0.88      0.00
   10    7    3     -0.61      0.00
   11    7    3     -0.43      0.00
  -17    8    3      0.02      0.00
  -16    8    3     -0.57      0.00
  -15    8    3     -1.06      0.00
  -14    8    3     -1.21      0.00
  -13    8    3     -1.24      0.00
  -12    8    3     -1.39      0.00
  -11    8    3     -1.69      0.00
  -10    8    3     -2.02      0.00
   -9    8    3     -2.49      0.00
   -8    8    3     -3.45      0.00
   -7    8    3     -4.81      0.00
   -6    8    3     -6.18      0.00
   -5    8    3     -7.29      0.00
   -4    8    3     -7.97      0.00
   -3    8    3     -8.02      0.00
   -2    8    3     -7.58      0.00
   -1    8    3     -6.82      0.00
    0    8    3     -5.78      0.00
    1    8    3     -4.53      0.00
    2    8    3     -3.26      0.00
    3    8    3     -2.21      0.00
    4    8    3     -1.47      0.00
    5    8    3     -1.00      0.00
    6    8    3     -0.83      0.00
    7    8    3     -0.85      0.00
    8    8    3     -0.69      0.00
    9    8    3     -0.34      0.00
   10    8    3     -0.10      0.00
  -16    9    3      0.01      0.00
  -15    9    3      0.05      0.00
  -14    9    3      0.33      0.00
  -13    9    3      0.67      0.00
  -12    9    3      0.87      0.00
  -11    9    3      0.83      0.00
  -10    9    3      0.56      0.00
   -9    9    3      0.04      0.00
   -8    9    3     -0.85      0.00
   -7    9    3     -2.06      0.00
   -6    9    3     -3.40      0.00
   -5    9    3     -4.69      0.00
   -4    9    3     -5.63      0.00
   -3    9    3     -6.05      0.00
   -2    9    3     -6.07      0.00
   -1    9    3     -5.73      0.00
    0    9    3     -4.97      0.00
    1    9    3     -3.93      0.00
    2    9    3     -2.94      0.00
    3    9    3     -2.22      0.00
    4    9    3     -1.63      0.00
    5    9    3     -1.05      0.00
    6    9    3     -0.62      0.00
    7    9    3     -0.38      0.00
    8    9    3     -0.10      0.00
    9    9    3      0.14      0.00
  -16   10    3      0.40      0.00
  -15   10    3      0.83      0.00
  -14   10    3      1.46      0.00
  -13   10    3      2.19      0.00
  -12   10    3      2.85      0.00
  -11   10    3      3.22      0.00
  -10   10    3      3.30      0.00
   -9   10    3      3.19      0.00
   -8   10    3      2.77      0.00
   -7   10    3      1.99      0.00
   -6   10    3      1.00      0.00
   -5   10    3     -0.04      0.00
   -4   10    3     -0.93      0.00
   -3   10    3     -1.59      0.00
   -2   10    3     -2.02      0.00
   -1   10    3     -2.11      0.00
    0   10    3     -1.83      0.00
    1   10    3     -1.38      0.00
    2   10    3     -0.99      0.00
    3   10    3     -0.68      0.00
    4   10    3     -0.30      0.00
    5   10    3      0.16      0.00
    6   10    3      0.43      0.00
    7   10    3      0.43      0.00
    8   10    3      0.38      0.00
    9   10    3      0.30      0.00
  -15   11    3      0.94      0.00
  -14   11    3      1.69      0.00
  -13   11    3      2.60      0.00
  -12   11    3      3.56      0.00
  -11   11    3      4.32      0.00
  -10   11    3      4.89      0.00
   -9   11    3      5.32      0.00
   -8   11    3      5.40      0.00
   -7   11    3      5.14      0.00
   -6   11    3      4.75      0.00
   -5   11    3      4.22      0.00
   -4   11    3      3.55      0.00
   -3   11    3      2.83      0.00
   -2   11    3      2.22      0.00
   -1   11    3      1.86      0.00
    0   11    3      1.69      0.00
    1   11    3      1.59      0.00
    2   11    3      1.54      0.00
    3   11    3      1.52      0.00
    4   11    3      1.56      0.00
    5   11    3      1.59      0.00
    6   11    3      1.38      0.00
    7   11    3      0.89      0.00
    8   11    3      0.42      0.00
  -15   12    3      0.49      0.00
  -14   12    3      1.02      0.00
  -13   12    3      1.73      0.00
  -12   12    3      2.63      0.00
  -11   12    3      3.52      0.00
  -10   12    3      4.36      0.00
   -9   12    3      5.11      0.00
   -8   12    3      5.59      0.00
   -7   12    3      5.84      0.00
   -6   12    3      6.01      0.00
   -5   12    3      5.96      0.00
   -4   12    3      5.59      0.00
   -3   12    3      5.09      0.00
   -2   12    3      4.64      0.00
   -1   12    3      4.26      0.00
    0   12    3      3.90      0.00
    1   12    3      3.54      0.00
    2   12    3      3.23      0.00
    3   12    3      2.88      0.00
    4   12    3      2.49      0.00
    5   12    3      2.04      0.00
    6   12    3      1.42      0.00
  -14   13    3      0.03      0.00
  -13   13    3      0.20      0.00
  -12   13    3      0.64      0.00
  -11   13    3      1.24      0.00
  -10   13    3      1.95      0.00
   -9   13    3      2.69      0.00
   -8   13    3      3.22      0.00
   -7   13    3      3.61      0.00
   -6   13    3      4.06      0.00
   -5   13    3      4.40      0.00
   -4   13    3      4.47      0.00
   -3   13    3      4.42      0.00
   -2   13    3      4.33      0.00
   -1   13    3      4.17      0.00
    0   13    3      3.89      0.00
    1   13    3      3.54      0.00
    2   13    3      3.14      0.00
    3   13    3      2.59      0.00
    4   13    3      1.92      0.00
    5   13    3      1.28      0.00
  -14   14    3     -0.62      0.00
  -13   14    3     -0.97      0.00
  -12   14    3     -1.05      0.00
  -11   14    3     -0.95      0.00
  -10   14    3     -0.71      0.00
   -9   14    3     -0.48      0.00
   -8   14    3     -0.46      0.00
   -7   14    3     -0.34      0.00
   -6   14    3      0.19      0.00
   -5   14    3      0.84      0.00
   -4   14    3      1.27      0.00
   -3   14    3      1.59      0.00
   -2   14    3      1.91      0.00
   -1   14    3      2.15      0.00
    0   14    3      2.19      0.00
    1   14    3      2.04      0.00
    2   14    3      1.74      0.00
    3   14    3      1.23      0.00
  -13   15    3     -1.06      0.00
  -12   15    3     -1.34      0.00
  -11   15    3     -1.61      0.00
  -10   15    3     -1.99      0.00
   -9   15    3     -2.53      0.00
   -8   15    3     -3.14      0.00
   -7   15    3     -3.27      0.00
   -6   15    3     -2.73      0.00
   -5   15    3     -2.09      0.00
   -4   15    3     -1.67      0.00
   -3   15    3     -1.19      0.00
   -2   15    3     -0.50      0.00
   -1   15    3      0.13      0.00
    0   15    3      0.45      0.00
    1   15    3      0.48      0.00
    2   15    3      0.34      0.00
   -9   16    3     -2.39      0.00
   -8   16    3     -3.13      0.00
   -7   16    3     -3.29      0.00
   -6   16    3     -2.92      0.00
   -5   16    3     -2.62      0.00
   -4   16    3     -2.44      0.00
   -3   16    3     -1.94      0.00
   -2   16    3     -1.16      0.00
   -1   16    3     -0.51      0.00
   -4   17    3     -1.32      0.00
    8  -18    4     -0.17      0.00
   -2  -17    4     -1.19      0.00
   -1  -17    4     -1.00      0.00
    0  -17    4     -0.34      0.00
    1  -17    4      0.12      0.00
    2  -17    4      0.36      0.00
    3  -17    4      0.79      0.00
    4  -17    4      1.36      0.00
    5  -17    4      1.63      0.00
    6  -17    4      1.48      0.00
    7  -17    4      1.25      0.00
    8  -17    4      1.18      0.00
    9  -17    4      1.14      0.00
   -3  -16    4     -1.35      0.00
   -2  -16    4     -1.67      0.00
   -1  -16    4     -1.23      0.00
    0  -16    4     -0.47      0.00
    1  -16    4      0.02      0.00
    2  -16    4      0.41      0.00
    3  -16    4      1.06      0.00
    4  -16    4      1.72      0.00
    5  -16    4      2.04      0.00
    6  -16    4      2.13      0.00
    7  -16    4      2.09      0.00
    8  -16    4      1.89      0.00
    9  -16    4      1.50      0.00
   10  -16    4      0.93      0.00
   11  -16    4      0.37      0.00
   12  -16    4      0.09      0.00
   -5  -15    4     -0.55      0.00
   -4  -15    4     -1.04      0.00
   -3  -15    4     -1.57      0.00
   -2  -15    4     -1.80      0.00
   -1  -15    4     -1.52      0.00
    0  -15    4     -1.08      0.00
    1  -15    4     -0.77      0.00
    2  -15    4     -0.42      0.00
    3  -15    4      0.05      0.00
    4  -15    4      0.44      0.00
    5  -15    4      0.71      0.00
    6  -15    4      0.92      0.00
    7  -15    4      0.87      0.00
    8  -15    4      0.54      0.00
    9  -15    4      0.29      0.00
   10  -15    4      0.25      0.00
   11  -15    4      0.22      0.00
   12  -15    4      0.15      0.00
   13  -15    4      0.13      0.00
   -6  -14    4     -0.20      0.00
   -5  -14    4     -0.52      0.00
   -4  -14    4     -0.96      0.00
   -3  -14    4     -1.54      0.00
   -2  -14    4     -2.07      0.00
   -1  -14    4     -2.28      0.00
    0  -14    4     -2.23      0.00
    1  -14    4     -2.16      0.00
    2  -14    4     -2.17      0.00
    3  -14    4     -2.23      0.00
    4  -14    4     -2.24      0.00
    5  -14    4     -2.03      0.00
    6  -14    4     -1.78      0.00
    7  -14    4     -1.80      0.00
    8  -14    4     -1.86      0.00
    9  -14    4     -1.49      0.00
   10  -14    4     -0.85      0.00
   11  -14    4     -0.48      0.00
   12  -14    4     -0.40      0.00
   13  -14    4     -0.28      0.00
   14  -14    4     -0.06      0.00
   -7  -13    4      0.45      0.00
   -6  -13    4      0.36      0.00
   -5  -13    4     -0.02      0.00
   -4  -13    4     -0.67      0.00
   -3  -13    4     -1.53      0.00
   -2  -13    4     -2.34      0.00
   -1  -13    4     -2.82      0.00
    0  -13    4     -2.98      0.00
    1  -13    4     -3.18      0.00
    2  -13    4     -3.61      0.00
    3  -13    4     -4.11      0.00
    4  -13    4     -4.27      0.00
    5  -13    4     -4.02      0.00
    6  -13    4     -3.71      0.00
    7  -13    4     -3.56      0.00
    8  -13    4     -3.24      0.00
    9  -13    4     -2.51      0.00
   10  -13    4     -1.78      0.00
   11  -13    4     -1.41      0.00
   12  -13    4     -1.19      0.00
   13  -13    4     -0.82      0.00
   14  -13    4     -0.37      0.00
   -8  -12    4      0.89      0.00
   -7  -12    4      1.33      0.00
   -6  -12    4      1.25      0.00
   -5  -12    4      0.63      0.00
   -4  -12    4     -0.17      0.00
   -3  -12    4     -0.92      0.00
   -2  -12    4     -1.54      0.00
   -1  -12    4     -1.94      0.00
    0  -12    4     -2.12      0.00
    1  -12    4     -2.37      0.00
    2  -12    4     -2.90      0.00
    3  -12    4     -3.42      0.00
    4  -12    4     -3.52      0.00
    5  -12    4     -3.23      0.00
    6  -12    4     -2.94      0.00
    7  -12    4     -2.78      0.00
    8  -12    4     -2.50      0.00
    9  -12    4     -2.09      0.00
   10  -12    4     -1.79      0.00
   11  -12    4     -1.61      0.00
   12  -12    4     -1.32      0.00
   13  -12    4     -0.90      0.00
   14  -12    4     -0.46      0.00
   -9  -11    4      0.94      0.00
   -8  -11    4      1.76      0.00
   -7  -11    4      2.23      0.00
   -6  -11    4      1.96      0.00
   -5  -11    4      1.33      0.00
   -4  -11    4      0.92      0.00
   -3  -11    4      0.82      0.00
   -2  -11    4      0.73      0.00
   -1  -11    4      0.69      0.00
    0  -11    4      0.86      0.00
    1  -11    4      0.98      0.00
    2  -11    4      0.76      0.00
    3  -11    4      0.49      0.00
    4  -11    4      0.52      0.00
    5  -11    4      0.75      0.00
    6  -11    4      0.81      0.00
    7  -11    4      0.61      0.00
    8  -11    4      0.27      0.00
    9  -11    4     -0.13      0.00
   10  -11    4     -0.48      0.00
   11  -11    4     -0.57      0.00
   12  -11    4     -0.44      0.00
   13  -11    4     -0.32      0.00
   14  -11    4     -0.20      0.00
   15  -11    4     -0.01      0.00
  -10  -10    4      0.85      0.00
   -9  -10    4      1.65      0.00
   -8  -10    4      2.37      0.00
   -7  -10    4      2.56      0.00
   -6  -10    4      2.20      0.00
   -5  -10    4      1.89      0.00
   -4  -10    4      2.14      0.00
   -3  -10    4      2.77      0.00
   -2  -10    4      3.35      0.00
   -1  -10    4      3.98      0.00
    0  -10    4      4.84      0.00
    1  -10    4      5.58      0.00
    2  -10    4      5.90      0.00
    3  -10    4      6.05      0.00
    4  -10    4      6.28      0.00
    5  -10    4      6.39      0.00
    6  -10    4      6.07      0.00
    7  -10    4      5.21      0.00
    8  -10    4      3.91      0.00
    9  -10    4      2.52      0.00
   10  -10    4      1.51      0.00
   11  -10    4      1.03      0.00
   12  -10    4      0.77      0.00
   13  -10    4      0.41      0.00
   14  -10    4      0.09      0.00
   15  -10    4      0.02      0.00
  -11   -9    4      0.58      0.00
  -10   -9    4      1.23      0.00
   -9   -9    4      1.91      0.00
   -8   -9    4      2.25      0.00
   -7   -9    4      2.06      0.00
   -6   -9    4      1.56      0.00
   -5   -9    4      1.43      0.00
   -4   -9    4      2.08      0.00
   -3   -9    4      3.21      0.00
   -2   -9    4      4.38      0.00
   -1   -9    4      5.58      0.00
    0   -9    4      6.92      0.00
    1   -9    4      8.19      0.00
    2   -9    4      9.16      0.00
    3   -9    4      9.90      0.00
    4   -9    4     10.44      0.00
    5   -9    4     10.51      0.00
    6   -9    4      9.85      0.00
    7   -9    4      8.34      0.00
    8   -9    4      6.21      0.00
    9   -9    4      4.11      0.00
   10   -9    4      2.62      0.00
   11   -9    4      1.76      0.00
   12   -9    4      1.14      0.00
   13   -9    4      0.55      0.00
   14   -9    4      0.14      0.00
   15   -9    4     -0.04      0.00
  -12   -8    4      0.09      0.00
  -11   -8    4      0.50      0.00
  -10   -8    4      1.06      0.00
   -9   -8    4      1.44      0.00
   -8   -8    4      1.28      0.00
   -7   -8    4      0.50      0.00
   -6   -8    4     -0.45      0.00
   -5   -8    4     -0.80      0.00
   -4   -8    4     -0.21      0.00
   -3   -8    4      0.94      0.00
   -2   -8    4      2.06      0.00
   -1   -8    4      3.06      0.00
    0   -8    4      4.24      0.00
    1   -8    4      5.66      0.00
    2   -8    4      7.13      0.00
    3   -8    4      8.52      0.00
    4   -8    4      9.57      0.00
    5   -8    4      9.91      0.00
    6   -8    4      9.24      0.00
    7   -8    4      7.52      0.00
    8   -8    4      5.19      0.00
    9   -8    4      3.04      0.00
   10   -8    4      1.52      0.00
   11   -8    4      0.64      0.00
   12   -8    4      0.21      0.00
   13   -8    4      0.06      0.00
   14   -8    4      0.09      0.00
   15   -8    4      0.10      0.00
   16   -8    4     -0.06      0.00
  -13   -7    4     -0.26      0.00
  -12   -7    4     -0.23      0.00
  -11   -7    4      0.15      0.00
  -10   -7    4      0.58      0.00
   -9   -7    4      0.54      0.00
   -8   -7    4     -0.34      0.00
   -7   -7    4     -1.94      0.00
   -6   -7    4     -3.56      0.00
   -5   -7    4     -4.40      0.00
   -4   -7    4     -4.28      0.00
   -3   -7    4     -3.78      0.00
   -2   -7    4     -3.54      0.00
   -1   -7    4     -3.57      0.00
    0   -7    4     -3.36      0.00
    1   -7    4     -2.54      0.00
    2   -7    4     -0.99      0.00
    3   -7    4      1.14      0.00
    4   -7    4      3.15      0.00
    5   -7    4      4.20      0.00
    6   -7    4      3.92      0.00
    7   -7    4      2.53      0.00
    8   -7    4      0.71      0.00
    9   -7    4     -0.83      0.00
   10   -7    4     -1.68      0.00
   11   -7    4     -1.77      0.00
   12   -7    4     -1.24      0.00
   13   -7    4     -0.44      0.00
   14   -7    4      0.25      0.00
   15   -7    4      0.51      0.00
   16   -7    4      0.32      0.00
  -13   -6    4     -0.48      0.00
  -12   -6    4     -0.36      0.00
  -11   -6    4      0.12      0.00
  -10   -6    4      0.37      0.00
   -9   -6    4     -0.27      0.00
   -8   -6    4     -1.96      0.00
   -7   -6    4     -4.33      0.00
   -6   -6    4     -6.49      0.00
   -5   -6    4     -7.69      0.00
   -4   -6    4     -8.04      0.00
   -3   -6    4     -8.38      0.00
   -2   -6    4     -9.43      0.00
   -1   -6    4    -11.21      0.00
    0   -6    4    -12.90      0.00
    1   -6    4    -13.31      0.00
    2   -6    4    -11.68      0.00
    3   -6    4     -8.44      0.00
    4   -6    4     -5.19      0.00
    5   -6    4     -3.39      0.00
    6   -6    4     -3.23      0.00
    7   -6    4     -4.06      0.00
    8   -6    4     -5.06      0.00
    9   -6    4     -5.49      0.00
   10   -6    4     -4.99      0.00
   11   -6    4     -3.65      0.00
   12   -6    4     -1.92      0.00
   13   -6    4     -0.37      0.00
   14   -6    4      0.62      0.00
   15   -6    4      0.86      0.00
   16   -6    4      0.53      0.00
  -14   -5    4     -0.21      0.00
  -13   -5    4     -0.25      0.00
  -12   -5    4      0.21      0.00
  -11   -5    4      0.84      0.00
  -10   -5    4      0.79      0.00
   -9   -5    4     -0.43      0.00
   -8   -5    4     -2.70      0.00
   -7   -5    4     -5.38      0.00
   -6   -5    4     -7.38      0.00
   -5   -5    4     -8.05      0.00
   -4   -5    4     -8.06      0.00
   -3   -5    4     -8.85      0.00
   -2   -5    4    -11.48      0.00
   -1   -5    4    -15.68      0.00
    0   -5    4    -19.53      0.00
    1   -5    4    -20.66      0.00
    2   -5    4    -18.21      0.00
    3   -5    4    -13.71      0.00
    4   -5    4     -9.80      0.00
    5   -5    4     -8.01      0.00
    6   -5    4     -7.95      0.00
    7   -5    4     -8.54      0.00
    8   -5    4     -8.79      0.00
    9   -5    4     -7.97      0.00
   10   -5    4     -5.98      0.00
   11   -5    4     -3.45      0.00
   12   -5    4     -1.20      0.00
   13   -5    4      0.30      0.00
   14   -5    4      0.94      0.00
   15   -5    4      0.81      0.00
   16   -5    4      0.32      0.00
  -14   -4    4      0.20      0.00
  -13   -4    4      0.67      0.00
  -12   -4    4      1.53      0.00
  -11   -4    4      2.12      0.00
  -10   -4    4      1.73      0.00
   -9   -4    4      0.20      0.00
   -8   -4    4     -2.05      0.00
   -7   -4    4     -4.01      0.00
   -6   -4    4     -4.43      0.00
   -5   -4    4     -3.12      0.00
   -4   -4    4     -1.82      0.00
   -3   -4    4     -2.82      0.00
   -2   -4    4     -7.19      0.00
   -1   -4    4    -13.49      0.00
    0   -4    4    -18.26      0.00
    1   -4    4    -18.61      0.00
    2   -4    4    -14.80      0.00
    3   -4    4     -9.85      0.00
    4   -4    4     -6.80      0.00
    5   -4    4     -6.45      0.00
    6   -4    4     -7.52      0.00
    7   -4    4     -8.44      0.00
    8   -4    4     -8.18      0.00
    9   -4    4     -6.40      0.00
   10   -4    4     -3.66      0.00
   11   -4    4     -1.07      0.00
   12   -4    4      0.57      0.00
   13   -4    4      1.13      0.00
   14   -4    4      0.93      0.00
   15   -4    4      0.41      0.00
   16   -4    4      0.02      0.00
  -15   -3    4      0.35      0.00
  -14   -3    4      0.98      0.00
  -13   -3    4      2.07      0.00
  -12   -3    4      3.03      0.00
  -11   -3    4      3.24      0.00
  -10   -3    4      2.52      0.00
   -9   -3    4      1.16      0.00
   -8   -3    4     -0.07      0.00
   -7   -3    4      0.09      0.00
   -6   -3    4      2.61      0.00
   -5   -3    4      6.64      0.00
   -4   -3    4      9.35      0.00
   -3   -3    4      8.11      0.00
   -2   -3    4      2.69      0.00
   -1   -3    4     -4.03      0.00
    0   -3    4     -7.64      0.00
    1   -3    4     -6.05      0.00
    2   -3    4     -1.43      0.00
    3   -3    4      2.22      0.00
    4   -3    4      2.58      0.00
    5   -3    4      0.26      0.00
    6   -3    4     -2.51      0.00
    7   -3    4     -3.91      0.00
    8   -3    4     -3.37      0.00
    9   -3    4     -1.39      0.00
   10   -3    4      0.86      0.00
   11   -3    4      2.24      0.00
   12   -3    4      2.34      0.00
   13   -3    4      1.55      0.00
   14   -3    4      0.61      0.00
   15   -3    4      0.05      0.00
   16   -3    4     -0.02      0.00
  -15   -2    4      0.66      0.00
  -14   -2    4      1.96      0.00
  -13   -2    4      3.25      0.00
  -12   -2    4      3.69      0.00
  -11   -2    4      3.24      0.00
  -10   -2    4      2.39      0.00
   -9   -2    4      1.83      0.00
   -8   -2    4      2.54      0.00
   -7   -2    4      5.55      0.00
   -6   -2    4     10.94      0.00
   -5   -2    4     16.73      0.00
   -4   -2    4     19.76      0.00
   -3   -2    4     18.10      0.00
   -2   -2    4     12.76      0.00
   -1   -2    4      7.65      0.00
    0   -2    4      6.81      0.00
    1   -2    4     10.35      0.00
    2   -2    4     14.31      0.00
    3   -2    4     14.99      0.00
    4   -2    4     11.98      0.00
    5   -2    4      7.42      0.00
    6   -2    4      3.83      0.00
    7   -2    4      2.47      0.00
    8   -2    4      3.02      0.00
    9   -2    4      4.32      0.00
   10   -2    4      5.12      0.00
   11   -2    4      4.69      0.00
   12   -2    4      3.15      0.00
   13   -2    4      1.34      0.00
   14   -2    4      0.19      0.00
   15   -2    4     -0.07      0.00
   16   -2    4      0.06      0.00
  -16   -1    4      0.17      0.00
  -15   -1    4      1.16      0.00
  -14   -1    4      2.54      0.00
  -13   -1    4      3.25      0.00
  -12   -1    4      2.82      0.00
  -11   -1    4      1.87      0.00
  -10   -1    4      1.26      0.00
   -9   -1    4      1.80      0.00
   -8   -1    4      4.38      0.00
   -7   -1    4      9.30      0.00
   -6   -1    4     15.54      0.00
   -5   -1    4     20.61      0.00
   -4   -1    4     22.05      0.00
   -3   -1    4     19.40      0.00
   -2   -1    4     14.98      0.00
   -1   -1    4     12.80      0.00
    0   -1    4     15.10      0.00
    1   -1    4     19.56      0.00
    2   -1    4     21.63      0.00
    3   -1    4     19.46      0.00
    4   -1    4     14.83      0.00
    5   -1    4     10.38      0.00
    6   -1    4      7.74      0.00
    7   -1    4      7.03      0.00
    8   -1    4      7.36      0.00
    9   -1    4      7.60      0.00
   10   -1    4      6.93      0.00
   11   -1    4      5.11      0.00
   12   -1    4      2.70      0.00
   13   -1    4      0.73      0.00
   14   -1    4     -0.10      0.00
   15   -1    4     -0.07      0.00
  -16    0    4      0.48      0.00
  -15    0    4      1.39      0.00
  -14    0    4      2.11      0.00
  -13    0    4      1.92      0.00
  -12    0    4      0.92      0.00
  -11    0    4     -0.09      0.00
  -10    0    4     -0.36      0.00
   -9    0    4      0.86      0.00
   -8    0    4      4.03      0.00
   -7    0    4      8.54      0.00
   -6    0    4     12.65      0.00
   -5    0    4     14.31      0.00
   -4    0    4     12.58      0.00
   -3    0    4      8.69      0.00
   -2    0    4      5.73      0.00
   -1    0    4      6.52      0.00
    0    0    4     10.83      0.00
    1    0    4     14.91      0.00
    2    0    4     15.39      0.00
    3    0    4     12.72      0.00
    4    0    4      9.51      0.00
    5    0    4      7.46      0.00
    6    0    4      6.83      0.00
    7    0    4      7.11      0.00
    8    0    4      7.45      0.00
    9    0    4      7.10      0.00
   10    0    4      5.74      0.00
   11    0    4      3.62      0.00
   12    0    4      1.47      0.00
   13    0    4      0.14      0.00
   14    0    4     -0.15      0.00
   15    0    4      0.02      0.00
  -16    1    4      0.57      0.00
  -15    1    4      0.95      0.00
  -14    1    4      0.89      0.00
  -13    1    4      0.17      0.00
  -12    1    4     -0.92      0.00
  -11    1    4     -1.81      0.00
  -10    1    4     -1.94      0.00
   -9    1    4     -0.83      0.00
   -8    1    4      1.29      0.00
   -7    1    4      3.17      0.00
   -6    1    4      3.21      0.00
   -5    1    4      0.56      0.00
   -4    1    4     -4.06      0.00
   -3    1    4     -8.34      0.00
   -2    1    4     -9.73      0.00
   -1    1    4     -7.33      0.00
    0    1    4     -2.98      0.00
    1    1    4      0.14      0.00
    2    1    4      0.61      0.00
    3    1    4     -0.18      0.00
    4    1    4     -0.42      0.00
    5    1    4      0.36      0.00
    6    1    4      1.76      0.00
    7    1    4      3.20      0.00
    8    1    4      4.03      0.00
    9    1    4      3.86      0.00
   10    1    4      2.80      0.00
   11    1    4      1.37      0.00
   12    1    4      0.25      0.00
   13    1    4     -0.13      0.00
   14    1    4      0.04      0.00
  -17    2    4      0.15      0.00
  -16    2    4      0.29      0.00
  -15    2    4      0.20      0.00
  -14    2    4     -0.27      0.00
  -13    2    4     -1.08      0.00
  -12    2    4     -2.01      0.00
  -11    2    4     -2.68      0.00
  -10    2    4     -2.80      0.00
   -9    2    4     -2.40      0.00
   -8    2    4     -2.21      0.00
   -7    2    4     -3.46      0.00
   -6    2    4     -6.93      0.00
   -5    2    4    -12.21      0.00
   -4    2    4    -17.66      0.00
   -3    2    4    -21.16      0.00
   -2    2    4    -21.53      0.00
   -1    2    4    -19.36      0.00
    0    2    4    -16.37      0.00
    1    2    4    -14.13      0.00
    2    2    4    -12.87      0.00
    3    2    4    -11.60      0.00
    4    2    4     -9.56      0.00
    5    2    4     -6.86      0.00
    6    2    4     -4.02      0.00
    7    2    4     -1.64      0.00
    8    2    4     -0.20      0.00
    9    2    4      0.24      0.00
   10    2    4      0.02      0.00
   11    2    4     -0.35      0.00
   12    2    4     -0.43      0.00
   13    2    4     -0.14      0.00
  -17    3    4      0.03      0.00
  -16    3    4     -0.01      0.00
  -15    3    4     -0.25      0.00
  -14    3    4     -0.73      0.00
  -13    3    4     -1.32      0.00
  -12    3    4     -1.82      0.00
  -11    3    4     -2.12      0.00
  -10    3    4     -2.30      0.00
   -9    3    4     -2.69      0.00
   -8    3    4     -3.91      0.00
   -7    3    4     -6.72      0.00
   -6    3    4    -11.20      0.00
   -5    3    4    -16.39      0.00
   -4    3    4    -20.69      0.00
   -3    3    4    -22.87      0.00
   -2    3    4    -23.02      0.00
   -1    3    4    -22.11      0.00
    0    3    4    -20.96      0.00
    1    3    4    -19.83      0.00
    2    3    4    -18.49      0.00
    3    3    4    -16.50      0.00
    4    3    4    -13.64      0.00
    5    3    4    -10.27      0.00
    6    3    4     -7.02      0.00
    7    3    4     -4.44      0.00
    8    3    4     -2.76      0.00
    9    3    4     -1.83      0.00
   10    3    4     -1.34      0.00
   11    3    4     -0.98      0.00
   12    3    4     -0.55      0.00
   13    3    4     -0.09      0.00
  -17    4    4     -0.02      0.00
  -16    4    4      0.03      0.00
  -15    4    4     -0.04      0.00
  -14    4    4     -0.17      0.00
  -13    4    4     -0.22      0.00
  -12    4    4     -0.15      0.00
  -11    4    4     -0.13      0.00
  -10    4    4     -0.37      0.00
   -9    4    4     -0.96      0.00
   -8    4    4     -2.12      0.00
   -7    4    4     -4.31      0.00
   -6    4    4     -7.50      0.00
   -5    4    4    -10.79      0.00
   -4    4    4    -13.08      0.00
   -3    4    4    -14.05      0.00
   -2    4    4    -14.46      0.00
   -1    4    4    -15.06      0.00
    0    4    4    -15.78      0.00
    1    4    4    -16.08      0.00
    2    4    4    -15.53      0.00
    3    4    4    -13.96      0.00
    4    4    4    -11.53      0.00
    5    4    4     -8.73      0.00
    6    4    4     -6.15      0.00
    7    4    4     -4.13      0.00
    8    4    4     -2.75      0.00
    9    4    4     -1.86      0.00
   10    4    4     -1.22      0.00
   11    4    4     -0.68      0.00
   12    4    4     -0.25      0.00
   13    4    4      0.03      0.00
  -17    5    4      0.20      0.00
  -16    5    4      0.53      0.00
  -15    5    4      0.87      0.00
  -14    5    4      1.22      0.00
  -13    5    4      1.61      0.00
  -12    5    4      1.98      0.00
  -11    5    4      2.19      0.00
  -10    5    4      2.24      0.00
   -9    5    4      2.32      0.00
   -8    5    4      2.37      0.00
   -7    5    4      1.92      0.00
   -6    5    4      0.92      0.00
   -5    5    4     -0.04      0.00
   -4    5    4     -0.50      0.00
   -3    5    4     -0.75      0.00
   -2    5    4     -1.63      0.00
   -1    5    4     -3.44      0.00
    0    5    4     -5.49      0.00
    1    5    4     -6.91      0.00
    2    5    4     -7.31      0.00
    3    5    4     -6.77      0.00
    4    5    4     -5.56      0.00
    5    5    4     -4.06      0.00
    6    5    4     -2.65      0.00
    7    5    4     -1.62      0.00
    8    5    4     -1.01      0.00
    9    5    4     -0.61      0.00
   10    5    4     -0.18      0.00
   11    5    4      0.18      0.00
   12    5    4      0.27      0.00
  -17    6    4      0.63      0.00
  -16    6    4      1.23      0.00
  -15    6    4      1.78      0.00
  -14    6    4      2.23      0.00
  -13    6    4      2.63      0.00
  -12    6    4      3.06      0.00
  -11    6    4      3.56      0.00
  -10    6    4      4.22      0.00
   -9    6    4      5.26      0.00
   -8    6    4      6.54      0.00
   -7    6    4      7.67      0.00
   -6    6    4      8.52      0.00
   -5    6    4      9.28      0.00
   -4    6    4      9.87      0.00
   -3    6    4      9.83      0.00
   -2    6    4      8.67      0.00
   -1    6    4      6.53      0.00
    0    6    4      4.16      0.00
    1    6    4      2.25      0.00
    2    6    4      1.07      0.00
    3    6    4      0.56      0.00
    4    6    4      0.56      0.00
    5    6    4      0.87      0.00
    6    6    4      1.13      0.00
    7    6    4      1.08      0.00
    8    6    4      0.87      0.00
    9    6    4      0.83      0.00
   10    6    4      0.96      0.00
   11    6    4      0.92      0.00
   12    6    4      0.55      0.00
  -17    7    4      0.92      0.00
  -16    7    4      1.43      0.00
  -15    7    4      1.75      0.00
  -14    7    4      1.93      0.00
  -13    7    4      2.16      0.00
  -12    7    4      2.59      0.00
  -11    7    4      3.28      0.00
  -10    7    4      4.28      0.00
   -9    7    4      5.74      0.00
   -8    7    4      7.57      0.00
   -7    7    4      9.44      0.00
   -6    7    4     11.15      0.00
   -5    7    4     12.52      0.00
   -4    7    4     13.34      0.00
   -3    7    4     13.39      0.00
   -2    7    4     12.54      0.00
   -1    7    4     10.91      0.00
    0    7    4      8.92      0.00
    1    7    4      7.06      0.00
    2    7    4      5.64      0.00
    3    7    4      4.72      0.00
    4    7    4      4.17      0.00
    5    7    4      3.72      0.00
    6    7    4      3.11      0.00
    7    7    4      2.36      0.00
    8    7    4      1.77      0.00
    9    7    4      1.52      0.00
   10    7    4      1.33      0.00
   11    7    4      0.91      0.00
  -16    8    4      0.83      0.00
  -15    8    4      0.79      0.00
  -14    8    4      0.75      0.00
  -13    8    4      0.82      0.00
  -12    8    4      1.05      0.00
  -11    8    4      1.45      0.00
  -10    8    4      2.15      0.00
   -9    8    4      3.35      0.00
   -8    8    4      4.92      0.00
   -7    8    4      6.58      0.00
   -6    8    4      8.10      0.00
   -5    8    4      9.25      0.00
   -4    8    4      9.91      0.00
   -3    8    4     10.13      0.00
   -2    8    4      9.85      0.00
   -1    8    4      9.00      0.00
    0    8    4      7.73      0.00
    1    8    4      6.49      0.00
    2    8    4      5.61      0.00
    3    8    4      5.00      0.00
    4    8    4      4.39      0.00
    5    8    4      3.65      0.00
    6    8    4      2.79      0.00
    7    8    4      1.97      0.00
    8    8    4      1.43      0.00
    9    8    4      1.11      0.00
   10    8    4      0.78      0.00
  -16    9    4     -0.01      0.00
  -15    9    4     -0.25      0.00
  -14    9    4     -0.45      0.00
  -13    9    4     -0.64      0.00
  -12    9    4     -0.86      0.00
  -11    9    4     -1.03      0.00
  -10    9    4     -0.95      0.00
   -9    9    4     -0.42      0.00
   -8    9    4      0.39      0.00
   -7    9    4      1.26      0.00
   -6    9    4      2.06      0.00
   -5    9    4      2.65      0.00
   -4    9    4      3.03      0.00
   -3    9    4      3.34      0.00
   -2    9    4      3.50      0.00
   -1    9    4      3.35      0.00
    0    9    4      3.01      0.00
    1    9    4      2.75      0.00
    2    9    4      2.65      0.00
    3    9    4      2.50      0.00
    4    9    4      2.13      0.00
    5    9    4      1.64      0.00
    6    9    4      1.14      0.00
    7    9    4      0.71      0.00
    8    9    4      0.45      0.00
    9    9    4      0.31      0.00
  -16   10    4     -0.50      0.00
  -15   10    4     -0.91      0.00
  -14   10    4     -1.32      0.00
  -13   10    4     -1.76      0.00
  -12   10    4     -2.24      0.00
  -11   10    4     -2.80      0.00
  -10   10    4     -3.27      0.00
   -9   10    4     -3.43      0.00
   -8   10    4     -3.38      0.00
   -7   10    4     -3.34      0.00
   -6   10    4     -3.32      0.00
   -5   10    4     -3.29      0.00
   -4   10    4     -3.17      0.00
   -3   10    4     -2.90      0.00
   -2   10    4     -2.52      0.00
   -1   10    4     -2.13      0.00
    0   10    4     -1.75      0.00
    1   10    4     -1.36      0.00
    2   10    4     -1.01      0.00
    3   10    4     -0.77      0.00
    4   10    4     -0.62      0.00
    5   10    4     -0.45      0.00
    6   10    4     -0.31      0.00
    7   10    4     -0.23      0.00
    8   10    4     -0.10      0.00
  -15   11    4     -1.20      0.00
  -14   11    4     -1.65      0.00
  -13   11    4     -1.93      0.00
  -12   11    4     -2.26      0.00
  -11   11    4     -2.92      0.00
  -10   11    4     -3.72      0.00
   -9   11    4     -4.26      0.00
   -8   11    4     -4.69      0.00
   -7   11    4     -5.23      0.00
   -6   11    4     -5.73      0.00
   -5   11    4     -5.98      0.00
   -4   11    4     -6.00      0.00
   -3   11    4     -5.83      0.00
   -2   11    4     -5.46      0.00
   -1   11    4     -4.93      0.00
    0   11    4     -4.37      0.00
    1   11    4     -3.88      0.00
    2   11    4     -3.37      0.00
    3   11    4     -2.74      0.00
    4   11    4     -1.99      0.00
    5   11    4     -1.24      0.00
    6   11    4     -0.65      0.00
    7   11    4     -0.26      0.00
  -15   12    4     -1.02      0.00
  -14   12    4     -1.13      0.00
  -13   12    4     -1.02      0.00
  -12   12    4     -1.06      0.00
  -11   12    4     -1.61      0.00
  -10   12    4     -2.37      0.00
   -9   12    4     -2.94      0.00
   -8   12    4     -3.50      0.00
   -7   12    4     -4.23      0.00
   -6   12    4     -4.77      0.00
   -5   12    4     -4.96      0.00
   -4   12    4     -5.03      0.00
   -3   12    4     -5.07      0.00
   -2   12    4     -4.94      0.00
   -1   12    4     -4.61      0.00
    0   12    4     -4.22      0.00
    1   12    4     -3.84      0.00
    2   12    4     -3.28      0.00
    3   12    4     -2.48      0.00
    4   12    4     -1.57      0.00
    5   12    4     -0.74      0.00
    6   12    4     -0.18      0.00
  -14   13    4     -0.19      0.00
  -13   13    4      0.12      0.00
  -12   13    4      0.25      0.00
  -11   13    4     -0.01      0.00
  -10   13    4     -0.41      0.00
   -9   13    4     -0.65      0.00
   -8   13    4     -0.97      0.00
   -7   13    4     -1.46      0.00
   -6   13    4     -1.73      0.00
   -5   13    4     -1.77      0.00
   -4   13    4     -1.92      0.00
   -3   13    4     -2.21      0.00
   -2   13    4     -2.35      0.00
   -1   13    4     -2.26      0.00
    0   13    4     -2.06      0.00
    1   13    4     -1.83      0.00
    2   13    4     -1.47      0.00
    3   13    4     -0.98      0.00
    4   13    4     -0.47      0.00
  -13   14    4      0.49      0.00
  -12   14    4      0.71      0.00
  -11   14    4      0.82      0.00
  -10   14    4      0.96      0.00
   -9   14    4      1.26      0.00
   -8   14    4      1.36      0.00
   -7   14    4      1.15      0.00
   -6   14    4      1.02      0.00
   -5   14    4      1.01      0.00
   -4   14    4      0.79      0.00
   -3   14    4      0.40      0.00
   -2   14    4      0.15      0.00
   -1   14    4      0.13      0.00
    0   14    4      0.18      0.00
    1   14    4      0.17      0.00
    2   14    4      0.12      0.00
    3   14    4      0.08      0.00
  -11   15    4      0.79      0.00
  -10   15    4      1.33      0.00
   -9   15    4      1.95      0.00
   -8   15    4      2.16      0.00
   -7   15    4      1.91      0.00
   -6   15    4      1.73      0.00
   -5   15    4      1.69      0.00
   -4   15    4      1.52      0.00
   -3   15    4      1.26      0.00
   -2   15    4      1.12      0.00
   -1   15    4      1.08      0.00
    0   15    4      0.98      0.00
    1   15    4      0.73      0.00
   -9   16    4      1.38      0.00
   -8   16    4      1.34      0.00
   -7   16    4      0.97      0.00
   -6   16    4      0.78      0.00
   -5   16    4      0.79      0.00
   -4   16    4      0.76      0.00
   -3   16    4      0.76      0.00
   -2   16    4      0.81      0.00
   -2  -17    5     -0.73      0.00
   -1  -17    5     -1.16      0.00
    0  -17    5     -1.39      0.00
    1  -17    5     -1.68      0.00
    2  -17    5     -2.14      0.00
    3  -17    5     -2.43      0.00
    4  -17    5     -2.38      0.00
    5  -17    5     -2.23      0.00
    6  -17    5     -2.25      0.00
    7  -17    5     -2.26      0.00
    8  -17    5     -1.89      0.00
    9  -17    5     -1.08      0.00
   -3  -16    5     -0.02      0.00
   -2  -16    5     -0.39      0.00
   -1  -16    5     -0.60      0.00
    0  -16    5     -0.68      0.00
    1  -16    5     -0.92      0.00
    2  -16    5     -1.23      0.00
    3  -16    5     -1.22      0.00
    4  -16    5     -0.98      0.00
    5  -16    5     -0.82      0.00
    6  -16    5     -0.77      0.00
    7  -16    5     -0.59      0.00
    8  -16    5     -0.17      0.00
    9  -16    5      0.32      0.00
   10  -16    5      0.51      0.00
   11  -16    5      0.31      0.00
   12  -16    5      0.06      0.00
   -5  -15    5      0.83      0.00
   -4  -15    5      1.18      0.00
   -3  -15    5      1.13      0.00
   -2  -15    5      0.94      0.00
   -1  -15    5      1.00      0.00
    0  -15    5      1.26      0.00
    1  -15    5      1.50      0.00
    2  -15    5      1.79      0.00
    3  -15    5      2.20      0.00
    4  -15    5      2.56      0.00
    5  -15    5      2.78      0.00
    6  -15    5      3.00      0.00
    7  -15    5      3.11      0.00
    8  -15    5      2.97      0.00
    9  -15    5      2.68      0.00
   10  -15    5      2.29      0.00
   11  -15    5      1.73      0.00
   12  -15    5      1.13      0.00
   -6  -14    5      1.08      0.00
   -5  -14    5      1.93      0.00
   -4  -14    5      2.33      0.00
   -3  -14    5      2.21      0.00
   -2  -14    5      2.06      0.00
   -1  -14    5      2.31      0.00
    0  -14    5      2.92      0.00
    1  -14    5      3.63      0.00
    2  -14    5      4.30      0.00
    3  -14    5      4.83      0.00
    4  -14    5      5.21      0.00
    5  -14    5      5.57      0.00
    6  -14    5      5.82      0.00
    7  -14    5      5.62      0.00
    8  -14    5      5.02      0.00
    9  -14    5      4.48      0.00
   10  -14    5      3.98      0.00
   11  -14    5      3.16      0.00
   12  -14    5      2.13      0.00
   13  -14    5      1.24      0.00
   14  -14    5      0.63      0.00
   -7  -13    5      0.86      0.00
   -6  -13    5      1.73      0.00
   -5  -13    5      2.36      0.00
   -4  -13    5      2.40      0.00
   -3  -13    5      2.08      0.00
   -2  -13    5      1.88      0.00
   -1  -13    5      2.08      0.00
    0  -13    5      2.62      0.00
    1  -13    5      3.23      0.00
    2  -13    5      3.70      0.00
    3  -13    5      4.00      0.00
    4  -13    5      4.34      0.00
    5  -13    5      4.79      0.00
    6  -13    5      5.09      0.00
    7  -13    5      4.97      0.00
    8  -13    5      4.67      0.00
    9  -13    5      4.44      0.00
   10  -13    5      3.95      0.00
   11  -13    5      3.00      0.00
   12  -13    5      2.01      0.00
   13  -13    5      1.33      0.00
   14  -13    5      0.86      0.00
   -8  -12    5      0.49      0.00
   -7  -12    5      1.04      0.00
   -6  -12    5      1.53      0.00
   -5  -12    5      1.56      0.00
   -4  -12    5      1.15      0.00
   -3  -12    5      0.64      0.00
   -2  -12    5      0.24      0.00
   -1  -12    5      0.00      0.00
    0  -12    5     -0.07      0.00
    1  -12    5     -0.10      0.00
    2  -12    5     -0.21      0.00
    3  -12    5     -0.24      0.00
    4  -12    5      0.08      0.00
    5  -12    5      0.73      0.00
    6  -12    5      1.40      0.00
    7  -12    5      1.85      0.00
    8  -12    5      2.11      0.00
    9  -12    5      2.11      0.00
   10  -12    5      1.68      0.00
   11  -12    5      1.08      0.00
   12  -12    5      0.75      0.00
   13  -12    5      0.65      0.00
   14  -12    5      0.50      0.00
   -9  -11    5     -0.09      0.00
   -8  -11    5      0.28      0.00
   -7  -11    5      0.64      0.00
   -6  -11    5      0.60      0.00
   -5  -11    5      0.05      0.00
   -4  -11    5     -0.70      0.00
   -3  -11    5     -1.40      0.00
   -2  -11    5     -2.16      0.00
   -1  -11    5     -3.05      0.00
    0  -11    5     -3.91      0.00
    1  -11    5     -4.66      0.00
    2  -11    5     -5.26      0.00
    3  -11    5     -5.41      0.00
    4  -11    5     -4.86      0.00
    5  -11    5     -3.79      0.00
    6  -11    5     -2.66      0.00
    7  -11    5     -1.77      0.00
    8  -11    5     -1.25      0.00
    9  -11    5     -1.12      0.00
   10  -11    5     -1.24      0.00
   11  -11    5     -1.26      0.00
   12  -11    5     -1.03      0.00
   13  -11    5     -0.76      0.00
   14  -11    5     -0.52      0.00
   15  -11    5     -0.22      0.00
  -10  -10    5     -0.88      0.00
   -9  -10    5     -0.60      0.00
   -8  -10    5     -0.12      0.00
   -7  -10    5      0.07      0.00
   -6  -10    5     -0.37      0.00
   -5  -10    5     -1.28      0.00
   -4  -10    5     -2.23      0.00
   -3  -10    5     -3.06      0.00
   -2  -10    5     -4.05      0.00
   -1  -10    5     -5.31      0.00
    0  -10    5     -6.59      0.00
    1  -10    5     -7.67      0.00
    2  -10    5     -8.32      0.00
    3  -10    5     -8.18      0.00
    4  -10    5     -7.17      0.00
    5  -10    5     -5.73      0.00
    6  -10    5     -4.38      0.00
    7  -10    5     -3.42      0.00
    8  -10    5     -2.93      0.00
    9  -10    5     -2.78      0.00
   10  -10    5     -2.76      0.00
   11  -10    5     -2.66      0.00
   12  -10    5     -2.41      0.00
   13  -10    5     -2.04      0.00
   14  -10    5     -1.50      0.00
   15  -10    5     -0.79      0.00
  -12   -9    5     -1.01      0.00
  -11   -9    5     -1.47      0.00
  -10   -9    5     -1.40      0.00
   -9   -9    5     -0.80      0.00
   -8   -9    5     -0.20      0.00
   -7   -9    5     -0.17      0.00
   -6   -9    5     -0.84      0.00
   -5   -9    5     -1.81      0.00
   -4   -9    5     -2.62      0.00
   -3   -9    5     -3.22      0.00
   -2   -9    5     -3.93      0.00
   -1   -9    5     -4.92      0.00
    0   -9    5     -5.97      0.00
    1   -9    5     -6.80      0.00
    2   -9    5     -7.07      0.00
    3   -9    5     -6.46      0.00
    4   -9    5     -5.04      0.00
    5   -9    5     -3.37      0.00
    6   -9    5     -2.01      0.00
    7   -9    5     -1.29      0.00
    8   -9    5     -1.25      0.00
    9   -9    5     -1.63      0.00
   10   -9    5     -2.12      0.00
   11   -9    5     -2.44      0.00
   12   -9    5     -2.50      0.00
   13   -9    5     -2.28      0.00
   14   -9    5     -1.77      0.00
   15   -9    5     -1.07      0.00
  -12   -8    5     -1.54      0.00
  -11   -8    5     -1.71      0.00
  -10   -8    5     -1.18      0.00
   -9   -8    5     -0.29      0.00
   -8   -8    5      0.27      0.00
   -7   -8    5      0.09      0.00
   -6   -8    5     -0.60      0.00
   -5   -8    5     -1.26      0.00
   -4   -8    5     -1.47      0.00
   -3   -8    5     -1.30      0.00
   -2   -8    5     -1.16      0.00
   -1   -8    5     -1.37      0.00
    0   -8    5     -1.87      0.00
    1   -8    5     -2.31      0.00
    2   -8    5     -2.18      0.00
    3   -8    5     -1.08      0.00
    4   -8    5      0.80      0.00
    5   -8    5      2.71      0.00
    6   -8    5      3.92      0.00
    7   -8    5      3.98      0.00
    8   -8    5      2.98      0.00
    9   -8    5      1.50      0.00
   10   -8    5      0.10      0.00
   11   -8    5     -0.90      0.00
   12   -8    5     -1.41      0.00
   13   -8    5     -1.52      0.00
   14   -8    5     -1.26      0.00
   15   -8    5     -0.76      0.00
  -13   -7    5     -0.91      0.00
  -12   -7    5     -1.32      0.00
  -11   -7    5     -1.05      0.00
  -10   -7    5     -0.11      0.00
   -9   -7    5      0.85      0.00
   -8   -7    5      1.19      0.00
   -7   -7    5      0.82      0.00
   -6   -7    5      0.19      0.00
   -5   -7    5      0.00      0.00
   -4   -7    5      0.65      0.00
   -3   -7    5      1.90      0.00
   -2   -7    5      2.98      0.00
   -1   -7    5      3.23      0.00
    0   -7    5      2.70      0.00
    1   -7    5      2.17      0.00
    2   -7    5      2.62      0.00
    3   -7    5      4.54      0.00
    4   -7    5      7.30      0.00
    5   -7    5      9.58      0.00
    6   -7    5     10.37      0.00
    7   -7    5      9.40      0.00
    8   -7    5      7.14      0.00
    9   -7    5      4.47      0.00
   10   -7    5      2.15      0.00
   11   -7    5      0.56      0.00
   12   -7    5     -0.23      0.00
   13   -7    5     -0.43      0.00
   14   -7    5     -0.28      0.00
   15   -7    5     -0.02      0.00
   16   -7    5      0.08      0.00
  -13   -6    5     -0.37      0.00
  -12   -6    5     -0.40      0.00
  -11   -6    5      0.34      0.00
  -10   -6    5      1.49      0.00
   -9   -6    5      2.29      0.00
   -8   -6    5      2.28      0.00
   -7   -6    5      1.54      0.00
   -6   -6    5      0.75      0.00
   -5   -6    5      0.87      0.00
   -4   -6    5      2.30      0.00
   -3   -6    5      4.34      0.00
   -2   -6    5      5.54      0.00
   -1   -6    5      5.01      0.00
    0   -6    5      3.32      0.00
    1   -6    5      2.22      0.00
    2   -6    5      3.35      0.00
    3   -6    5      6.85      0.00
    4   -6    5     10.97      0.00
    5   -6    5     13.58      0.00
    6   -6    5     13.73      0.00
    7   -6    5     11.71      0.00
    8   -6    5      8.42      0.00
    9   -6    5      4.96      0.00
   10   -6    5      2.26      0.00
   11   -6    5      0.78      0.00
   12   -6    5      0.36      0.00
   13   -6    5      0.46      0.00
   14   -6    5      0.62      0.00
   15   -6    5      0.61      0.00
   16   -6    5      0.33      0.00
  -14   -5    5      0.27      0.00
  -13   -5    5      0.25      0.00
  -12   -5    5      0.79      0.00
  -11   -5    5      1.95      0.00
  -10   -5    5      3.08      0.00
   -9   -5    5      3.46      0.00
   -8   -5    5      2.80      0.00
   -7   -5    5      1.40      0.00
   -6   -5    5      0.29      0.00
   -5   -5    5      0.65      0.00
   -4   -5    5      2.50      0.00
   -3   -5    5      4.30      0.00
   -2   -5    5      4.11      0.00
   -1   -5    5      1.33      0.00
    0   -5    5     -2.27      0.00
    1   -5    5     -3.68      0.00
    2   -5    5     -1.04      0.00
    3   -5    5      4.59      0.00
    4   -5    5      9.98      0.00
    5   -5    5     12.53      0.00
    6   -5    5     11.90      0.00
    7   -5    5      9.11      0.00
    8   -5    5      5.45      0.00
    9   -5    5      2.20      0.00
   10   -5    5      0.32      0.00
   11   -5    5     -0.03      0.00
   12   -5    5      0.45      0.00
   13   -5    5      0.93      0.00
   14   -5    5      1.05      0.00
   15   -5    5      0.82      0.00
   16   -5    5      0.39      0.00
  -14   -4    5      0.24      0.00
  -13   -4    5      0.77      0.00
  -12   -4    5      1.89      0.00
  -11   -4    5      3.21      0.00
  -10   -4    5      3.93      0.00
   -9   -4    5      3.51      0.00
   -8   -4    5      2.00      0.00
   -7   -4    5      0.14      0.00
   -6   -4    5     -0.81      0.00
   -5   -4    5     -0.03      0.00
   -4   -4    5      1.62      0.00
   -3   -4    5      1.88      0.00
   -2   -4    5     -1.11      0.00
   -1   -4    5     -6.84      0.00
    0   -4    5    -11.92      0.00
    1   -4    5    -12.44      0.00
    2   -4    5     -7.54      0.00
    3   -4    5     -0.20      0.00
    4   -4    5      5.31      0.00
    5   -4    5      6.92      0.00
    6   -4    5      5.37      0.00
    7   -4    5      2.41      0.00
    8   -4    5     -0.47      0.00
    9   -4    5     -2.16      0.00
   10   -4    5     -2.15      0.00
   11   -4    5     -0.95      0.00
   12   -4    5      0.37      0.00
   13   -4    5      1.03      0.00
   14   -4    5      1.02      0.00
   15   -4    5      0.70      0.00
   16   -4    5      0.31      0.00
  -15   -3    5     -0.18      0.00
  -14   -3    5      0.19      0.00
  -13   -3    5      1.27      0.00
  -12   -3    5      2.62      0.00
  -11   -3    5      3.55      0.00
  -10   -3    5      3.43      0.00
   -9   -3    5      2.15      0.00
   -8   -3    5      0.25      0.00
   -7   -3    5     -1.20      0.00
   -6   -3    5     -1.20      0.00
   -5   -3    5      0.14      0.00
   -4   -3    5      1.03      0.00
   -3   -3    5     -1.00      0.00
   -2   -3    5     -6.97      0.00
   -1   -3    5    -14.66      0.00
    0   -3    5    -19.33      0.00
    1   -3    5    -17.59      0.00
    2   -3    5    -10.78      0.00
    3   -3    5     -3.62      0.00
    4   -3    5      0.02      0.00
    5   -3    5     -0.34      0.00
    6   -3    5     -2.72      0.00
    7   -3    5     -4.98      0.00
    8   -3    5     -6.01      0.00
    9   -3    5     -5.45      0.00
   10   -3    5     -3.57      0.00
   11   -3    5     -1.29      0.00
   12   -3    5      0.34      0.00
   13   -3    5      0.84      0.00
   14   -3    5      0.61      0.00
   15   -3    5      0.30      0.00
  -15   -2    5     -0.43      0.00
  -14   -2    5      0.33      0.00
  -13   -2    5      1.65      0.00
  -12   -2    5      2.66      0.00
  -11   -2    5      2.74      0.00
  -10   -2    5      1.77      0.00
   -9   -2    5      0.14      0.00
   -8   -2    5     -1.25      0.00
   -7   -2    5     -1.41      0.00
   -6   -2    5     -0.01      0.00
   -5   -2    5      1.87      0.00
   -4   -2    5      1.91      0.00
   -3   -2    5     -1.88      0.00
   -2   -2    5     -9.11      0.00
   -1   -2    5    -16.08      0.00
    0   -2    5    -18.13      0.00
    1   -2    5    -14.04      0.00
    2   -2    5     -7.43      0.00
    3   -2    5     -3.09      0.00
    4   -2    5     -2.96      0.00
    5   -2    5     -5.60      0.00
    6   -2    5     -8.30      0.00
    7   -2    5     -9.27      0.00
    8   -2    5     -8.29      0.00
    9   -2    5     -6.01      0.00
   10   -2    5     -3.26      0.00
   11   -2    5     -0.88      0.00
   12   -2    5      0.36      0.00
   13   -2    5      0.38      0.00
   14   -2    5     -0.05      0.00
   15   -2    5     -0.16      0.00
  -16   -1    5     -0.61      0.00
  -15   -1    5     -0.50      0.00
  -14   -1    5      0.45      0.00
  -13   -1    5      1.54      0.00
  -12   -1    5      1.80      0.00
  -11   -1    5      1.05      0.00
  -10   -1    5     -0.33      0.00
   -9   -1    5     -1.62      0.00
   -8   -1    5     -1.85      0.00
   -7   -1    5     -0.39      0.00
   -6   -1    5      2.36      0.00
   -5   -1    5      4.64      0.00
   -4   -1    5      4.26      0.00
   -3   -1    5      0.31      0.00
   -2   -1    5     -5.41      0.00
   -1   -1    5     -9.07      0.00
    0   -1    5     -7.89      0.00
    1   -1    5     -3.22      0.00
    2   -1    5      0.60      0.00
    3   -1    5      0.57      0.00
    4   -1    5     -2.78      0.00
    5   -1    5     -6.85      0.00
    6   -1    5     -9.16      0.00
    7   -1    5     -8.86      0.00
    8   -1    5     -6.73      0.00
    9   -1    5     -4.05      0.00
   10   -1    5     -1.68      0.00
   11   -1    5     -0.12      0.00
   12   -1    5      0.29      0.00
   13   -1    5     -0.15      0.00
   14   -1    5     -0.54      0.00
   15   -1    5     -0.38      0.00
  -16    0    5     -0.72      0.00
  -15    0    5     -0.54      0.00
  -14    0    5      0.20      0.00
  -13    0    5      0.69      0.00
  -12    0    5      0.24      0.00
  -11    0    5     -0.97      0.00
  -10    0    5     -2.29      0.00
   -9    0    5     -2.85      0.00
   -8    0    5     -1.82      0.00
   -7    0    5      0.97      0.00
   -6    0    5      4.46      0.00
   -5    0    5      6.74      0.00
   -4    0    5      6.39      0.00
   -3    0    5      3.83      0.00
   -2    0    5      1.39      0.00
   -1    0    5      1.58      0.00
    0    0    5      4.66      0.00
    1    0    5      7.83      0.00
    2    0    5      7.88      0.00
    3    0    5      4.28      0.00
    4    0    5     -0.80      0.00
    5    0    5     -4.78      0.00
    6    0    5     -6.20      0.00
    7    0    5     -5.20      0.00
    8    0    5     -3.13      0.00
    9    0    5     -1.25      0.00
   10    0    5     -0.06      0.00
   11    0    5      0.38      0.00
   12    0    5      0.14      0.00
   13    0    5     -0.36      0.00
   14    0    5     -0.52      0.00
  -16    1    5     -0.61      0.00
  -15    1    5     -0.55      0.00
  -14    1    5     -0.34      0.00
  -13    1    5     -0.50      0.00
  -12    1    5     -1.37      0.00
  -11    1    5     -2.65      0.00
  -10    1    5     -3.63      0.00
   -9    1    5     -3.48      0.00
   -8    1    5     -1.66      0.00
   -7    1    5      1.46      0.00
   -6    1    5      4.55      0.00
   -5    1    5      6.19      0.00
   -4    1    5      6.02      0.00
   -3    1    5      5.30      0.00
   -2    1    5      5.90      0.00
   -1    1    5      8.54      0.00
    0    1    5     11.73      0.00
    1    1    5     12.78      0.00
    2    1    5     10.33      0.00
    3    1    5      5.58      0.00
    4    1    5      0.97      0.00
    5    1    5     -1.76      0.00
    6    1    5     -2.25      0.00
    7    1    5     -1.25      0.00
    8    1    5     -0.01      0.00
    9    1    5      0.66      0.00
   10    1    5      0.70      0.00
   11    1    5      0.44      0.00
   12    1    5      0.08      0.00
   13    1    5     -0.16      0.00
  -16    2    5     -0.20      0.00
  -15    2    5     -0.35      0.00
  -14    2    5     -0.65      0.00
  -13    2    5     -1.27      0.00
  -12    2    5     -2.27      0.00
  -11    2    5     -3.33      0.00
  -10    2    5     -3.86      0.00
   -9    2    5     -3.35      0.00
   -8    2    5     -1.73      0.00
   -7    2    5      0.40      0.00
   -6    2    5      2.04      0.00
   -5    2    5      2.55      0.00
   -4    2    5      2.41      0.00
   -3    2    5      2.98      0.00
   -2    2    5      5.23      0.00
   -1    2    5      8.53      0.00
    0    2    5     10.93      0.00
    1    2    5     10.73      0.00
    2    2    5      7.96      0.00
    3    2    5      4.24      0.00
    4    2    5      1.35      0.00
    5    2    5      0.08      0.00
    6    2    5      0.16      0.00
    7    2    5      0.84      0.00
    8    2    5      1.30      0.00
    9    2    5      1.16      0.00
   10    2    5      0.67      0.00
   11    2    5      0.28      0.00
   12    2    5      0.14      0.00
   13    2    5      0.15      0.00
  -16    3    5      0.40      0.00
  -15    3    5      0.16      0.00
  -14    3    5     -0.43      0.00
  -13    3    5     -1.22      0.00
  -12    3    5     -2.04      0.00
  -11    3    5     -2.62      0.00
  -10    3    5     -2.77      0.00
   -9    3    5     -2.50      0.00
   -8    3    5     -1.94      0.00
   -7    3    5     -1.48      0.00
   -6    3    5     -1.58      0.00
   -5    3    5     -2.23      0.00
   -4    3    5     -2.56      0.00
   -3    3    5     -1.50      0.00
   -2    3    5      1.08      0.00
   -1    3    5      3.95      0.00
    0    3    5      5.58      0.00
    1    3    5      5.27      0.00
    2    3    5      3.55      0.00
    3    3    5      1.58      0.00
    4    3    5      0.35      0.00
    5    3    5      0.09      0.00
    6    3    5      0.45      0.00
    7    3    5      0.90      0.00
    8    3    5      1.03      0.00
    9    3    5      0.72      0.00
   10    3    5      0.30      0.00
   11    3    5      0.15      0.00
   12    3    5      0.26      0.00
   13    3    5      0.32      0.00
  -17    4    5      0.64      0.00
  -16    4    5      0.86      0.00
  -15    4    5      0.68      0.00
  -14    4    5      0.17      0.00
  -13    4    5     -0.37      0.00
  -12    4    5     -0.68      0.00
  -11    4    5     -0.75      0.00
  -10    4    5     -0.87      0.00
   -9    4    5     -1.23      0.00
   -8    4    5     -1.75      0.00
   -7    4    5     -2.56      0.00
   -6    4    5     -3.88      0.00
   -5    4    5     -5.31      0.00
   -4    4    5     -5.84      0.00
   -3    4    5     -4.76      0.00
   -2    4    5     -2.56      0.00
   -1    4    5     -0.47      0.00
    0    4    5      0.62      0.00
    1    4    5      0.60      0.00
    2    4    5     -0.10      0.00
    3    4    5     -0.85      0.00
    4    4    5     -1.14      0.00
    5    4    5     -0.90      0.00
    6    4    5     -0.45      0.00
    7    4    5     -0.07      0.00
    8    4    5      0.07      0.00
    9    4    5     -0.02      0.00
   10    4    5     -0.07      0.00
   11    4    5      0.14      0.00
   12    4    5      0.37      0.00
   13    4    5      0.32      0.00
  -17    5    5      0.61      0.00
  -16    5    5      0.91      0.00
  -15    5    5      1.01      0.00
  -14    5    5      0.95      0.00
  -13    5    5      0.97      0.00
  -12    5    5      1.17      0.00
  -11    5    5      1.30      0.00
  -10    5    5      0.95      0.00
   -9    5    5      0.20      0.00
   -8    5    5     -0.70      0.00
   -7    5    5     -1.89      0.00
   -6    5    5     -3.53      0.00
   -5    5    5     -5.01      0.00
   -4    5    5     -5.37      0.00
   -3    5    5     -4.41      0.00
   -2    5    5     -2.87      0.00
   -1    5    5     -1.65      0.00
    0    5    5     -1.11      0.00
    1    5    5     -1.17      0.00
    2    5    5     -1.58      0.00
    3    5    5     -1.97      0.00
    4    5    5     -2.00      0.00
    5    5    5     -1.69      0.00
    6    5    5     -1.29      0.00
    7    5    5     -0.96      0.00
    8    5    5     -0.76      0.00
    9    5    5     -0.59      0.00
   10    5    5     -0.25      0.00
   11    5    5      0.21      0.00
   12    5    5      0.42      0.00
  -16    6    5      0.71      0.00
  -15    6    5      1.15      0.00
  -14    6    5      1.56      0.00
  -13    6    5      1.96      0.00
  -12    6    5      2.34      0.00
  -11    6    5      2.43      0.00
  -10    6    5      2.05      0.00
   -9    6    5      1.42      0.00
   -8    6    5      0.77      0.00
   -7    6    5     -0.07      0.00
   -6    6    5     -1.14      0.00
   -5    6    5     -1.88      0.00
   -4    6    5     -1.78      0.00
   -3    6    5     -0.98      0.00
   -2    6    5     -0.12      0.00
   -1    6    5      0.30      0.00
    0    6    5      0.21      0.00
    1    6    5     -0.28      0.00
    2    6    5     -0.95      0.00
    3    6    5     -1.49      0.00
    4    6    5     -1.67      0.00
    5    6    5     -1.51      0.00
    6    6    5     -1.25      0.00
    7    6    5     -1.07      0.00
    8    6    5     -0.94      0.00
    9    6    5     -0.67      0.00
   10    6    5     -0.18      0.00
   11    6    5      0.30      0.00
  -16    7    5      0.43      0.00
  -15    7    5      0.93      0.00
  -14    7    5      1.38      0.00
  -13    7    5      1.76      0.00
  -12    7    5      2.11      0.00
  -11    7    5      2.25      0.00
  -10    7    5      2.07      0.00
   -9    7    5      1.76      0.00
   -8    7    5      1.57      0.00
   -7    7    5      1.46      0.00
   -6    7    5      1.40      0.00
   -5    7    5      1.57      0.00
   -4    7    5      2.10      0.00
   -3    7    5      2.79      0.00
   -2    7    5      3.24      0.00
   -1    7    5      3.15      0.00
    0    7    5      2.53      0.00
    1    7    5      1.60      0.00
    2    7    5      0.65      0.00
    3    7    5     -0.07      0.00
    4    7    5     -0.39      0.00
    5    7    5     -0.39      0.00
    6    7    5     -0.37      0.00
    7    7    5     -0.47      0.00
    8    7    5     -0.53      0.00
    9    7    5     -0.32      0.00
   10    7    5      0.08      0.00
   11    7    5      0.35      0.00
  -16    8    5     -0.04      0.00
  -15    8    5      0.12      0.00
  -14    8    5      0.29      0.00
  -13    8    5      0.49      0.00
  -12    8    5      0.77      0.00
  -11    8    5      0.93      0.00
  -10    8    5      0.82      0.00
   -9    8    5      0.75      0.00
   -8    8    5      1.02      0.00
   -7    8    5      1.58      0.00
   -6    8    5      2.23      0.00
   -5    8    5      2.94      0.00
   -4    8    5      3.72      0.00
   -3    8    5      4.45      0.00
   -2    8    5      4.79      0.00
   -1    8    5      4.49      0.00
    0    8    5      3.66      0.00
    1    8    5      2.67      0.00
    2    8    5      1.82      0.00
    3    8    5      1.25      0.00
    4    8    5      0.92      0.00
    5    8    5      0.73      0.00
    6    8    5      0.46      0.00
    7    8    5      0.11      0.00
    8    8    5     -0.07      0.00
    9    8    5      0.04      0.00
  -16    9    5     -0.64      0.00
  -15    9    5     -0.83      0.00
  -14    9    5     -0.96      0.00
  -13    9    5     -1.01      0.00
  -12    9    5     -0.98      0.00
  -11    9    5     -1.03      0.00
  -10    9    5     -1.20      0.00
   -9    9    5     -1.15      0.00
   -8    9    5     -0.65      0.00
   -7    9    5      0.11      0.00
   -6    9    5      0.94      0.00
   -5    9    5      1.77      0.00
   -4    9    5      2.59      0.00
   -3    9    5      3.29      0.00
   -2    9    5      3.60      0.00
   -1    9    5      3.36      0.00
    0    9    5      2.79      0.00
    1    9    5      2.25      0.00
    2    9    5      1.87      0.00
    3    9    5      1.56      0.00
    4    9    5      1.24      0.00
    5    9    5      0.91      0.00
    6    9    5      0.52      0.00
    7    9    5      0.16      0.00
    8    9    5      0.02      0.00
  -16   10    5     -0.87      0.00
  -15   10    5     -1.24      0.00
  -14   10    5     -1.66      0.00
  -13   10    5     -2.06      0.00
  -12   10    5     -2.31      0.00
  -11   10    5     -2.53      0.00
  -10   10    5     -2.81      0.00
   -9   10    5     -2.87      0.00
   -8   10    5     -2.52      0.00
   -7   10    5     -1.97      0.00
   -6   10    5     -1.38      0.00
   -5   10    5     -0.79      0.00
   -4   10    5     -0.22      0.00
   -3   10    5      0.29      0.00
   -2   10    5      0.63      0.00
   -1   10    5      0.76      0.00
    0   10    5      0.77      0.00
    1   10    5      0.78      0.00
    2   10    5      0.78      0.00
    3   10    5      0.64      0.00
    4   10    5      0.40      0.00
    5   10    5      0.20      0.00
    6   10    5      0.01      0.00
    7   10    5     -0.15      0.00
    8   10    5     -0.17      0.00
  -15   11    5     -1.06      0.00
  -14   11    5     -1.68      0.00
  -13   11    5     -2.13      0.00
  -12   11    5     -2.28      0.00
  -11   11    5     -2.49      0.00
  -10   11    5     -2.99      0.00
   -9   11    5     -3.41      0.00
   -8   11    5     -3.44      0.00
   -7   11    5     -3.31      0.00
   -6   11    5     -3.21      0.00
   -5   11    5     -3.07      0.00
   -4   11    5     -2.84      0.00
   -3   11    5     -2.45      0.00
   -2   11    5     -1.97      0.00
   -1   11    5     -1.54      0.00
    0   11    5     -1.22      0.00
    1   11    5     -1.01      0.00
    2   11    5     -0.86      0.00
    3   11    5     -0.76      0.00
    4   11    5     -0.63      0.00
    5   11    5     -0.46      0.00
    6   11    5     -0.35      0.00
    7   11    5     -0.33      0.00
  -15   12    5     -0.67      0.00
  -14   12    5     -1.06      0.00
  -13   12    5     -1.05      0.00
  -12   12    5     -0.79      0.00
  -11   12    5     -0.95      0.00
  -10   12    5     -1.71      0.00
   -9   12    5     -2.39      0.00
   -8   12    5     -2.69      0.00
   -7   12    5     -2.96      0.00
   -6   12    5     -3.28      0.00
   -5   12    5     -3.42      0.00
   -4   12    5     -3.34      0.00
   -3   12    5     -3.11      0.00
   -2   12    5     -2.82      0.00
   -1   12    5     -2.56      0.00
    0   12    5     -2.39      0.00
    1   12    5     -2.21      0.00
    2   12    5     -1.91      0.00
    3   12    5     -1.43      0.00
    4   12    5     -0.89      0.00
    5   12    5     -0.46      0.00
  -13   13    5      0.36      0.00
  -12   13    5      0.91      0.00
  -11   13    5      0.85      0.00
  -10   13    5      0.18      0.00
   -9   13    5     -0.36      0.00
   -8   13    5     -0.58      0.00
   -7   13    5     -0.90      0.00
   -6   13    5     -1.22      0.00
   -5   13    5     -1.34      0.00
   -4   13    5     -1.47      0.00
   -3   13    5     -1.76      0.00
   -2   13    5     -2.03      0.00
   -1   13    5     -2.16      0.00
    0   13    5     -2.16      0.00
    1   13    5     -2.01      0.00
    2   13    5     -1.62      0.00
    3   13    5     -1.02      0.00
    4   13    5     -0.44      0.00
  -12   14    5      1.51      0.00
  -11   14    5      1.67      0.00
  -10   14    5      1.45      0.00
   -9   14    5      1.43      0.00
   -8   14    5      1.64      0.00
   -7   14    5      1.71      0.00
   -6   14    5      1.66      0.00
   -5   14    5      1.48      0.00
   -4   14    5      0.90      0.00
   -3   14    5      0.05      0.00
   -2   14    5     -0.59      0.00
   -1   14    5     -0.82      0.00
    0   14    5     -0.86      0.00
    1   14    5     -0.82      0.00
    2   14    5     -0.64      0.00
  -11   15    5      1.28      0.00
  -10   15    5      1.47      0.00
   -9   15    5      1.98      0.00
   -8   15    5      2.68      0.00
   -7   15    5      3.06      0.00
   -6   15    5      3.06      0.00
   -5   15    5      2.67      0.00
   -4   15    5      1.83      0.00
   -3   15    5      0.89      0.00
   -2   15    5      0.36      0.00
   -1   15    5      0.23      0.00
    0   15    5      0.17      0.00
   -8   16    5      2.08      0.00
   -7   16    5      2.35      0.00
   -6   16    5      2.22      0.00
   -5   16    5      1.82      0.00
   -4   16    5      1.17      0.00
    7  -18    6     -0.48      0.00
   -2  -17    6      0.72      0.00
   -1  -17    6      0.50      0.00
    0  -17    6      0.18      0.00
    1  -17    6     -0.17      0.00
    2  -17    6     -0.61      0.00
    3  -17    6     -1.06      0.00
    4  -17    6     -1.37      0.00
    5  -17    6     -1.52      0.00
    6  -17    6     -1.61      0.00
    7  -17    6     -1.72      0.00
    8  -17    6     -1.71      0.00
    9  -17    6     -1.33      0.00
   -4  -16    6      0.43      0.00
   -3  -16    6      0.86      0.00
   -2  -16    6      0.93      0.00
   -1  -16    6      0.65      0.00
    0  -16    6      0.20      0.00
    1  -16    6     -0.31      0.00
    2  -16    6     -0.78      0.00
    3  -16    6     -1.15      0.00
    4  -16    6     -1.49      0.00
    5  -16    6     -1.85      0.00
    6  -16    6     -2.14      0.00
    7  -16    6     -2.27      0.00
    8  -16    6     -2.13      0.00
    9  -16    6     -1.58      0.00
   10  -16    6     -0.84      0.00
   11  -16    6     -0.36      0.00
   12  -16    6     -0.26      0.00
   -5  -15    6      0.14      0.00
   -4  -15    6      0.76      0.00
   -3  -15    6      1.21      0.00
   -2  -15    6      1.20      0.00
   -1  -15    6      0.93      0.00
    0  -15    6      0.65      0.00
    1  -15    6      0.44      0.00
    2  -15    6      0.31      0.00
    3  -15    6      0.14      0.00
    4  -15    6     -0.24      0.00
    5  -15    6     -0.74      0.00
    6  -15    6     -1.05      0.00
    7  -15    6     -1.14      0.00
    8  -15    6     -1.06      0.00
    9  -15    6     -0.72      0.00
   10  -15    6     -0.24      0.00
   11  -15    6     -0.03      0.00
   12  -15    6     -0.14      0.00
   -6  -14    6     -0.16      0.00
   -5  -14    6      0.47      0.00
   -4  -14    6      1.15      0.00
   -3  -14    6      1.43      0.00
   -2  -14    6      1.40      0.00
   -1  -14    6      1.41      0.00
    0  -14    6      1.60      0.00
    1  -14    6      1.87      0.00
    2  -14    6      2.06      0.00
    3  -14    6      2.01      0.00
    4  -14    6      1.67      0.00
    5  -14    6      1.33      0.00
    6  -14    6      1.16      0.00
    7  -14    6      1.00      0.00
    8  -14    6      0.84      0.00
    9  -14    6      0.93      0.00
   10  -14    6      1.13      0.00
   11  -14    6      0.97      0.00
   12  -14    6      0.49      0.00
   13  -14    6      0.11      0.00
   -7  -13    6     -0.41      0.00
   -6  -13    6     -0.03      0.00
   -5  -13    6      0.56      0.00
   -4  -13    6      0.93      0.00
   -3  -13    6      1.04      0.00
   -2  -13    6      1.23      0.00
   -1  -13    6      1.63      0.00
    0  -13    6      2.12      0.00
    1  -13    6      2.53      0.00
    2  -13    6      2.74      0.00
    3  -13    6      2.72      0.00
    4  -13    6      2.62      0.00
    5  -13    6      2.63      0.00
    6  -13    6      2.68      0.00
    7  -13    6      2.59      0.00
    8  -13    6      2.51      0.00
    9  -13    6      2.62      0.00
   10  -13    6      2.56      0.00
   11  -13    6      1.96      0.00
   12  -13    6      1.17      0.00
   13  -13    6      0.65      0.00
   14  -13    6      0.34      0.00
   -9  -12    6     -0.38      0.00
   -8  -12    6     -0.58      0.00
   -7  -12    6     -0.52      0.00
   -6  -12    6     -0.29      0.00
   -5  -12    6     -0.13      0.00
   -4  -12    6     -0.10      0.00
   -3  -12    6      0.03      0.00
   -2  -12    6      0.35      0.00
   -1  -12    6      0.71      0.00
    0  -12    6      0.98      0.00
    1  -12    6      1.12      0.00
    2  -12    6      1.11      0.00
    3  -12    6      1.05      0.00
    4  -12    6      1.23      0.00
    5  -12    6      1.70      0.00
    6  -12    6      2.25      0.00
    7  -12    6      2.69      0.00
    8  -12    6      3.05      0.00
    9  -12    6      3.20      0.00
   10  -12    6      2.83      0.00
   11  -12    6      2.04      0.00
   12  -12    6      1.38      0.00
   13  -12    6      0.95      0.00
   14  -12    6      0.44      0.00
   -9  -11    6     -0.84      0.00
   -8  -11    6     -0.92      0.00
   -7  -11    6     -0.89      0.00
   -6  -11    6     -0.94      0.00
   -5  -11    6     -1.12      0.00
   -4  -11    6     -1.30      0.00
   -3  -11    6     -1.35      0.00
   -2  -11    6     -1.37      0.00
   -1  -11    6     -1.55      0.00
    0  -11    6     -1.87      0.00
    1  -11    6     -2.29      0.00
    2  -11    6     -2.75      0.00
    3  -11    6     -2.95      0.00
    4  -11    6     -2.50      0.00
    5  -11    6     -1.43      0.00
    6  -11    6     -0.13      0.00
    7  -11    6      1.03      0.00
    8  -11    6      1.78      0.00
    9  -11    6      1.98      0.00
   10  -11    6      1.67      0.00
   11  -11    6      1.22      0.00
   12  -11    6      0.89      0.00
   13  -11    6      0.54      0.00
   14  -11    6      0.00      0.00
  -11  -10    6     -0.51      0.00
  -10  -10    6     -1.10      0.00
   -9  -10    6     -1.36      0.00
   -8  -10    6     -1.24      0.00
   -7  -10    6     -1.06      0.00
   -6  -10    6     -1.12      0.00
   -5  -10    6     -1.49      0.00
   -4  -10    6     -2.00      0.00
   -3  -10    6     -2.51      0.00
   -2  -10    6     -3.09      0.00
   -1  -10    6     -3.94      0.00
    0  -10    6     -5.06      0.00
    1  -10    6     -6.33      0.00
    2  -10    6     -7.42      0.00
    3  -10    6     -7.80      0.00
    4  -10    6     -7.08      0.00
    5  -10    6     -5.47      0.00
    6  -10    6     -3.52      0.00
    7  -10    6     -1.80      0.00
    8  -10    6     -0.64      0.00
    9  -10    6     -0.05      0.00
   10  -10    6      0.13      0.00
   11  -10    6      0.05      0.00
   12  -10    6     -0.16      0.00
   13  -10    6     -0.38      0.00
   14  -10    6     -0.49      0.00
   15  -10    6     -0.33      0.00
  -12   -9    6     -0.04      0.00
  -11   -9    6     -0.85      0.00
  -10   -9    6     -1.53      0.00
   -9   -9    6     -1.47      0.00
   -8   -9    6     -0.79      0.00
   -7   -9    6     -0.20      0.00
   -6   -9    6     -0.23      0.00
   -5   -9    6     -0.83      0.00
   -4   -9    6     -1.62      0.00
   -3   -9    6     -2.36      0.00
   -2   -9    6     -3.23      0.00
   -1   -9    6     -4.61      0.00
    0   -9    6     -6.53      0.00
    1   -9    6     -8.68      0.00
    2   -9    6    -10.45      0.00
    3   -9    6    -11.11      0.00
    4   -9    6    -10.26      0.00
    5   -9    6     -8.23      0.00
    6   -9    6     -5.76      0.00
    7   -9    6     -3.56      0.00
    8   -9    6     -2.01      0.00
    9   -9    6     -1.10      0.00
   10   -9    6     -0.75      0.00
   11   -9    6     -0.87      0.00
   12   -9    6     -1.05      0.00
   13   -9    6     -0.91      0.00
   14   -9    6     -0.47      0.00
   15   -9    6      0.00      0.00
  -13   -8    6      0.27      0.00
  -12   -8    6     -0.31      0.00
  -11   -8    6     -1.12      0.00
  -10   -8    6     -1.31      0.00
   -9   -8    6     -0.45      0.00
   -8   -8    6      0.84      0.00
   -7   -8    6      1.59      0.00
   -6   -8    6      1.44      0.00
   -5   -8    6      0.80      0.00
   -4   -8    6      0.22      0.00
   -3   -8    6     -0.18      0.00
   -2   -8    6     -0.79      0.00
   -1   -8    6     -2.16      0.00
    0   -8    6     -4.44      0.00
    1   -8    6     -7.29      0.00
    2   -8    6     -9.83      0.00
    3   -8    6    -10.90      0.00
    4   -8    6     -9.90      0.00
    5   -8    6     -7.36      0.00
    6   -8    6     -4.44      0.00
    7   -8    6     -2.16      0.00
    8   -8    6     -0.89      0.00
    9   -8    6     -0.46      0.00
   10   -8    6     -0.59      0.00
   11   -8    6     -0.95      0.00
   12   -8    6     -1.03      0.00
   13   -8    6     -0.64      0.00
   14   -8    6     -0.12      0.00
   15   -8    6      0.19      0.00
  -13   -7    6     -0.09      0.00
  -12   -7    6     -0.66      0.00
  -11   -7    6     -0.93      0.00
  -10   -7    6     -0.21      0.00
   -9   -7    6      1.32      0.00
   -8   -7    6      2.75      0.00
   -7   -7    6      3.31      0.00
   -6   -7    6      3.11      0.00
   -5   -7    6      2.80      0.00
   -4   -7    6      2.99      0.00
   -3   -7    6      3.67      0.00
   -2   -7    6      4.16      0.00
   -1   -7    6      3.47      0.00
    0   -7    6      1.06      0.00
    1   -7    6     -2.58      0.00
    2   -7    6     -5.88      0.00
    3   -7    6     -7.02      0.00
    4   -7    6     -5.49      0.00
    5   -7    6     -2.46      0.00
    6   -7    6      0.36      0.00
    7   -7    6      1.88      0.00
    8   -7    6      2.04      0.00
    9   -7    6      1.39      0.00
   10   -7    6      0.53      0.00
   11   -7    6     -0.12      0.00
   12   -7    6     -0.26      0.00
   13   -7    6     -0.01      0.00
   14   -7    6      0.22      0.00
   15   -7    6      0.23      0.00
  -13   -6    6     -0.52      0.00
  -12   -6    6     -0.83      0.00
  -11   -6    6     -0.40      0.00
  -10   -6    6      0.92      0.00
   -9   -6    6      2.53      0.00
   -8   -6    6      3.64      0.00
   -7   -6    6      3.91      0.00
   -6   -6    6      3.72      0.00
   -5   -6    6      4.01      0.00
   -4   -6    6      5.57      0.00
   -3   -6    6      8.13      0.00
   -2   -6    6     10.14      0.00
   -1   -6    6      9.78      0.00
    0   -6    6      6.53      0.00
    1   -6    6      1.89      0.00
    2   -6    6     -1.54      0.00
    3   -6    6     -1.84      0.00
    4   -6    6      0.65      0.00
    5   -6    6      3.85      0.00
    6   -6    6      5.90      0.00
    7   -6    6      6.14      0.00
    8   -6    6      4.99      0.00
    9   -6    6      3.30      0.00
   10   -6    6      1.78      0.00
   11   -6    6      0.83      0.00
   12   -6    6      0.53      0.00
   13   -6    6      0.56      0.00
   14   -6    6      0.49      0.00
   15   -6    6      0.25      0.00
  -14   -5    6     -0.56      0.00
  -13   -5    6     -1.04      0.00
  -12   -5    6     -0.98      0.00
  -11   -5    6     -0.11      0.00
  -10   -5    6      1.22      0.00
   -9   -5    6      2.39      0.00
   -8   -5    6      2.91      0.00
   -7   -5    6      2.71      0.00
   -6   -5    6      2.48      0.00
   -5   -5    6      3.65      0.00
   -4   -5    6      7.00      0.00
   -3   -5    6     11.28      0.00
   -2   -5    6     13.64      0.00
   -1   -5    6     12.00      0.00
    0   -5    6      6.99      0.00
    1   -5    6      1.72      0.00
    2   -5    6     -0.56      0.00
    3   -5    6      1.12      0.00
    4   -5    6      4.96      0.00
    5   -5    6      8.16      0.00
    6   -5    6      9.19      0.00
    7   -5    6      8.20      0.00
    8   -5    6      6.06      0.00
    9   -5    6      3.78      0.00
   10   -5    6      2.05      0.00
   11   -5    6      1.16      0.00
   12   -5    6      0.94      0.00
   13   -5    6      0.88      0.00
   14   -5    6      0.59      0.00
   15   -5    6      0.18      0.00
  -14   -4    6     -1.36      0.00
  -13   -4    6     -1.63      0.00
  -12   -4    6     -1.13      0.00
  -11   -4    6     -0.11      0.00
  -10   -4    6      0.81      0.00
   -9   -4    6      1.13      0.00
   -8   -4    6      0.70      0.00
   -7   -4    6     -0.14      0.00
   -6   -4    6     -0.21      0.00
   -5   -4    6      1.97      0.00
   -4   -4    6      6.35      0.00
   -3   -4    6     10.43      0.00
   -2   -4    6     10.85      0.00
   -1   -4    6      6.40      0.00
    0   -4    6     -0.31      0.00
    1   -4    6     -4.80      0.00
    2   -4    6     -4.30      0.00
    3   -4    6      0.28      0.00
    4   -4    6      5.56      0.00
    5   -4    6      8.55      0.00
    6   -4    6      8.55      0.00
    7   -4    6      6.65      0.00
    8   -4    6      4.19      0.00
    9   -4    6      2.15      0.00
   10   -4    6      1.00      0.00
   11   -4    6      0.73      0.00
   12   -4    6      0.87      0.00
   13   -4    6      0.82      0.00
   14   -4    6      0.42      0.00
   15   -4    6      0.02      0.00
  -15   -3    6     -1.32      0.00
  -14   -3    6     -1.96      0.00
  -13   -3    6     -1.75      0.00
  -12   -3    6     -0.88      0.00
  -11   -3    6     -0.03      0.00
  -10   -3    6      0.13      0.00
   -9   -3    6     -0.65      0.00
   -8   -3    6     -2.03      0.00
   -7   -3    6     -3.11      0.00
   -6   -3    6     -2.71      0.00
   -5   -3    6     -0.21      0.00
   -4   -3    6      3.24      0.00
   -3   -3    6      4.65      0.00
   -2   -3    6      1.41      0.00
   -1   -3    6     -5.86      0.00
    0   -3    6    -12.69      0.00
    1   -3    6    -14.34      0.00
    2   -3    6     -9.93      0.00
    3   -3    6     -2.72      0.00
    4   -3    6      3.04      0.00
    5   -3    6      5.17      0.00
    6   -3    6      4.27      0.00
    7   -3    6      2.16      0.00
    8   -3    6      0.31      0.00
    9   -3    6     -0.67      0.00
   10   -3    6     -0.70      0.00
   11   -3    6     -0.14      0.00
   12   -3    6      0.41      0.00
   13   -3    6      0.49      0.00
   14   -3    6      0.18      0.00
   15   -3    6     -0.04      0.00
  -15   -2    6     -1.39      0.00
  -14   -2    6     -1.67      0.00
  -13   -2    6     -1.16      0.00
  -12   -2    6     -0.33      0.00
  -11   -2    6      0.08      0.00
  -10   -2    6     -0.46      0.00
   -9   -2    6     -1.89      0.00
   -8   -2    6     -3.43      0.00
   -7   -2    6     -4.06      0.00
   -6   -2    6     -3.29      0.00
   -5   -2    6     -1.62      0.00
   -4   -2    6     -0.76      0.00
   -3   -2    6     -3.13      0.00
   -2   -2    6     -9.73      0.00
   -1   -2    6    -17.93      0.00
    0   -2    6    -22.43      0.00
    1   -2    6    -19.99      0.00
    2   -2    6    -12.51      0.00
    3   -2    6     -4.78      0.00
    4   -2    6     -0.32      0.00
    5   -2    6      0.41      0.00
    6   -2    6     -0.98      0.00
    7   -2    6     -2.52      0.00
    8   -2    6     -3.18      0.00
    9   -2    6     -2.88      0.00
   10   -2    6     -1.98      0.00
   11   -2    6     -0.91      0.00
   12   -2    6     -0.14      0.00
   13   -2    6      0.10      0.00
   14   -2    6      0.04      0.00
  -15   -1    6     -0.74      0.00
  -14   -1    6     -0.86      0.00
  -13   -1    6     -0.44      0.00
  -12   -1    6      0.14      0.00
  -11   -1    6      0.30      0.00
  -10   -1    6     -0.29      0.00
   -9   -1    6     -1.36      0.00
   -8   -1    6     -2.11      0.00
   -7   -1    6     -1.95      0.00
   -6   -1    6     -1.16      0.00
   -5   -1    6     -0.86      0.00
   -4   -1    6     -2.62      0.00
   -3   -1    6     -7.67      0.00
   -2   -1    6    -15.23      0.00
   -1   -1    6    -21.56      0.00
    0   -1    6    -22.32      0.00
    1   -1    6    -16.91      0.00
    2   -1    6     -9.20      0.00
    3   -1    6     -3.56      0.00
    4   -1    6     -1.61      0.00
    5   -1    6     -2.38      0.00
    6   -1    6     -3.92      0.00
    7   -1    6     -4.68      0.00
    8   -1    6     -4.28      0.00
    9   -1    6     -3.22      0.00
   10   -1    6     -2.08      0.00
   11   -1    6     -1.17      0.00
   12   -1    6     -0.56      0.00
   13   -1    6     -0.23      0.00
  -16    0    6      0.18      0.00
  -15    0    6     -0.17      0.00
  -14    0    6     -0.25      0.00
  -13    0    6      0.15      0.00
  -12    0    6      0.73      0.00
  -11    0    6      1.11      0.00
  -10    0    6      1.13      0.00
   -9    0    6      1.06      0.00
   -8    0    6      1.41      0.00
   -7    0    6      2.30      0.00
   -6    0    6      3.00      0.00
   -5    0    6      2.33      0.00
   -4    0    6     -0.66      0.00
   -3    0    6     -5.91      0.00
   -2    0    6    -11.55      0.00
   -1    0    6    -14.33      0.00
    0    0    6    -12.16      0.00
    1    0    6     -6.51      0.00
    2    0    6     -1.20      0.00
    3    0    6      1.08      0.00
    4    0    6      0.40      0.00
    5    0    6     -1.61      0.00
    6    0    6     -3.19      0.00
    7    0    6     -3.45      0.00
    8    0    6     -2.67      0.00
    9    0    6     -1.74      0.00
   10    0    6     -1.19      0.00
   11    0    6     -0.94      0.00
   12    0    6     -0.70      0.00
   13    0    6     -0.35      0.00
   14    0    6      0.05      0.00
  -16    1    6      0.12      0.00
  -15    1    6      0.01      0.00
  -14    1    6      0.25      0.00
  -13    1    6      0.95      0.00
  -12    1    6      1.79      0.00
  -11    1    6      2.52      0.00
  -10    1    6      3.15      0.00
   -9    1    6      3.91      0.00
   -8    1    6      5.04      0.00
   -7    1    6      6.34      0.00
   -6    1    6      7.01      0.00
   -5    1    6      6.12      0.00
   -4    1    6      3.49      0.00
   -3    1    6      0.07      0.00
   -2    1    6     -2.30      0.00
   -1    1    6     -1.94      0.00
    0    1    6      1.21      0.00
    1    1    6      5.15      0.00
    2    1    6      7.30      0.00
    3    1    6      6.64      0.00
    4    1    6      4.16      0.00
    5    1    6      1.60      0.00
    6    1    6      0.15      0.00
    7    1    6     -0.08      0.00
    8    1    6      0.23      0.00
    9    1    6      0.32      0.00
   10    1    6      0.00      0.00
   11    1    6     -0.38      0.00
   12    1    6     -0.43      0.00
   13    1    6     -0.15      0.00
  -16    2    6     -0.14      0.00
  -15    2    6      0.16      0.00
  -14    2    6      0.87      0.00
  -13    2    6      1.87      0.00
  -12    2    6      2.80      0.00
  -11    2    6      3.56      0.00
  -10    2    6      4.34      0.00
   -9    2    6      5.32      0.00
   -8    2    6      6.56      0.00
   -7    2    6      7.81      0.00
   -6    2    6      8.35      0.00
   -5    2    6      7.65      0.00
   -4    2    6      6.11      0.00
   -3    2    6      4.93      0.00
   -2    2    6      5.22      0.00
   -1    2    6      7.21      0.00
    0    2    6      9.97      0.00
    1    2    6     11.95      0.00
    2    2    6     11.88      0.00
    3    2    6      9.82      0.00
    4    2    6      7.04      0.00
    5    2    6      4.86      0.00
    6    2    6      3.66      0.00
    7    2    6      3.06      0.00
    8    2    6      2.57      0.00
    9    2    6      1.86      0.00
   10    2    6      0.96      0.00
   11    2    6      0.23      0.00
   12    2    6     -0.01      0.00
   13    2    6      0.13      0.00
  -16    3    6     -0.21      0.00
  -15    3    6      0.36      0.00
  -14    3    6      1.24      0.00
  -13    3    6      2.15      0.00
  -12    3    6      2.82      0.00
  -11    3    6      3.30      0.00
  -10    3    6      3.81      0.00
   -9    3    6      4.41      0.00
   -8    3    6      5.13      0.00
   -7    3    6      5.81      0.00
   -6    3    6      5.96      0.00
   -5    3    6      5.34      0.00
   -4    3    6      4.58      0.00
   -3    3    6      4.74      0.00
   -2    3    6      6.24      0.00
   -1    3    6      8.52      0.00
    0    3    6     10.55      0.00
    1    3    6     11.45      0.00
    2    3    6     10.84      0.00
    3    3    6      9.14      0.00
    4    3    6      7.32      0.00
    5    3    6      6.00      0.00
    6    3    6      5.10      0.00
    7    3    6      4.30      0.00
    8    3    6      3.42      0.00
    9    3    6      2.36      0.00
   10    3    6      1.21      0.00
   11    3    6      0.39      0.00
   12    3    6      0.15      0.00
   13    3    6      0.23      0.00
  -17    4    6     -0.33      0.00
  -16    4    6     -0.16      0.00
  -15    4    6      0.33      0.00
  -14    4    6      0.97      0.00
  -13    4    6      1.48      0.00
  -12    4    6      1.72      0.00
  -11    4    6      1.87      0.00
  -10    4    6      1.94      0.00
   -9    4    6      1.84      0.00
   -8    4    6      1.69      0.00
   -7    4    6      1.54      0.00
   -6    4    6      1.00      0.00
   -5    4    6      0.01      0.00
   -4    4    6     -0.74      0.00
   -3    4    6     -0.36      0.00
   -2    4    6      1.16      0.00
   -1    4    6      3.08      0.00
    0    4    6      4.70      0.00
    1    4    6      5.65      0.00
    2    4    6      5.81      0.00
    3    4    6      5.34      0.00
    4    4    6      4.75      0.00
    5    4    6      4.36      0.00
    6    4    6      4.03      0.00
    7    4    6      3.50      0.00
    8    4    6      2.67      0.00
    9    4    6      1.59      0.00
   10    4    6      0.55      0.00
   11    4    6      0.03      0.00
   12    4    6      0.05      0.00
  -17    5    6     -0.22      0.00
  -16    5    6     -0.15      0.00
  -15    5    6      0.12      0.00
  -14    5    6      0.41      0.00
  -13    5    6      0.53      0.00
  -12    5    6      0.52      0.00
  -11    5    6      0.44      0.00
  -10    5    6      0.06      0.00
   -9    5    6     -0.75      0.00
   -8    5    6     -1.71      0.00
   -7    5    6     -2.73      0.00
   -6    5    6     -4.13      0.00
   -5    5    6     -5.82      0.00
   -4    5    6     -6.99      0.00
   -3    5    6     -6.95      0.00
   -2    5    6     -5.86      0.00
   -1    5    6     -4.31      0.00
    0    5    6     -2.68      0.00
    1    5    6     -1.20      0.00
    2    5    6     -0.16      0.00
    3    5    6      0.38      0.00
    4    5    6      0.77      0.00
    5    5    6      1.24      0.00
    6    5    6      1.55      0.00
    7    5    6      1.38      0.00
    8    5    6      0.78      0.00
    9    5    6      0.05      0.00
   10    5    6     -0.40      0.00
   11    5    6     -0.34      0.00
  -16    6    6     -0.08      0.00
  -15    6    6      0.10      0.00
  -14    6    6      0.23      0.00
  -13    6    6      0.25      0.00
  -12    6    6      0.23      0.00
  -11    6    6      0.04      0.00
  -10    6    6     -0.65      0.00
   -9    6    6     -1.90      0.00
   -8    6    6     -3.36      0.00
   -7    6    6     -5.01      0.00
   -6    6    6     -7.02      0.00
   -5    6    6     -9.11      0.00
   -4    6    6    -10.51      0.00
   -3    6    6    -10.77      0.00
   -2    6    6    -10.08      0.00
   -1    6    6     -8.83      0.00
    0    6    6     -7.27      0.00
    1    6    6     -5.67      0.00
    2    6    6     -4.34      0.00
    3    6    6     -3.35      0.00
    4    6    6     -2.43      0.00
    5    6    6     -1.51      0.00
    6    6    6     -0.91      0.00
    7    6    6     -0.83      0.00
    8    6    6     -1.00      0.00
    9    6    6     -1.05      0.00
   10    6    6     -0.81      0.00
  -16    7    6      0.15      0.00
  -15    7    6      0.40      0.00
  -14    7    6      0.60      0.00
  -13    7    6      0.72      0.00
  -12    7    6      0.83      0.00
  -11    7    6      0.74      0.00
  -10    7    6      0.07      0.00
   -9    7    6     -1.17      0.00
   -8    7    6     -2.67      0.00
   -7    7    6     -4.36      0.00
   -6    7    6     -6.25      0.00
   -5    7    6     -8.07      0.00
   -4    7    6     -9.30      0.00
   -3    7    6     -9.69      0.00
   -2    7    6     -9.34      0.00
   -1    7    6     -8.55      0.00
    0    7    6     -7.51      0.00
    1    7    6     -6.34      0.00
    2    7    6     -5.27      0.00
    3    7    6     -4.37      0.00
    4    7    6     -3.56      0.00
    5    7    6     -2.75      0.00
    6    7    6     -2.11      0.00
    7    7    6     -1.75      0.00
    8    7    6     -1.46      0.00
    9    7    6     -1.06      0.00
   10    7    6     -0.59      0.00
  -16    8    6      0.39      0.00
  -15    8    6      0.69      0.00
  -14    8    6      0.97      0.00
  -13    8    6      1.26      0.00
  -12    8    6      1.67      0.00
  -11    8    6      1.95      0.00
  -10    8    6      1.66      0.00
   -9    8    6      0.80      0.00
   -8    8    6     -0.23      0.00
   -7    8    6     -1.28      0.00
   -6    8    6     -2.43      0.00
   -5    8    6     -3.61      0.00
   -4    8    6     -4.50      0.00
   -3    8    6     -4.86      0.00
   -2    8    6     -4.80      0.00
   -1    8    6     -4.60      0.00
    0    8    6     -4.31      0.00
    1    8    6     -3.83      0.00
    2    8    6     -3.32      0.00
    3    8    6     -2.99      0.00
    4    8    6     -2.71      0.00
    5    8    6     -2.22      0.00
    6    8    6     -1.60      0.00
    7    8    6     -1.14      0.00
    8    8    6     -0.82      0.00
    9    8    6     -0.49      0.00
  -16    9    6      0.41      0.00
  -15    9    6      0.68      0.00
  -14    9    6      0.97      0.00
  -13    9    6      1.41      0.00
  -12    9    6      2.15      0.00
  -11    9    6      2.88      0.00
  -10    9    6      3.06      0.00
   -9    9    6      2.77      0.00
   -8    9    6      2.48      0.00
   -7    9    6      2.27      0.00
   -6    9    6      1.91      0.00
   -5    9    6      1.40      0.00
   -4    9    6      0.99      0.00
   -3    9    6      0.82      0.00
   -2    9    6      0.68      0.00
   -1    9    6      0.36      0.00
    0    9    6      0.01      0.00
    1    9    6     -0.16      0.00
    2    9    6     -0.30      0.00
    3    9    6     -0.59      0.00
    4    9    6     -0.81      0.00
    5    9    6     -0.62      0.00
    6    9    6     -0.24      0.00
    7    9    6     -0.09      0.00
    8    9    6     -0.11      0.00
  -15   10    6      0.49      0.00
  -14   10    6      0.70      0.00
  -13   10    6      1.08      0.00
  -12   10    6      1.87      0.00
  -11   10    6      2.79      0.00
  -10   10    6      3.31      0.00
   -9   10    6      3.48      0.00
   -8   10    6      3.73      0.00
   -7   10    6      4.07      0.00
   -6   10    6      4.29      0.00
   -5   10    6      4.42      0.00
   -4   10    6      4.53      0.00
   -3   10    6      4.55      0.00
   -2   10    6      4.32      0.00
   -1   10    6      3.76      0.00
    0   10    6      3.10      0.00
    1   10    6      2.56      0.00
    2   10    6      2.01      0.00
    3   10    6      1.35      0.00
    4   10    6      0.81      0.00
    5   10    6      0.67      0.00
    6   10    6      0.66      0.00
    7   10    6      0.42      0.00
  -15   11    6      0.32      0.00
  -14   11    6      0.29      0.00
  -13   11    6      0.28      0.00
  -12   11    6      0.74      0.00
  -11   11    6      1.54      0.00
  -10   11    6      2.07      0.00
   -9   11    6      2.34      0.00
   -8   11    6      2.74      0.00
   -7   11    6      3.29      0.00
   -6   11    6      3.85      0.00
   -5   11    6      4.37      0.00
   -4   11    6      4.77      0.00
   -3   11    6      4.93      0.00
   -2   11    6      4.81      0.00
   -1   11    6      4.39      0.00
    0   11    6      3.80      0.00
    1   11    6      3.20      0.00
    2   11    6      2.57      0.00
    3   11    6      1.83      0.00
    4   11    6      1.21      0.00
    5   11    6      0.90      0.00
    6   11    6      0.71      0.00
  -14   12    6     -0.15      0.00
  -13   12    6     -0.61      0.00
  -12   12    6     -0.62      0.00
  -11   12    6     -0.22      0.00
  -10   12    6     -0.02      0.00
   -9   12    6      0.02      0.00
   -8   12    6      0.32      0.00
   -7   12    6      0.82      0.00
   -6   12    6      1.32      0.00
   -5   12    6      1.86      0.00
   -4   12    6      2.36      0.00
   -3   12    6      2.73      0.00
   -2   12    6      2.88      0.00
   -1   12    6      2.73      0.00
    0   12    6      2.34      0.00
    1   12    6      1.92      0.00
    2   12    6      1.50      0.00
    3   12    6      1.02      0.00
    4   12    6      0.63      0.00
    5   12    6      0.46      0.00
  -13   13    6     -0.99      0.00
  -12   13    6     -1.34      0.00
  -11   13    6     -1.40      0.00
  -10   13    6     -1.64      0.00
   -9   13    6     -1.90      0.00
   -8   13    6     -1.84      0.00
   -7   13    6     -1.66      0.00
   -6   13    6     -1.44      0.00
   -5   13    6     -0.96      0.00
   -4   13    6     -0.35      0.00
   -3   13    6      0.11      0.00
   -2   13    6      0.33      0.00
   -1   13    6      0.30      0.00
    0   13    6      0.17      0.00
    1   13    6      0.09      0.00
    2   13    6      0.08      0.00
    3   13    6      0.05      0.00
  -12   14    6     -1.12      0.00
  -11   14    6     -1.40      0.00
  -10   14    6     -1.91      0.00
   -9   14    6     -2.40      0.00
   -8   14    6     -2.61      0.00
   -7   14    6     -2.68      0.00
   -6   14    6     -2.52      0.00
   -5   14    6     -2.00      0.00
   -4   14    6     -1.47      0.00
   -3   14    6     -1.26      0.00
   -2   14    6     -1.22      0.00
   -1   14    6     -1.16      0.00
    0   14    6     -1.00      0.00
    1   14    6     -0.75      0.00
  -10   15    6     -1.21      0.00
   -9   15    6     -1.73      0.00
   -8   15    6     -1.93      0.00
   -7   15    6     -1.91      0.00
   -6   15    6     -1.65      0.00
   -5   15    6     -1.22      0.00
   -4   15    6     -1.04      0.00
   -3   15    6     -1.17      0.00
   -2   15    6     -1.23      0.00
   -1   15    6     -1.05      0.00
    6  -18    7      1.27      0.00
    7  -18    7      1.29      0.00
   -1  -17    7      0.28      0.00
    0  -17    7      0.66      0.00
    1  -17    7      1.01      0.00
    2  -17    7      1.16      0.00
    3  -17    7      1.18      0.00
    4  -17    7      1.17      0.00
    5  -17    7      1.22      0.00
    6  -17    7      1.27      0.00
    7  -17    7      1.13      0.00
    8  -17    7      0.71      0.00
    9  -17    7      0.25      0.00
   -3  -16    7     -0.43      0.00
   -2  -16    7     -0.30      0.00
   -1  -16    7     -0.15      0.00
    0  -16    7     -0.06      0.00
    1  -16    7     -0.09      0.00
    2  -16    7     -0.13      0.00
    3  -16    7     -0.13      0.00
    4  -16    7     -0.24      0.00
    5  -16    7     -0.48      0.00
    6  -16    7     -0.64      0.00
    7  -16    7     -0.77      0.00
    8  -16    7     -1.04      0.00
    9  -16    7     -1.22      0.00
   10  -16    7     -0.90      0.00
   11  -16    7     -0.24      0.00
   -5  -15    7     -1.12      0.00
   -4  -15    7     -1.13      0.00
   -3  -15    7     -1.02      0.00
   -2  -15    7     -1.10      0.00
   -1  -15    7     -1.37      0.00
    0  -15    7     -1.74      0.00
    1  -15    7     -2.04      0.00
    2  -15    7     -2.16      0.00
    3  -15    7     -2.29      0.00
    4  -15    7     -2.69      0.00
    5  -15    7     -3.17      0.00
    6  -15    7     -3.34      0.00
    7  -15    7     -3.30      0.00
    8  -15    7     -3.27      0.00
    9  -15    7     -2.90      0.00
   10  -15    7     -1.87      0.00
   11  -15    7     -0.69      0.00
   12  -15    7     -0.07      0.00
   -6  -14    7     -1.33      0.00
   -5  -14    7     -1.58      0.00
   -4  -14    7     -1.47      0.00
   -3  -14    7     -1.52      0.00
   -2  -14    7     -1.88      0.00
   -1  -14    7     -2.31      0.00
    0  -14    7     -2.63      0.00
    1  -14    7     -2.83      0.00
    2  -14    7     -3.02      0.00
    3  -14    7     -3.40      0.00
    4  -14    7     -4.05      0.00
    5  -14    7     -4.56      0.00
    6  -14    7     -4.62      0.00
    7  -14    7     -4.41      0.00
    8  -14    7     -4.06      0.00
    9  -14    7     -3.25      0.00
   10  -14    7     -1.99      0.00
   11  -14    7     -0.99      0.00
   12  -14    7     -0.62      0.00
   13  -14    7     -0.51      0.00
   -7  -13    7     -1.26      0.00
   -6  -13    7     -1.53      0.00
   -5  -13    7     -1.50      0.00
   -4  -13    7     -1.43      0.00
   -3  -13    7     -1.55      0.00
   -2  -13    7     -1.66      0.00
   -1  -13    7     -1.58      0.00
    0  -13    7     -1.43      0.00
    1  -13    7     -1.44      0.00
    2  -13    7     -1.69      0.00
    3  -13    7     -2.24      0.00
    4  -13    7     -2.91      0.00
    5  -13    7     -3.34      0.00
    6  -13    7     -3.35      0.00
    7  -13    7     -3.05      0.00
    8  -13    7     -2.51      0.00
    9  -13    7     -1.68      0.00
   10  -13    7     -0.86      0.00
   11  -13    7     -0.50      0.00
   12  -13    7     -0.47      0.00
   13  -13    7     -0.30      0.00
   -9  -12    7     -0.92      0.00
   -8  -12    7     -1.20      0.00
   -7  -12    7     -1.24      0.00
   -6  -12    7     -1.13      0.00
   -5  -12    7     -1.00      0.00
   -4  -12    7     -0.87      0.00
   -3  -12    7     -0.57      0.00
   -2  -12    7      0.04      0.00
   -1  -12    7      0.78      0.00
    0  -12    7      1.30      0.00
    1  -12    7      1.44      0.00
    2  -12    7      1.17      0.00
    3  -12    7      0.56      0.00
    4  -12    7     -0.11      0.00
    5  -12    7     -0.49      0.00
    6  -12    7     -0.42      0.00
    7  -12    7      0.01      0.00
    8  -12    7      0.60      0.00
    9  -12    7      1.10      0.00
   10  -12    7      1.26      0.00
   11  -12    7      1.06      0.00
   12  -12    7      0.85      0.00
   13  -12    7      0.84      0.00
   14  -12    7      0.73      0.00
   -9  -11    7     -0.96      0.00
   -8  -11    7     -0.90      0.00
   -7  -11    7     -0.64      0.00
   -6  -11    7     -0.37      0.00
   -5  -11    7     -0.08      0.00
   -4  -11    7      0.40      0.00
   -3  -11    7      1.22      0.00
   -2  -11    7      2.29      0.00
   -1  -11    7      3.30      0.00
    0  -11    7      3.98      0.00
    1  -11    7      4.15      0.00
    2  -11    7      3.72      0.00
    3  -11    7      2.86      0.00
    4  -11    7      2.08      0.00
    5  -11    7      1.81      0.00
    6  -11    7      2.14      0.00
    7  -11    7      2.81      0.00
    8  -11    7      3.35      0.00
    9  -11    7      3.47      0.00
   10  -11    7      3.21      0.00
   11  -11    7      2.84      0.00
   12  -11    7      2.49      0.00
   13  -11    7      2.05      0.00
   14  -11    7      1.31      0.00
  -11  -10    7     -0.25      0.00
  -10  -10    7     -0.45      0.00
   -9  -10    7     -0.48      0.00
   -8  -10    7     -0.19      0.00
   -7  -10    7      0.25      0.00
   -6  -10    7      0.65      0.00
   -5  -10    7      1.09      0.00
   -4  -10    7      1.68      0.00
   -3  -10    7      2.51      0.00
   -2  -10    7      3.54      0.00
   -1  -10    7      4.53      0.00
    0  -10    7      5.07      0.00
    1  -10    7      4.87      0.00
    2  -10    7      3.88      0.00
    3  -10    7      2.58      0.00
    4  -10    7      1.67      0.00
    5  -10    7      1.59      0.00
    6  -10    7      2.28      0.00
    7  -10    7      3.25      0.00
    8  -10    7      3.86      0.00
    9  -10    7      3.93      0.00
   10  -10    7      3.74      0.00
   11  -10    7      3.45      0.00
   12  -10    7      2.94      0.00
   13  -10    7      2.13      0.00
   14  -10    7      1.11      0.00
   15  -10    7      0.24      0.00
  -12   -9    7      0.24      0.00
  -11   -9    7      0.23      0.00
  -10   -9    7      0.01      0.00
   -9   -9    7      0.08      0.00
   -8   -9    7      0.58      0.00
   -7   -9    7      1.14      0.00
   -6   -9    7      1.47      0.00
   -5   -9    7      1.63      0.00
   -4   -9    7      1.84      0.00
   -3   -9    7      2.35      0.00
   -2   -9    7      3.18      0.00
   -1   -9    7      3.87      0.00
    0   -9    7      3.81      0.00
    1   -9    7      2.75      0.00
    2   -9    7      0.95      0.00
    3   -9    7     -0.89      0.00
    4   -9    7     -1.95      0.00
    5   -9    7     -1.83      0.00
    6   -9    7     -0.65      0.00
    7   -9    7      0.86      0.00
    8   -9    7      1.92      0.00
    9   -9    7      2.38      0.00
   10   -9    7      2.47      0.00
   11   -9    7      2.17      0.00
   12   -9    7      1.49      0.00
   13   -9    7      0.74      0.00
   14   -9    7      0.17      0.00
   15   -9    7     -0.12      0.00
  -13   -8    7      0.55      0.00
  -12   -8    7      0.81      0.00
  -11   -8    7      0.50      0.00
  -10   -8    7      0.13      0.00
   -9   -8    7      0.38      0.00
   -8   -8    7      1.11      0.00
   -7   -8    7      1.60      0.00
   -6   -8    7      1.51      0.00
   -5   -8    7      1.10      0.00
   -4   -8    7      0.87      0.00
   -3   -8    7      1.15      0.00
   -2   -8    7      1.79      0.00
   -1   -8    7      2.02      0.00
    0   -8    7      1.13      0.00
    1   -8    7     -1.01      0.00
    2   -8    7     -3.87      0.00
    3   -8    7     -6.38      0.00
    4   -8    7     -7.48      0.00
    5   -8    7     -6.74      0.00
    6   -8    7     -4.68      0.00
    7   -8    7     -2.38      0.00
    8   -8    7     -0.76      0.00
    9   -8    7     -0.01      0.00
   10   -8    7      0.05      0.00
   11   -8    7     -0.44      0.00
   12   -8    7     -1.04      0.00
   13   -8    7     -1.20      0.00
   14   -8    7     -0.89      0.00
   15   -8    7     -0.44      0.00
  -13   -7    7      0.79      0.00
  -12   -7    7      0.59      0.00
  -11   -7    7     -0.04      0.00
  -10   -7    7     -0.27      0.00
   -9   -7    7      0.34      0.00
   -8   -7    7      1.20      0.00
   -7   -7    7      1.46      0.00
   -6   -7    7      0.95      0.00
   -5   -7    7      0.17      0.00
   -4   -7    7     -0.21      0.00
   -3   -7    7      0.16      0.00
   -2   -7    7      0.95      0.00
   -1   -7    7      1.08      0.00
    0   -7    7     -0.52      0.00
    1   -7    7     -3.94      0.00
    2   -7    7     -8.08      0.00
    3   -7    7    -11.06      0.00
    4   -7    7    -11.51      0.00
    5   -7    7     -9.59      0.00
    6   -7    7     -6.56      0.00
    7   -7    7     -3.86      0.00
    8   -7    7     -2.34      0.00
    9   -7    7     -1.97      0.00
   10   -7    7     -2.32      0.00
   11   -7    7     -2.88      0.00
   12   -7    7     -3.02      0.00
   13   -7    7     -2.42      0.00
   14   -7    7     -1.43      0.00
   15   -7    7     -0.54      0.00
  -13   -6    7      0.05      0.00
  -12   -6    7     -0.61      0.00
  -11   -6    7     -1.15      0.00
  -10   -6    7     -0.87      0.00
   -9   -6    7      0.10      0.00
   -8   -6    7      0.93      0.00
   -7   -6    7      0.95      0.00
   -6   -6    7      0.22      0.00
   -5   -6    7     -0.57      0.00
   -4   -6    7     -0.51      0.00
   -3   -6    7      0.83      0.00
   -2   -6    7      2.66      0.00
   -1   -6    7      3.11      0.00
    0   -6    7      0.69      0.00
    1   -6    7     -4.16      0.00
    2   -6    7     -9.15      0.00
    3   -6    7    -11.67      0.00
    4   -6    7    -10.82      0.00
    5   -6    7     -7.81      0.00
    6   -6    7     -4.60      0.00
    7   -6    7     -2.56      0.00
    8   -6    7     -2.07      0.00
    9   -6    7     -2.65      0.00
   10   -6    7     -3.45      0.00
   11   -6    7     -3.82      0.00
   12   -6    7     -3.41      0.00
   13   -6    7     -2.37      0.00
   14   -6    7     -1.21      0.00
   15   -6    7     -0.37      0.00
  -14   -5    7     -0.44      0.00
  -13   -5    7     -1.17      0.00
  -12   -5    7     -1.88      0.00
  -11   -5    7     -1.95      0.00
  -10   -5    7     -1.19      0.00
   -9   -5    7     -0.17      0.00
   -8   -5    7      0.33      0.00
   -7   -5    7      0.00      0.00
   -6   -5    7     -0.78      0.00
   -5   -5    7     -0.93      0.00
   -4   -5    7      0.69      0.00
   -3   -5    7      4.08      0.00
   -2   -5    7      7.36      0.00
   -1   -5    7      7.77      0.00
    0   -5    7      4.18      0.00
    1   -5    7     -1.63      0.00
    2   -5    7     -6.27      0.00
    3   -5    7     -7.40      0.00
    4   -5    7     -5.26      0.00
    5   -5    7     -2.03      0.00
    6   -5    7      0.23      0.00
    7   -5    7      0.70      0.00
    8   -5    7     -0.33      0.00
    9   -5    7     -1.85      0.00
   10   -5    7     -2.87      0.00
   11   -5    7     -2.97      0.00
   12   -5    7     -2.27      0.00
   13   -5    7     -1.25      0.00
   14   -5    7     -0.43      0.00
   15   -5    7     -0.07      0.00
  -14   -4    7     -1.14      0.00
  -13   -4    7     -1.91      0.00
  -12   -4    7     -2.25      0.00
  -11   -4    7     -1.91      0.00
  -10   -4    7     -1.14      0.00
   -9   -4    7     -0.64      0.00
   -8   -4    7     -0.85      0.00
   -7   -4    7     -1.60      0.00
   -6   -4    7     -1.96      0.00
   -5   -4    7     -0.57      0.00
   -4   -4    7      3.37      0.00
   -3   -4    7      8.75      0.00
   -2   -4    7     12.56      0.00
   -1   -4    7     12.00      0.00
    0   -4    7      7.23      0.00
    1   -4    7      1.51      0.00
    2   -4    7     -1.62      0.00
    3   -4    7     -0.94      0.00
    4   -4    7      2.03      0.00
    5   -4    7      4.65      0.00
    6   -4    7      5.26      0.00
    7   -4    7      3.89      0.00
    8   -4    7      1.65      0.00
    9   -4    7     -0.23      0.00
   10   -4    7     -1.09      0.00
   11   -4    7     -0.98      0.00
   12   -4    7     -0.35      0.00
   13   -4    7      0.22      0.00
   14   -4    7      0.36      0.00
   15   -4    7      0.11      0.00
  -15   -3    7     -0.69      0.00
  -14   -3    7     -1.34      0.00
  -13   -3    7     -1.70      0.00
  -12   -3    7     -1.65      0.00
  -11   -3    7     -1.34      0.00
  -10   -3    7     -1.18      0.00
   -9   -3    7     -1.61      0.00
   -8   -3    7     -2.56      0.00
   -7   -3    7     -3.29      0.00
   -6   -3    7     -2.59      0.00
   -5   -3    7      0.56      0.00
   -4   -3    7      6.03      0.00
   -3   -3    7     11.73      0.00
   -2   -3    7     14.38      0.00
   -1   -3    7     12.10      0.00
    0   -3    7      6.62      0.00
    1   -3    7      2.03      0.00
    2   -3    7      1.15      0.00
    3   -3    7      3.62      0.00
    4   -3    7      6.89      0.00
    5   -3    7      8.41      0.00
    6   -3    7      7.39      0.00
    7   -3    7      4.91      0.00
    8   -3    7      2.56      0.00
    9   -3    7      1.22      0.00
   10   -3    7      0.89      0.00
   11   -3    7      1.10      0.00
   12   -3    7      1.33      0.00
   13   -3    7      1.19      0.00
   14   -3    7      0.66      0.00
   15   -3    7      0.13      0.00
  -15   -2    7     -0.67      0.00
  -14   -2    7     -0.91      0.00
  -13   -2    7     -0.89      0.00
  -12   -2    7     -0.82      0.00
  -11   -2    7     -0.98      0.00
  -10   -2    7     -1.61      0.00
   -9   -2    7     -2.77      0.00
   -8   -2    7     -3.93      0.00
   -7   -2    7     -4.05      0.00
   -6   -2    7     -2.21      0.00
   -5   -2    7      1.74      0.00
   -4   -2    7      6.81      0.00
   -3   -2    7     10.66      0.00
   -2   -2    7     10.70      0.00
   -1   -2    7      6.52      0.00
    0   -2    7      1.14      0.00
    1   -2    7     -1.44      0.00
    2   -2    7      0.06      0.00
    3   -2    7      3.69      0.00
    4   -2    7      6.58      0.00
    5   -2    7      7.05      0.00
    6   -2    7      5.43      0.00
    7   -2    7      3.32      0.00
    8   -2    7      2.05      0.00
    9   -2    7      1.84      0.00
   10   -2    7      2.12      0.00
   11   -2    7      2.25      0.00
   12   -2    7      1.90      0.00
   13   -2    7      1.17      0.00
   14   -2    7      0.42      0.00
  -15   -1    7     -0.25      0.00
  -14   -1    7     -0.23      0.00
  -13   -1    7     -0.22      0.00
  -12   -1    7     -0.43      0.00
  -11   -1    7     -1.02      0.00
  -10   -1    7     -2.03      0.00
   -9   -1    7     -3.27      0.00
   -8   -1    7     -3.97      0.00
   -7   -1    7     -3.23      0.00
   -6   -1    7     -0.83      0.00
   -5   -1    7      2.55      0.00
   -4   -1    7      5.45      0.00
   -3   -1    7      6.00      0.00
   -2   -1    7      2.97      0.00
   -1   -1    7     -2.42      0.00
    0   -1    7     -6.63      0.00
    1   -1    7     -6.92      0.00
    2   -1    7     -3.90      0.00
    3   -1    7     -0.28      0.00
    4   -1    7      1.85      0.00
    5   -1    7      2.04      0.00
    6   -1    7      1.15      0.00
    7   -1    7      0.47      0.00
    8   -1    7      0.70      0.00
    9   -1    7      1.52      0.00
   10   -1    7      2.13      0.00
   11   -1    7      2.00      0.00
   12   -1    7      1.21      0.00
   13   -1    7      0.35      0.00
   14   -1    7     -0.07      0.00
  -16    0    7      0.05      0.00
  -15    0    7      0.20      0.00
  -14    0    7      0.12      0.00
  -13    0    7     -0.13      0.00
  -12    0    7     -0.53      0.00
  -11    0    7     -1.12      0.00
  -10    0    7     -1.88      0.00
   -9    0    7     -2.47      0.00
   -8    0    7     -2.23      0.00
   -7    0    7     -0.74      0.00
   -6    0    7      1.55      0.00
   -5    0    7      3.40      0.00
   -4    0    7      3.42      0.00
   -3    0    7      0.72      0.00
   -2    0    7     -4.32      0.00
   -1    0    7     -9.48      0.00
    0    0    7    -11.98      0.00
    1    0    7    -10.89      0.00
    2    0    7     -7.87      0.00
    3    0    7     -5.10      0.00
    4    0    7     -3.54      0.00
    5    0    7     -2.98      0.00
    6    0    7     -2.70      0.00
    7    0    7     -2.01      0.00
    8    0    7     -0.75      0.00
    9    0    7      0.56      0.00
   10    0    7      1.17      0.00
   11    0    7      0.82      0.00
   12    0    7      0.00      0.00
   13    0    7     -0.49      0.00
  -16    1    7      0.25      0.00
  -15    1    7      0.22      0.00
  -14    1    7     -0.13      0.00
  -13    1    7     -0.56      0.00
  -12    1    7     -0.89      0.00
  -11    1    7     -1.10      0.00
  -10    1    7     -1.03      0.00
   -9    1    7     -0.44      0.00
   -8    1    7      0.90      0.00
   -7    1    7      2.85      0.00
   -6    1    7      4.60      0.00
   -5    1    7      4.85      0.00
   -4    1    7      2.68      0.00
   -3    1    7     -1.69      0.00
   -2    1    7     -6.84      0.00
   -1    1    7    -10.78      0.00
    0    1    7    -12.13      0.00
    1    1    7    -11.09      0.00
    2    1    7     -9.08      0.00
    3    1    7     -7.37      0.00
    4    1    7     -6.29      0.00
    5    1    7     -5.49      0.00
    6    1    7     -4.53      0.00
    7    1    7     -3.21      0.00
    8    1    7     -1.68      0.00
    9    1    7     -0.41      0.00
   10    1    7      0.07      0.00
   11    1    7     -0.24      0.00
   12    1    7     -0.71      0.00
   13    1    7     -0.69      0.00
  -16    2    7      0.08      0.00
  -15    2    7     -0.32      0.00
  -14    2    7     -0.91      0.00
  -13    2    7     -1.34      0.00
  -12    2    7     -1.40      0.00
  -11    2    7     -0.93      0.00
  -10    2    7      0.23      0.00
   -9    2    7      1.97      0.00
   -8    2    7      4.04      0.00
   -7    2    7      6.08      0.00
   -6    2    7      7.35      0.00
   -5    2    7      6.79      0.00
   -4    2    7      4.03      0.00
   -3    2    7     -0.09      0.00
   -2    2    7     -4.07      0.00
   -1    2    7     -6.80      0.00
    0    2    7     -7.87      0.00
    1    2    7     -7.61      0.00
    2    2    7     -6.82      0.00
    3    2    7     -6.18      0.00
    4    2    7     -5.73      0.00
    5    2    7     -5.08      0.00
    6    2    7     -4.05      0.00
    7    2    7     -2.83      0.00
    8    2    7     -1.66      0.00
    9    2    7     -0.76      0.00
   10    2    7     -0.40      0.00
   11    2    7     -0.50      0.00
   12    2    7     -0.59      0.00
   13    2    7     -0.35      0.00
  -17    3    7      0.07      0.00
  -16    3    7     -0.47      0.00
  -15    3    7     -1.25      0.00
  -14    3    7     -1.92      0.00
  -13    3    7     -2.16      0.00
  -12    3    7     -1.78      0.00
  -11    3    7     -0.64      0.00
  -10    3    7      1.22      0.00
   -9    3    7      3.39      0.00
   -8    3    7      5.52      0.00
   -7    3    7      7.44      0.00
   -6    3    7      8.63      0.00
   -5    3    7      8.26      0.00
   -4    3    7      6.20      0.00
   -3    3    7      3.37      0.00
   -2    3    7      0.83      0.00
   -1    3    7     -0.98      0.00
    0    3    7     -2.04      0.00
    1    3    7     -2.51      0.00
    2    3    7     -2.73      0.00
    3    3    7     -2.96      0.00
    4    3    7     -3.03      0.00
    5    3    7     -2.63      0.00
    6    3    7     -1.90      0.00
    7    3    7     -1.22      0.00
    8    3    7     -0.69      0.00
    9    3    7     -0.28      0.00
   10    3    7     -0.13      0.00
   11    3    7     -0.19      0.00
   12    3    7     -0.18      0.00
  -16    4    7     -1.17      0.00
  -15    4    7     -2.14      0.00
  -14    4    7     -2.67      0.00
  -13    4    7     -2.60      0.00
  -12    4    7     -1.95      0.00
  -11    4    7     -0.67      0.00
  -10    4    7      1.09      0.00
   -9    4    7      2.94      0.00
   -8    4    7      4.71      0.00
   -7    4    7      6.47      0.00
   -6    4    7      7.79      0.00
   -5    4    7      7.96      0.00
   -4    4    7      6.95      0.00
   -3    4    7      5.50      0.00
   -2    4    7      4.25      0.00
   -1    4    7      3.22      0.00
    0    4    7      2.29      0.00
    1    4    7      1.47      0.00
    2    4    7      0.76      0.00
    3    4    7      0.20      0.00
    4    4    7     -0.02      0.00
    5    4    7      0.19      0.00
    6    4    7      0.51      0.00
    7    4    7      0.63      0.00
    8    4    7      0.60      0.00
    9    4    7      0.52      0.00
   10    4    7      0.34      0.00
   11    4    7      0.15      0.00
  -16    5    7     -1.62      0.00
  -15    5    7     -2.50      0.00
  -14    5    7     -2.83      0.00
  -13    5    7     -2.70      0.00
  -12    5    7     -2.25      0.00
  -11    5    7     -1.36      0.00
  -10    5    7     -0.13      0.00
   -9    5    7      1.16      0.00
   -8    5    7      2.47      0.00
   -7    5    7      3.90      0.00
   -6    5    7      5.10      0.00
   -5    5    7      5.54      0.00
   -4    5    7      5.28      0.00
   -3    5    7      4.84      0.00
   -2    5    7      4.49      0.00
   -1    5    7      4.07      0.00
    0    5    7      3.42      0.00
    1    5    7      2.71      0.00
    2    5    7      2.13      0.00
    3    5    7      1.76      0.00
    4    5    7      1.66      0.00
    5    5    7      1.80      0.00
    6    5    7      1.86      0.00
    7    5    7      1.65      0.00
    8    5    7      1.29      0.00
    9    5    7      0.92      0.00
   10    5    7      0.58      0.00
   11    5    7      0.33      0.00
  -16    6    7     -1.55      0.00
  -15    6    7     -2.24      0.00
  -14    6    7     -2.53      0.00
  -13    6    7     -2.63      0.00
  -12    6    7     -2.53      0.00
  -11    6    7     -2.05      0.00
  -10    6    7     -1.29      0.00
   -9    6    7     -0.55      0.00
   -8    6    7      0.19      0.00
   -7    6    7      1.02      0.00
   -6    6    7      1.74      0.00
   -5    6    7      2.08      0.00
   -4    6    7      2.08      0.00
   -3    6    7      2.06      0.00
   -2    6    7      2.12      0.00
   -1    6    7      2.07      0.00
    0    6    7      1.82      0.00
    1    6    7      1.53      0.00
    2    6    7      1.37      0.00
    3    6    7      1.38      0.00
    4    6    7      1.53      0.00
    5    6    7      1.73      0.00
    6    6    7      1.73      0.00
    7    6    7      1.43      0.00
    8    6    7      1.06      0.00
    9    6    7      0.78      0.00
   10    6    7      0.55      0.00
  -16    7    7     -1.09      0.00
  -15    7    7     -1.57      0.00
  -14    7    7     -1.86      0.00
  -13    7    7     -2.05      0.00
  -12    7    7     -2.07      0.00
  -11    7    7     -1.80      0.00
  -10    7    7     -1.43      0.00
   -9    7    7     -1.23      0.00
   -8    7    7     -1.11      0.00
   -7    7    7     -0.95      0.00
   -6    7    7     -0.80      0.00
   -5    7    7     -0.79      0.00
   -4    7    7     -0.92      0.00
   -3    7    7     -0.99      0.00
   -2    7    7     -0.87      0.00
   -1    7    7     -0.67      0.00
    0    7    7     -0.56      0.00
    1    7    7     -0.48      0.00
    2    7    7     -0.29      0.00
    3    7    7      0.04      0.00
    4    7    7      0.43      0.00
    5    7    7      0.73      0.00
    6    7    7      0.79      0.00
    7    7    7      0.64      0.00
    8    7    7      0.48      0.00
    9    7    7      0.41      0.00
  -16    8    7     -0.46      0.00
  -15    8    7     -0.66      0.00
  -14    8    7     -0.73      0.00
  -13    8    7     -0.78      0.00
  -12    8    7     -0.75      0.00
  -11    8    7     -0.61      0.00
  -10    8    7     -0.55      0.00
   -9    8    7     -0.73      0.00
   -8    8    7     -1.03      0.00
   -7    8    7     -1.33      0.00
   -6    8    7     -1.61      0.00
   -5    8    7     -1.96      0.00
   -4    8    7     -2.37      0.00
   -3    8    7     -2.64      0.00
   -2    8    7     -2.53      0.00
   -1    8    7     -2.22      0.00
    0    8    7     -1.97      0.00
    1    8    7     -1.75      0.00
    2    8    7     -1.41      0.00
    3    8    7     -0.95      0.00
    4    8    7     -0.52      0.00
    5    8    7     -0.16      0.00
    6    8    7      0.08      0.00
    7    8    7      0.14      0.00
    8    8    7      0.11      0.00
  -16    9    7      0.10      0.00
  -15    9    7      0.24      0.00
  -14    9    7      0.44      0.00
  -13    9    7      0.53      0.00
  -12    9    7      0.60      0.00
  -11    9    7      0.75      0.00
  -10    9    7      0.80      0.00
   -9    9    7      0.57      0.00
   -8    9    7      0.18      0.00
   -7    9    7     -0.26      0.00
   -6    9    7     -0.78      0.00
   -5    9    7     -1.37      0.00
   -4    9    7     -1.95      0.00
   -3    9    7     -2.26      0.00
   -2    9    7     -2.15      0.00
   -1    9    7     -1.87      0.00
    0    9    7     -1.70      0.00
    1    9    7     -1.57      0.00
    2    9    7     -1.33      0.00
    3    9    7     -1.07      0.00
    4    9    7     -0.84      0.00
    5    9    7     -0.51      0.00
    6    9    7     -0.14      0.00
    7    9    7      0.02      0.00
  -15   10    7      0.66      0.00
  -14   10    7      0.93      0.00
  -13   10    7      1.05      0.00
  -12   10    7      1.26      0.00
  -11   10    7      1.68      0.00
  -10   10    7      1.94      0.00
   -9   10    7      1.85      0.00
   -8   10    7      1.60      0.00
   -7   10    7      1.24      0.00
   -6   10    7      0.72      0.00
   -5   10    7      0.18      0.00
   -4   10    7     -0.23      0.00
   -3   10    7     -0.39      0.00
   -2   10    7     -0.30      0.00
   -1   10    7     -0.19      0.00
    0   10    7     -0.21      0.00
    1   10    7     -0.32      0.00
    2   10    7     -0.46      0.00
    3   10    7     -0.66      0.00
    4   10    7     -0.80      0.00
    5   10    7     -0.61      0.00
    6   10    7     -0.24      0.00
  -15   11    7      0.43      0.00
  -14   11    7      0.60      0.00
  -13   11    7      0.74      0.00
  -12   11    7      1.14      0.00
  -11   11    7      1.77      0.00
  -10   11    7      2.17      0.00
   -9   11    7      2.20      0.00
   -8   11    7      2.12      0.00
   -7   11    7      1.96      0.00
   -6   11    7      1.69      0.00
   -5   11    7      1.53      0.00
   -4   11    7      1.52      0.00
   -3   11    7      1.52      0.00
   -2   11    7      1.52      0.00
   -1   11    7      1.48      0.00
    0   11    7      1.29      0.00
    1   11    7      0.91      0.00
    2   11    7      0.38      0.00
    3   11    7     -0.25      0.00
    4   11    7     -0.69      0.00
    5   11    7     -0.67      0.00
  -13   12    7      0.16      0.00
  -12   12    7      0.49      0.00
  -11   12    7      1.03      0.00
  -10   12    7      1.34      0.00
   -9   12    7      1.34      0.00
   -8   12    7      1.35      0.00
   -7   12    7      1.38      0.00
   -6   12    7      1.43      0.00
   -5   12    7      1.67      0.00
   -4   12    7      1.97      0.00
   -3   12    7      2.05      0.00
   -2   12    7      2.01      0.00
   -1   12    7      1.95      0.00
    0   12    7      1.74      0.00
    1   12    7      1.32      0.00
    2   12    7      0.71      0.00
    3   12    7      0.01      0.00
    4   12    7     -0.48      0.00
  -12   13    7     -0.18      0.00
  -11   13    7      0.07      0.00
  -10   13    7      0.14      0.00
   -9   13    7      0.00      0.00
   -8   13    7     -0.04      0.00
   -7   13    7      0.03      0.00
   -6   13    7      0.19      0.00
   -5   13    7      0.57      0.00
   -4   13    7      0.98      0.00
   -3   13    7      1.13      0.00
   -2   13    7      1.16      0.00
   -1   13    7      1.19      0.00
    0   13    7      1.13      0.00
    1   13    7      0.92      0.00
    2   13    7      0.59      0.00
  -11   14    7     -0.35      0.00
  -10   14    7     -0.50      0.00
   -9   14    7     -0.81      0.00
   -8   14    7     -0.96      0.00
   -7   14    7     -1.01      0.00
   -6   14    7     -0.95      0.00
   -5   14    7     -0.61      0.00
   -4   14    7     -0.19      0.00
   -3   14    7      0.02      0.00
   -2   14    7      0.09      0.00
   -7   15    7     -1.05      0.00
   -6   15    7     -1.09      0.00
   -5   15    7     -0.82      0.00
    6  -18    8      0.38      0.00
   -1  -17    8     -0.10      0.00
    0  -17    8      0.19      0.00
    1  -17    8      0.51      0.00
    2  -17    8      0.80      0.00
    3  -17    8      1.16      0.00
    4  -17    8      1.48      0.00
    5  -17    8      1.56      0.00
    6  -17    8      1.41      0.00
    7  -17    8      1.15      0.00
    8  -17    8      0.89      0.00
    9  -17    8      0.66      0.00
   -4  -16    8     -0.01      0.00
   -3  -16    8     -0.14      0.00
   -2  -16    8     -0.34      0.00
   -1  -16    8     -0.26      0.00
    0  -16    8      0.12      0.00
    1  -16    8      0.50      0.00
    2  -16    8      0.90      0.00
    3  -16    8      1.43      0.00
    4  -16    8      1.84      0.00
    5  -16    8      1.85      0.00
    6  -16    8      1.66      0.00
    7  -16    8      1.51      0.00
    8  -16    8      1.31      0.00
    9  -16    8      0.93      0.00
   10  -16    8      0.55      0.00
   -5  -15    8     -0.35      0.00
   -4  -15    8     -0.45      0.00
   -3  -15    8     -0.67      0.00
   -2  -15    8     -0.98      0.00
   -1  -15    8     -1.00      0.00
    0  -15    8     -0.74      0.00
    1  -15    8     -0.43      0.00
    2  -15    8     -0.03      0.00
    3  -15    8      0.43      0.00
    4  -15    8      0.61      0.00
    5  -15    8      0.47      0.00
    6  -15    8      0.37      0.00
    7  -15    8      0.42      0.00
    8  -15    8      0.30      0.00
    9  -15    8      0.01      0.00
   10  -15    8     -0.05      0.00
   11  -15    8      0.16      0.00
   12  -15    8      0.25      0.00
   -6  -14    8     -0.26      0.00
   -5  -14    8     -0.62      0.00
   -4  -14    8     -0.90      0.00
   -3  -14    8     -1.31      0.00
   -2  -14    8     -1.77      0.00
   -1  -14    8     -1.91      0.00
    0  -14    8     -1.74      0.00
    1  -14    8     -1.52      0.00
    2  -14    8     -1.33      0.00
    3  -14    8     -1.30      0.00
    4  -14    8     -1.58      0.00
    5  -14    8     -1.94      0.00
    6  -14    8     -2.03      0.00
    7  -14    8     -1.92      0.00
    8  -14    8     -1.83      0.00
    9  -14    8     -1.58      0.00
   10  -14    8     -0.96      0.00
   11  -14    8     -0.37      0.00
   12  -14    8     -0.22      0.00
   -8  -13    8      0.25      0.00
   -7  -13    8      0.22      0.00
   -6  -13    8     -0.08      0.00
   -5  -13    8     -0.47      0.00
   -4  -13    8     -0.89      0.00
   -3  -13    8     -1.40      0.00
   -2  -13    8     -1.83      0.00
   -1  -13    8     -1.88      0.00
    0  -13    8     -1.71      0.00
    1  -13    8     -1.61      0.00
    2  -13    8     -1.77      0.00
    3  -13    8     -2.28      0.00
    4  -13    8     -3.07      0.00
    5  -13    8     -3.77      0.00
    6  -13    8     -4.08      0.00
    7  -13    8     -3.96      0.00
    8  -13    8     -3.46      0.00
    9  -13    8     -2.64      0.00
   10  -13    8     -1.73      0.00
   11  -13    8     -1.13      0.00
   12  -13    8     -0.92      0.00
   13  -13    8     -0.68      0.00
   -9  -12    8      0.20      0.00
   -8  -12    8      0.45      0.00
   -7  -12    8      0.60      0.00
   -6  -12    8      0.49      0.00
   -5  -12    8      0.18      0.00
   -4  -12    8     -0.23      0.00
   -3  -12    8     -0.61      0.00
   -2  -12    8     -0.74      0.00
   -1  -12    8     -0.52      0.00
    0  -12    8     -0.18      0.00
    1  -12    8     -0.10      0.00
    2  -12    8     -0.50      0.00
    3  -12    8     -1.42      0.00
    4  -12    8     -2.64      0.00
    5  -12    8     -3.73      0.00
    6  -12    8     -4.28      0.00
    7  -12    8     -4.11      0.00
    8  -12    8     -3.39      0.00
    9  -12    8     -2.53      0.00
   10  -12    8     -1.83      0.00
   11  -12    8     -1.38      0.00
   12  -12    8     -1.03      0.00
   13  -12    8     -0.58      0.00
   14  -12    8     -0.09      0.00
  -10  -11    8      0.22      0.00
   -9  -11    8      0.42      0.00
   -8  -11    8      0.75      0.00
   -7  -11    8      1.04      0.00
   -6  -11    8      1.06      0.00
   -5  -11    8      0.86      0.00
   -4  -11    8      0.62      0.00
   -3  -11    8      0.57      0.00
   -2  -11    8      0.93      0.00
   -1  -11    8      1.69      0.00
    0  -11    8      2.46      0.00
    1  -11    8      2.77      0.00
    2  -11    8      2.32      0.00
    3  -11    8      1.15      0.00
    4  -11    8     -0.37      0.00
    5  -11    8     -1.70      0.00
    6  -11    8     -2.40      0.00
    7  -11    8     -2.27      0.00
    8  -11    8     -1.69      0.00
    9  -11    8     -1.16      0.00
   10  -11    8     -0.81      0.00
   11  -11    8     -0.52      0.00
   12  -11    8     -0.28      0.00
   13  -11    8     -0.06      0.00
   14  -11    8      0.13      0.00
  -10  -10    8      0.46      0.00
   -9  -10    8      0.59      0.00
   -8  -10    8      0.84      0.00
   -7  -10    8      1.08      0.00
   -6  -10    8      1.10      0.00
   -5  -10    8      0.99      0.00
   -4  -10    8      1.00      0.00
   -3  -10    8      1.36      0.00
   -2  -10    8      2.33      0.00
   -1  -10    8      3.82      0.00
    0  -10    8      5.21      0.00
    1  -10    8      5.82      0.00
    2  -10    8      5.35      0.00
    3  -10    8      3.99      0.00
    4  -10    8      2.27      0.00
    5  -10    8      0.80      0.00
    6  -10    8      0.07      0.00
    7  -10    8      0.19      0.00
    8  -10    8      0.64      0.00
    9  -10    8      0.92      0.00
   10  -10    8      1.03      0.00
   11  -10    8      1.05      0.00
   12  -10    8      0.89      0.00
   13  -10    8      0.62      0.00
   14  -10    8      0.39      0.00
  -11   -9    8      0.42      0.00
  -10   -9    8      0.36      0.00
   -9   -9    8      0.29      0.00
   -8   -9    8      0.41      0.00
   -7   -9    8      0.55      0.00
   -6   -9    8      0.50      0.00
   -5   -9    8      0.44      0.00
   -4   -9    8      0.62      0.00
   -3   -9    8      1.28      0.00
   -2   -9    8      2.73      0.00
   -1   -9    8      4.79      0.00
    0   -9    8      6.62      0.00
    1   -9    8      7.36      0.00
    2   -9    8      6.72      0.00
    3   -9    8      5.04      0.00
    4   -9    8      3.05      0.00
    5   -9    8      1.53      0.00
    6   -9    8      1.07      0.00
    7   -9    8      1.60      0.00
    8   -9    8      2.36      0.00
    9   -9    8      2.71      0.00
   10   -9    8      2.70      0.00
   11   -9    8      2.42      0.00
   12   -9    8      1.81      0.00
   13   -9    8      1.06      0.00
   14   -9    8      0.45      0.00
  -12   -8    8      0.23      0.00
  -11   -8    8      0.08      0.00
  -10   -8    8     -0.31      0.00
   -9   -8    8     -0.47      0.00
   -8   -8    8     -0.31      0.00
   -7   -8    8     -0.23      0.00
   -6   -8    8     -0.44      0.00
   -5   -8    8     -0.67      0.00
   -4   -8    8     -0.63      0.00
   -3   -8    8      0.04      0.00
   -2   -8    8      1.69      0.00
   -1   -8    8      3.99      0.00
    0   -8    8      5.87      0.00
    1   -8    8      6.30      0.00
    2   -8    8      5.01      0.00
    3   -8    8      2.65      0.00
    4   -8    8      0.39      0.00
    5   -8    8     -0.71      0.00
    6   -8    8     -0.23      0.00
    7   -8    8      1.31      0.00
    8   -8    8      2.76      0.00
    9   -8    8      3.42      0.00
   10   -8    8      3.39      0.00
   11   -8    8      2.82      0.00
   12   -8    8      1.86      0.00
   13   -8    8      0.90      0.00
   14   -8    8      0.26      0.00
   15   -8    8     -0.04      0.00
  -12   -7    8     -0.08      0.00
  -11   -7    8     -0.63      0.00
  -10   -7    8     -1.12      0.00
   -9   -7    8     -1.09      0.00
   -8   -7    8     -0.80      0.00
   -7   -7    8     -0.87      0.00
   -6   -7    8     -1.46      0.00
   -5   -7    8     -2.21      0.00
   -4   -7    8     -2.60      0.00
   -3   -7    8     -2.07      0.00
   -2   -7    8     -0.27      0.00
   -1   -7    8      2.10      0.00
    0   -7    8      3.51      0.00
    1   -7    8      2.82      0.00
    2   -7    8      0.16      0.00
    3   -7    8     -3.02      0.00
    4   -7    8     -4.95      0.00
    5   -7    8     -4.74      0.00
    6   -7    8     -2.71      0.00
    7   -7    8     -0.01      0.00
    8   -7    8      2.05      0.00
    9   -7    8      2.89      0.00
   10   -7    8      2.72      0.00
   11   -7    8      1.96      0.00
   12   -7    8      1.01      0.00
   13   -7    8      0.34      0.00
   14   -7    8      0.07      0.00
   15   -7    8      0.03      0.00
  -13   -6    8     -0.20      0.00
  -12   -6    8     -0.57      0.00
  -11   -6    8     -1.18      0.00
  -10   -6    8     -1.39      0.00
   -9   -6    8     -1.02      0.00
   -8   -6    8     -0.69      0.00
   -7   -6    8     -1.10      0.00
   -6   -6    8     -2.31      0.00
   -5   -6    8     -3.70      0.00
   -4   -6    8     -4.39      0.00
   -3   -6    8     -3.62      0.00
   -2   -6    8     -1.42      0.00
   -1   -6    8      0.79      0.00
    0   -6    8      0.98      0.00
    1   -6    8     -1.68      0.00
    2   -6    8     -5.94      0.00
    3   -6    8     -9.31      0.00
    4   -6    8     -9.91      0.00
    5   -6    8     -7.76      0.00
    6   -6    8     -4.28      0.00
    7   -6    8     -1.00      0.00
    8   -6    8      1.01      0.00
    9   -6    8      1.51      0.00
   10   -6    8      1.07      0.00
   11   -6    8      0.39      0.00
   12   -6    8     -0.07      0.00
   13   -6    8     -0.13      0.00
   14   -6    8      0.04      0.00
   15   -6    8      0.18      0.00
  -14   -5    8     -0.27      0.00
  -13   -5    8     -0.42      0.00
  -12   -5    8     -0.80      0.00
  -11   -5    8     -1.06      0.00
  -10   -5    8     -0.75      0.00
   -9   -5    8     -0.10      0.00
   -8   -5    8      0.03      0.00
   -7   -5    8     -0.93      0.00
   -6   -5    8     -2.67      0.00
   -5   -5    8     -4.18      0.00
   -4   -5    8     -4.37      0.00
   -3   -5    8     -2.72      0.00
   -2   -5    8     -0.04      0.00
   -1   -5    8      1.44      0.00
    0   -5    8     -0.29      0.00
    1   -5    8     -4.95      0.00
    2   -5    8     -9.95      0.00
    3   -5    8    -12.38      0.00
    4   -5    8    -11.13      0.00
    5   -5    8     -7.48      0.00
    6   -5    8     -3.53      0.00
    7   -5    8     -0.75      0.00
    8   -5    8      0.35      0.00
    9   -5    8      0.11      0.00
   10   -5    8     -0.54      0.00
   11   -5    8     -0.89      0.00
   12   -5    8     -0.77      0.00
   13   -5    8     -0.35      0.00
   14   -5    8      0.06      0.00
   15   -5    8      0.26      0.00
  -14   -4    8     -0.20      0.00
  -13   -4    8     -0.37      0.00
  -12   -4    8     -0.48      0.00
  -11   -4    8     -0.22      0.00
  -10   -4    8      0.53      0.00
   -9   -4    8      1.13      0.00
   -8   -4    8      0.75      0.00
   -7   -4    8     -0.67      0.00
   -6   -4    8     -2.26      0.00
   -5   -4    8     -2.82      0.00
   -4   -4    8     -1.60      0.00
   -3   -4    8      1.19      0.00
   -2   -4    8      3.91      0.00
   -1   -4    8      4.06      0.00
    0   -4    8      0.53      0.00
    1   -4    8     -4.98      0.00
    2   -4    8     -9.24      0.00
    3   -4    8    -10.03      0.00
    4   -4    8     -7.50      0.00
    5   -4    8     -3.64      0.00
    6   -4    8     -0.61      0.00
    7   -4    8      0.66      0.00
    8   -4    8      0.39      0.00
    9   -4    8     -0.56      0.00
   10   -4    8     -1.25      0.00
   11   -4    8     -1.31      0.00
   12   -4    8     -0.89      0.00
   13   -4    8     -0.34      0.00
   14   -4    8      0.08      0.00
  -14   -3    8     -0.01      0.00
  -13   -3    8      0.01      0.00
  -12   -3    8      0.26      0.00
  -11   -3    8      0.87      0.00
  -10   -3    8      1.57      0.00
   -9   -3    8      1.64      0.00
   -8   -3    8      0.70      0.00
   -7   -3    8     -0.65      0.00
   -6   -3    8     -1.22      0.00
   -5   -3    8     -0.14      0.00
   -4   -3    8      2.63      0.00
   -3   -3    8      6.12      0.00
   -2   -3    8      8.31      0.00
   -1   -3    8      7.23      0.00
    0   -3    8      3.02      0.00
    1   -3    8     -1.72      0.00
    2   -3    8     -4.22      0.00
    3   -3    8     -3.58      0.00
    4   -3    8     -0.92      0.00
    5   -3    8      1.72      0.00
    6   -3    8      2.78      0.00
    7   -3    8      2.15      0.00
    8   -3    8      0.75      0.00
    9   -3    8     -0.46      0.00
   10   -3    8     -0.96      0.00
   11   -3    8     -0.85      0.00
   12   -3    8     -0.46      0.00
   13   -3    8     -0.12      0.00
   14   -3    8      0.02      0.00
  -15   -2    8      0.12      0.00
  -14   -2    8      0.25      0.00
  -13   -2    8      0.56      0.00
  -12   -2    8      1.01      0.00
  -11   -2    8      1.43      0.00
  -10   -2    8      1.47      0.00
   -9   -2    8      0.77      0.00
   -8   -2    8     -0.44      0.00
   -7   -2    8     -1.21      0.00
   -6   -2    8     -0.56      0.00
   -5   -2    8      1.82      0.00
   -4   -2    8      5.39      0.00
   -3   -2    8      8.86      0.00
   -2   -2    8     10.39      0.00
   -1   -2    8      8.86      0.00
    0   -2    8      5.33      0.00
    1   -2    8      2.39      0.00
    2   -2    8      1.73      0.00
    3   -2    8      3.02      0.00
    4   -2    8      4.77      0.00
    5   -2    8      5.43      0.00
    6   -2    8      4.41      0.00
    7   -2    8      2.46      0.00
    8   -2    8      0.77      0.00
    9   -2    8     -0.04      0.00
   10   -2    8     -0.12      0.00
   11   -2    8      0.10      0.00
   12   -2    8      0.21      0.00
   13   -2    8      0.08      0.00
   14   -2    8     -0.15      0.00
  -15   -1    8      0.28      0.00
  -14   -1    8      0.65      0.00
  -13   -1    8      1.09      0.00
  -12   -1    8      1.31      0.00
  -11   -1    8      1.03      0.00
  -10   -1    8      0.14      0.00
   -9   -1    8     -1.20      0.00
   -8   -1    8     -2.43      0.00
   -7   -1    8     -2.68      0.00
   -6   -1    8     -1.38      0.00
   -5   -1    8      1.39      0.00
   -4   -1    8      4.86      0.00
   -3   -1    8      7.75      0.00
   -2   -1    8      8.76      0.00
   -1   -1    8      7.50      0.00
    0   -1    8      5.35      0.00
    1   -1    8      4.26      0.00
    2   -1    8      4.79      0.00
    3   -1    8      5.92      0.00
    4   -1    8      6.35      0.00
    5   -1    8      5.39      0.00
    6   -1    8      3.38      0.00
    7   -1    8      1.41      0.00
    8   -1    8      0.37      0.00
    9   -1    8      0.29      0.00
   10   -1    8      0.65      0.00
   11   -1    8      0.83      0.00
   12   -1    8      0.54      0.00
   13   -1    8      0.02      0.00
  -15    0    8      0.71      0.00
  -14    0    8      1.14      0.00
  -13    0    8      1.30      0.00
  -12    0    8      0.94      0.00
  -11    0    8     -0.09      0.00
  -10    0    8     -1.68      0.00
   -9    0    8     -3.42      0.00
   -8    0    8     -4.64      0.00
   -7    0    8     -4.71      0.00
   -6    0    8     -3.35      0.00
   -5    0    8     -0.88      0.00
   -4    0    8      1.83      0.00
   -3    0    8      3.78      0.00
   -2    0    8      4.27      0.00
   -1    0    8      3.52      0.00
    0    0    8      2.68      0.00
    1    0    8      2.78      0.00
    2    0    8      3.61      0.00
    3    0    8      4.14      0.00
    4    0    8      3.70      0.00
    5    0    8      2.37      0.00
    6    0    8      0.86      0.00
    7    0    8     -0.09      0.00
    8    0    8     -0.18      0.00
    9    0    8      0.29      0.00
   10    0    8      0.79      0.00
   11    0    8      0.78      0.00
   12    0    8      0.28      0.00
   13    0    8     -0.22      0.00
  -16    1    8      0.64      0.00
  -15    1    8      1.21      0.00
  -14    1    8      1.38      0.00
  -13    1    8      1.01      0.00
  -12    1    8      0.12      0.00
  -11    1    8     -1.34      0.00
  -10    1    8     -3.20      0.00
   -9    1    8     -4.94      0.00
   -8    1    8     -5.99      0.00
   -7    1    8     -5.94      0.00
   -6    1    8     -4.77      0.00
   -5    1    8     -2.96      0.00
   -4    1    8     -1.34      0.00
   -3    1    8     -0.48      0.00
   -2    1    8     -0.42      0.00
   -1    1    8     -0.72      0.00
    0    1    8     -0.81      0.00
    1    1    8     -0.44      0.00
    2    1    8      0.04      0.00
    3    1    8      0.08      0.00
    4    1    8     -0.41      0.00
    5    1    8     -1.06      0.00
    6    1    8     -1.41      0.00
    7    1    8     -1.27      0.00
    8    1    8     -0.75      0.00
    9    1    8     -0.12      0.00
   10    1    8      0.26      0.00
   11    1    8      0.14      0.00
   12    1    8     -0.26      0.00
   13    1    8     -0.44      0.00
  -16    2    8      0.97      0.00
  -15    2    8      1.44      0.00
  -14    2    8      1.22      0.00
  -13    2    8      0.43      0.00
  -12    2    8     -0.73      0.00
  -11    2    8     -2.22      0.00
  -10    2    8     -3.76      0.00
   -9    2    8     -4.94      0.00
   -8    2    8     -5.45      0.00
   -7    2    8     -5.20      0.00
   -6    2    8     -4.27      0.00
   -5    2    8     -3.18      0.00
   -4    2    8     -2.53      0.00
   -3    2    8     -2.45      0.00
   -2    2    8     -2.58      0.00
   -1    2    8     -2.67      0.00
    0    2    8     -2.71      0.00
    1    2    8     -2.72      0.00
    2    2    8     -2.73      0.00
    3    2    8     -2.86      0.00
    4    2    8     -3.05      0.00
    5    2    8     -3.03      0.00
    6    2    8     -2.58      0.00
    7    2    8     -1.89      0.00
    8    2    8     -1.21      0.00
    9    2    8     -0.67      0.00
   10    2    8     -0.40      0.00
   11    2    8     -0.45      0.00
   12    2    8     -0.58      0.00
  -16    3    8      1.08      0.00
  -15    3    8      1.34      0.00
  -14    3    8      0.84      0.00
  -13    3    8     -0.15      0.00
  -12    3    8     -1.28      0.00
  -11    3    8     -2.32      0.00
  -10    3    8     -3.02      0.00
   -9    3    8     -3.31      0.00
   -8    3    8     -3.24      0.00
   -7    3    8     -2.75      0.00
   -6    3    8     -1.92      0.00
   -5    3    8     -1.19      0.00
   -4    3    8     -0.98      0.00
   -3    3    8     -1.15      0.00
   -2    3    8     -1.32      0.00
   -1    3    8     -1.49      0.00
    0    3    8     -1.87      0.00
    1    3    8     -2.36      0.00
    2    3    8     -2.73      0.00
    3    3    8     -3.01      0.00
    4    3    8     -3.18      0.00
    5    3    8     -3.01      0.00
    6    3    8     -2.43      0.00
    7    3    8     -1.74      0.00
    8    3    8     -1.22      0.00
    9    3    8     -0.88      0.00
   10    3    8     -0.68      0.00
   11    3    8     -0.60      0.00
  -16    4    8      0.96      0.00
  -15    4    8      0.99      0.00
  -14    4    8      0.39      0.00
  -13    4    8     -0.54      0.00
  -12    4    8     -1.32      0.00
  -11    4    8     -1.64      0.00
  -10    4    8     -1.52      0.00
   -9    4    8     -1.20      0.00
   -8    4    8     -0.74      0.00
   -7    4    8      0.05      0.00
   -6    4    8      1.10      0.00
   -5    4    8      1.92      0.00
   -4    4    8      2.17      0.00
   -3    4    8      2.07      0.00
   -2    4    8      1.93      0.00
   -1    4    8      1.63      0.00
    0    4    8      1.02      0.00
    1    4    8      0.28      0.00
    2    4    8     -0.36      0.00
    3    4    8     -0.94      0.00
    4    4    8     -1.37      0.00
    5    4    8     -1.43      0.00
    6    4    8     -1.12      0.00
    7    4    8     -0.78      0.00
    8    4    8     -0.62      0.00
    9    4    8     -0.55      0.00
   10    4    8     -0.47      0.00
   11    4    8     -0.35      0.00
  -16    5    8      0.59      0.00
  -15    5    8      0.43      0.00
  -14    5    8     -0.10      0.00
  -13    5    8     -0.72      0.00
  -12    5    8     -1.06      0.00
  -11    5    8     -0.93      0.00
  -10    5    8     -0.50      0.00
   -9    5    8      0.03      0.00
   -8    5    8      0.75      0.00
   -7    5    8      1.88      0.00
   -6    5    8      3.18      0.00
   -5    5    8      4.17      0.00
   -4    5    8      4.62      0.00
   -3    5    8      4.73      0.00
   -2    5    8      4.73      0.00
   -1    5    8      4.55      0.00
    0    5    8      4.01      0.00
    1    5    8      3.26      0.00
    2    5    8      2.45      0.00
    3    5    8      1.65      0.00
    4    5    8      1.01      0.00
    5    5    8      0.68      0.00
    6    5    8      0.60      0.00
    7    5    8      0.50      0.00
    8    5    8      0.29      0.00
    9    5    8      0.09      0.00
   10    5    8     -0.02      0.00
  -16    6    8      0.09      0.00
  -15    6    8     -0.13      0.00
  -14    6    8     -0.46      0.00
  -13    6    8     -0.84      0.00
  -12    6    8     -1.05      0.00
  -11    6    8     -0.92      0.00
  -10    6    8     -0.53      0.00
   -9    6    8      0.00      0.00
   -8    6    8      0.79      0.00
   -7    6    8      1.92      0.00
   -6    6    8      3.16      0.00
   -5    6    8      4.15      0.00
   -4    6    8      4.74      0.00
   -3    6    8      5.08      0.00
   -2    6    8      5.35      0.00
   -1    6    8      5.45      0.00
    0    6    8      5.19      0.00
    1    6    8      4.60      0.00
    2    6    8      3.86      0.00
    3    6    8      3.13      0.00
    4    6    8      2.49      0.00
    5    6    8      2.03      0.00
    6    6    8      1.68      0.00
    7    6    8      1.32      0.00
    8    6    8      0.92      0.00
    9    6    8      0.59      0.00
  -16    7    8     -0.24      0.00
  -15    7    8     -0.39      0.00
  -14    7    8     -0.62      0.00
  -13    7    8     -1.00      0.00
  -12    7    8     -1.34      0.00
  -11    7    8     -1.37      0.00
  -10    7    8     -1.16      0.00
   -9    7    8     -0.86      0.00
   -8    7    8     -0.41      0.00
   -7    7    8      0.29      0.00
   -6    7    8      1.16      0.00
   -5    7    8      2.00      0.00
   -4    7    8      2.61      0.00
   -3    7    8      3.06      0.00
   -2    7    8      3.50      0.00
   -1    7    8      3.88      0.00
    0    7    8      3.94      0.00
    1    7    8      3.66      0.00
    2    7    8      3.22      0.00
    3    7    8      2.77      0.00
    4    7    8      2.35      0.00
    5    7    8      1.94      0.00
    6    7    8      1.57      0.00
    7    7    8      1.20      0.00
    8    7    8      0.89      0.00
    9    7    8      0.63      0.00
  -16    8    8     -0.20      0.00
  -15    8    8     -0.28      0.00
  -14    8    8     -0.51      0.00
  -13    8    8     -0.98      0.00
  -12    8    8     -1.46      0.00
  -11    8    8     -1.70      0.00
  -10    8    8     -1.79      0.00
   -9    8    8     -1.93      0.00
   -8    8    8     -2.00      0.00
   -7    8    8     -1.84      0.00
   -6    8    8     -1.42      0.00
   -5    8    8     -0.87      0.00
   -4    8    8     -0.43      0.00
   -3    8    8     -0.12      0.00
   -2    8    8      0.28      0.00
   -1    8    8      0.80      0.00
    0    8    8      1.16      0.00
    1    8    8      1.23      0.00
    2    8    8      1.16      0.00
    3    8    8      1.07      0.00
    4    8    8      0.97      0.00
    5    8    8      0.81      0.00
    6    8    8      0.66      0.00
    7    8    8      0.55      0.00
    8    8    8      0.45      0.00
  -15    9    8      0.03      0.00
  -14    9    8     -0.14      0.00
  -13    9    8     -0.63      0.00
  -12    9    8     -1.23      0.00
  -11    9    8     -1.63      0.00
  -10    9    8     -1.89      0.00
   -9    9    8     -2.26      0.00
   -8    9    8     -2.66      0.00
   -7    9    8     -2.92      0.00
   -6    9    8     -2.99      0.00
   -5    9    8     -2.90      0.00
   -4    9    8     -2.86      0.00
   -3    9    8     -2.88      0.00
   -2    9    8     -2.64      0.00
   -1    9    8     -2.05      0.00
    0    9    8     -1.48      0.00
    1    9    8     -1.17      0.00
    2    9    8     -0.96      0.00
    3    9    8     -0.69      0.00
    4    9    8     -0.42      0.00
    5    9    8     -0.21      0.00
    6    9    8     -0.02      0.00
  -14   10    8      0.22      0.00
  -13   10    8     -0.20      0.00
  -12   10    8     -0.68      0.00
  -11   10    8     -0.82      0.00
  -10   10    8     -0.85      0.00
   -9   10    8     -1.16      0.00
   -8   10    8     -1.71      0.00
   -7   10    8     -2.29      0.00
   -6   10    8     -2.82      0.00
   -5   10    8     -3.23      0.00
   -4   10    8     -3.59      0.00
   -3   10    8     -3.85      0.00
   -2   10    8     -3.71      0.00
   -1   10    8     -3.16      0.00
    0   10    8     -2.61      0.00
    1   10    8     -2.26      0.00
    2   10    8     -1.90      0.00
    3   10    8     -1.36      0.00
    4   10    8     -0.79      0.00
    5   10    8     -0.34      0.00
  -13   11    8      0.19      0.00
  -12   11    8      0.27      0.00
  -11   11    8      0.70      0.00
  -10   11    8      0.98      0.00
   -9   11    8      0.71      0.00
   -8   11    8      0.15      0.00
   -7   11    8     -0.50      0.00
   -6   11    8     -1.22      0.00
   -5   11    8     -1.83      0.00
   -4   11    8     -2.25      0.00
   -3   11    8     -2.51      0.00
   -2   11    8     -2.50      0.00
   -1   11    8     -2.24      0.00
    0   11    8     -2.00      0.00
    1   11    8     -1.81      0.00
    2   11    8     -1.44      0.00
    3   11    8     -0.85      0.00
    4   11    8     -0.30      0.00
  -12   12    8      1.10      0.00
  -11   12    8      1.81      0.00
  -10   12    8      2.12      0.00
   -9   12    8      1.94      0.00
   -8   12    8      1.66      0.00
   -7   12    8      1.33      0.00
   -6   12    8      0.82      0.00
   -5   12    8      0.40      0.00
   -4   12    8      0.16      0.00
   -3   12    8     -0.12      0.00
   -2   12    8     -0.42      0.00
   -1   12    8     -0.61      0.00
    0   12    8     -0.72      0.00
    1   12    8     -0.71      0.00
    2   12    8     -0.50      0.00
    3   12    8     -0.15      0.00
  -11   13    8      1.55      0.00
  -10   13    8      1.86      0.00
   -9   13    8      1.96      0.00
   -8   13    8      2.12      0.00
   -7   13    8      2.19      0.00
   -6   13    8      1.99      0.00
   -5   13    8      1.77      0.00
   -4   13    8      1.57      0.00
   -3   13    8      1.14      0.00
   -2   13    8      0.61      0.00
   -1   13    8      0.24      0.00
    0   13    8      0.05      0.00
    1   13    8     -0.04      0.00
   -9   14    8      1.20      0.00
   -8   14    8      1.53      0.00
   -7   14    8      1.71      0.00
   -6   14    8      1.56      0.00
   -5   14    8      1.32      0.00
   -4   14    8      1.09      0.00
    6  -18    9     -0.07      0.00
   -1  -17    9     -0.49      0.00
    0  -17    9     -0.51      0.00
    1  -17    9     -0.57      0.00
    2  -17    9     -0.69      0.00
    3  -17    9     -0.60      0.00
    4  -17    9     -0.23      0.00
    5  -17    9      0.17      0.00
    6  -17    9      0.35      0.00
    7  -17    9      0.27      0.00
    8  -17    9      0.06      0.00
   -3  -16    9      0.17      0.00
   -2  -16    9      0.03      0.00
   -1  -16    9     -0.14      0.00
    0  -16    9     -0.12      0.00
    1  -16    9     -0.07      0.00
    2  -16    9      0.04      0.00
    3  -16    9      0.44      0.00
    4  -16    9      1.05      0.00
    5  -16    9      1.47      0.00
    6  -16    9      1.51      0.00
    7  -16    9      1.26      0.00
    8  -16    9      0.83      0.00
    9  -16    9      0.37      0.00
   10  -16    9      0.04      0.00
   -5  -15    9      0.23      0.00
   -4  -15    9      0.61      0.00
   -3  -15    9      0.87      0.00
   -2  -15    9      0.71      0.00
   -1  -15    9      0.50      0.00
    0  -15    9      0.60      0.00
    1  -15    9      0.91      0.00
    2  -15    9      1.37      0.00
    3  -15    9      2.01      0.00
    4  -15    9      2.58      0.00
    5  -15    9      2.79      0.00
    6  -15    9      2.64      0.00
    7  -15    9      2.26      0.00
    8  -15    9      1.70      0.00
    9  -15    9      1.07      0.00
   10  -15    9      0.63      0.00
   11  -15    9      0.46      0.00
   -6  -14    9      0.83      0.00
   -5  -14    9      1.11      0.00
   -4  -14    9      1.38      0.00
   -3  -14    9      1.35      0.00
   -2  -14    9      0.96      0.00
   -1  -14    9      0.73      0.00
    0  -14    9      0.97      0.00
    1  -14    9      1.49      0.00
    2  -14    9      2.10      0.00
    3  -14    9      2.62      0.00
    4  -14    9      2.87      0.00
    5  -14    9      2.82      0.00
    6  -14    9      2.57      0.00
    7  -14    9      2.14      0.00
    8  -14    9      1.60      0.00
    9  -14    9      1.12      0.00
   10  -14    9      0.89      0.00
   11  -14    9      0.77      0.00
   12  -14    9      0.47      0.00
   -8  -13    9      0.63      0.00
   -7  -13    9      1.18      0.00
   -6  -13    9      1.61      0.00
   -5  -13    9      1.68      0.00
   -4  -13    9      1.45      0.00
   -3  -13    9      0.97      0.00
   -2  -13    9      0.44      0.00
   -1  -13    9      0.25      0.00
    0  -13    9      0.51      0.00
    1  -13    9      0.99      0.00
    2  -13    9      1.41      0.00
    3  -13    9      1.56      0.00
    4  -13    9      1.38      0.00
    5  -13    9      1.04      0.00
    6  -13    9      0.64      0.00
    7  -13    9      0.28      0.00
    8  -13    9      0.07      0.00
    9  -13    9      0.10      0.00
   10  -13    9      0.22      0.00
   11  -13    9      0.18      0.00
   12  -13    9     -0.09      0.00
   13  -13    9     -0.28      0.00
   -9  -12    9      0.39      0.00
   -8  -12    9      0.77      0.00
   -7  -12    9      1.34      0.00
   -6  -12    9      1.61      0.00
   -5  -12    9      1.34      0.00
   -4  -12    9      0.75      0.00
   -3  -12    9      0.10      0.00
   -2  -12    9     -0.45      0.00
   -1  -12    9     -0.70      0.00
    0  -12    9     -0.59      0.00
    1  -12    9     -0.30      0.00
    2  -12    9     -0.15      0.00
    3  -12    9     -0.41      0.00
    4  -12    9     -1.03      0.00
    5  -12    9     -1.74      0.00
    6  -12    9     -2.29      0.00
    7  -12    9     -2.45      0.00
    8  -12    9     -2.12      0.00
    9  -12    9     -1.62      0.00
   10  -12    9     -1.30      0.00
   11  -12    9     -1.16      0.00
   12  -12    9     -1.05      0.00
   13  -12    9     -0.78      0.00
  -10  -11    9      0.17      0.00
   -9  -11    9      0.16      0.00
   -8  -11    9      0.38      0.00
   -7  -11    9      0.80      0.00
   -6  -11    9      0.96      0.00
   -5  -11    9      0.61      0.00
   -4  -11    9     -0.01      0.00
   -3  -11    9     -0.70      0.00
   -2  -11    9     -1.28      0.00
   -1  -11    9     -1.52      0.00
    0  -11    9     -1.36      0.00
    1  -11    9     -1.07      0.00
    2  -11    9     -1.06      0.00
    3  -11    9     -1.62      0.00
    4  -11    9     -2.61      0.00
    5  -11    9     -3.65      0.00
    6  -11    9     -4.35      0.00
    7  -11    9     -4.33      0.00
    8  -11    9     -3.69      0.00
    9  -11    9     -3.00      0.00
   10  -11    9     -2.52      0.00
   11  -11    9     -2.08      0.00
   12  -11    9     -1.61      0.00
   13  -11    9     -1.14      0.00
   14  -11    9     -0.67      0.00
  -10  -10    9     -0.20      0.00
   -9  -10    9     -0.43      0.00
   -8  -10    9     -0.30      0.00
   -7  -10    9      0.17      0.00
   -6  -10    9      0.42      0.00
   -5  -10    9      0.11      0.00
   -4  -10    9     -0.56      0.00
   -3  -10    9     -1.24      0.00
   -2  -10    9     -1.55      0.00
   -1  -10    9     -1.24      0.00
    0  -10    9     -0.56      0.00
    1  -10    9      0.00      0.00
    2  -10    9      0.01      0.00
    3  -10    9     -0.72      0.00
    4  -10    9     -2.02      0.00
    5  -10    9     -3.41      0.00
    6  -10    9     -4.34      0.00
    7  -10    9     -4.33      0.00
    8  -10    9     -3.62      0.00
    9  -10    9     -2.83      0.00
   10  -10    9     -2.20      0.00
   11  -10    9     -1.67      0.00
   12  -10    9     -1.31      0.00
   13  -10    9     -1.03      0.00
   14  -10    9     -0.59      0.00
  -11   -9    9     -0.52      0.00
  -10   -9    9     -0.88      0.00
   -9   -9    9     -1.09      0.00
   -8   -9    9     -0.73      0.00
   -7   -9    9     -0.05      0.00
   -6   -9    9      0.21      0.00
   -5   -9    9     -0.24      0.00
   -4   -9    9     -0.98      0.00
   -3   -9    9     -1.36      0.00
   -2   -9    9     -0.86      0.00
   -1   -9    9      0.49      0.00
    0   -9    9      2.04      0.00
    1   -9    9      3.06      0.00
    2   -9    9      3.10      0.00
    3   -9    9      2.06      0.00
    4   -9    9      0.28      0.00
    5   -9    9     -1.55      0.00
    6   -9    9     -2.66      0.00
    7   -9    9     -2.60      0.00
    8   -9    9     -1.76      0.00
    9   -9    9     -0.94      0.00
   10   -9    9     -0.44      0.00
   11   -9    9     -0.24      0.00
   12   -9    9     -0.28      0.00
   13   -9    9     -0.27      0.00
   14   -9    9     -0.03      0.00
  -12   -8    9     -0.85      0.00
  -11   -8    9     -1.18      0.00
  -10   -8    9     -1.46      0.00
   -9   -8    9     -1.35      0.00
   -8   -8    9     -0.67      0.00
   -7   -8    9      0.03      0.00
   -6   -8    9      0.02      0.00
   -5   -8    9     -0.65      0.00
   -4   -8    9     -1.31      0.00
   -3   -8    9     -1.19      0.00
   -2   -8    9      0.24      0.00
   -1   -8    9      2.75      0.00
    0   -8    9      5.27      0.00
    1   -8    9      6.70      0.00
    2   -8    9      6.49      0.00
    3   -8    9      4.76      0.00
    4   -8    9      2.30      0.00
    5   -8    9      0.19      0.00
    6   -8    9     -0.73      0.00
    7   -8    9     -0.31      0.00
    8   -8    9      0.70      0.00
    9   -8    9      1.37      0.00
   10   -8    9      1.47      0.00
   11   -8    9      1.22      0.00
   12   -8    9      0.84      0.00
   13   -8    9      0.57      0.00
   14   -8    9      0.44      0.00
  -12   -7    9     -1.02      0.00
  -11   -7    9     -1.33      0.00
  -10   -7    9     -1.37      0.00
   -9   -7    9     -0.93      0.00
   -8   -7    9     -0.21      0.00
   -7   -7    9      0.15      0.00
   -6   -7    9     -0.28      0.00
   -5   -7    9     -1.24      0.00
   -4   -7    9     -1.94      0.00
   -3   -7    9     -1.45      0.00
   -2   -7    9      0.85      0.00
   -1   -7    9      4.40      0.00
    0   -7    9      7.53      0.00
    1   -7    9      8.76      0.00
    2   -7    9      7.67      0.00
    3   -7    9      4.96      0.00
    4   -7    9      2.02      0.00
    5   -7    9      0.16      0.00
    6   -7    9     -0.09      0.00
    7   -7    9      0.91      0.00
    8   -7    9      2.10      0.00
    9   -7    9      2.57      0.00
   10   -7    9      2.31      0.00
   11   -7    9      1.78      0.00
   12   -7    9      1.25      0.00
   13   -7    9      0.82      0.00
   14   -7    9      0.46      0.00
  -13   -6    9     -0.34      0.00
  -12   -6    9     -0.63      0.00
  -11   -6    9     -0.77      0.00
  -10   -6    9     -0.56      0.00
   -9   -6    9     -0.03      0.00
   -8   -6    9      0.43      0.00
   -7   -6    9      0.26      0.00
   -6   -6    9     -0.80      0.00
   -5   -6    9     -2.32      0.00
   -4   -6    9     -3.21      0.00
   -3   -6    9     -2.25      0.00
   -2   -6    9      0.92      0.00
   -1   -6    9      4.99      0.00
    0   -6    9      7.69      0.00
    1   -6    9      7.63      0.00
    2   -6    9      5.10      0.00
    3   -6    9      1.57      0.00
    4   -6    9     -1.18      0.00
    5   -6    9     -2.11      0.00
    6   -6    9     -1.34      0.00
    7   -6    9      0.26      0.00
    8   -6    9      1.59      0.00
    9   -6    9      1.96      0.00
   10   -6    9      1.65      0.00
   11   -6    9      1.23      0.00
   12   -6    9      0.87      0.00
   13   -6    9      0.55      0.00
  -13   -5    9     -0.05      0.00
  -12   -5    9     -0.11      0.00
  -11   -5    9      0.03      0.00
  -10   -5    9      0.48      0.00
   -9   -5    9      1.01      0.00
   -8   -5    9      1.09      0.00
   -7   -5    9      0.20      0.00
   -6   -5    9     -1.67      0.00
   -5   -5    9     -3.63      0.00
   -4   -5    9     -4.25      0.00
   -3   -5    9     -2.51      0.00
   -2   -5    9      1.16      0.00
   -1   -5    9      4.65      0.00
    0   -5    9      5.63      0.00
    1   -5    9      3.49      0.00
    2   -5    9     -0.45      0.00
    3   -5    9     -4.10      0.00
    4   -5    9     -5.82      0.00
    5   -5    9     -5.34      0.00
    6   -5    9     -3.56      0.00
    7   -5    9     -1.64      0.00
    8   -5    9     -0.37      0.00
    9   -5    9      0.05      0.00
   10   -5    9      0.07      0.00
   11   -5    9      0.13      0.00
   12   -5    9      0.23      0.00
   13   -5    9      0.20      0.00
  -14   -4    9     -0.09      0.00
  -13   -4    9     -0.06      0.00
  -12   -4    9      0.21      0.00
  -11   -4    9      0.75      0.00
  -10   -4    9      1.49      0.00
   -9   -4    9      1.94      0.00
   -8   -4    9      1.48      0.00
   -7   -4    9     -0.16      0.00
   -6   -4    9     -2.40      0.00
   -5   -4    9     -3.96      0.00
   -4   -4    9     -3.65      0.00
   -3   -4    9     -1.24      0.00
   -2   -4    9      2.05      0.00
   -1   -4    9      3.90      0.00
    0   -4    9      2.55      0.00
    1   -4    9     -1.48      0.00
    2   -4    9     -5.95      0.00
    3   -4    9     -8.73      0.00
    4   -4    9     -8.93      0.00
    5   -4    9     -7.19      0.00
    6   -4    9     -4.99      0.00
    7   -4    9     -3.30      0.00
    8   -4    9     -2.33      0.00
    9   -4    9     -1.83      0.00
   10   -4    9     -1.35      0.00
   11   -4    9     -0.76      0.00
   12   -4    9     -0.26      0.00
   13   -4    9     -0.05      0.00
  -14   -3    9     -0.34      0.00
  -13   -3    9     -0.09      0.00
  -12   -3    9      0.50      0.00
  -11   -3    9      1.37      0.00
  -10   -3    9      2.23      0.00
   -9   -3    9      2.38      0.00
   -8   -3    9      1.35      0.00
   -7   -3    9     -0.51      0.00
   -6   -3    9     -2.10      0.00
   -5   -3    9     -2.40      0.00
   -4   -3    9     -1.04      0.00
   -3   -3    9      1.46      0.00
   -2   -3    9      3.63      0.00
   -1   -3    9      3.51      0.00
    0   -3    9      0.34      0.00
    1   -3    9     -4.33      0.00
    2   -3    9     -8.01      0.00
    3   -3    9     -9.28      0.00
    4   -3    9     -8.25      0.00
    5   -3    9     -6.14      0.00
    6   -3    9     -4.35      0.00
    7   -3    9     -3.39      0.00
    8   -3    9     -2.92      0.00
    9   -3    9     -2.47      0.00
   10   -3    9     -1.81      0.00
   11   -3    9     -1.00      0.00
   12   -3    9     -0.36      0.00
   13   -3    9     -0.05      0.00
   14   -3    9      0.00      0.00
  -15   -2    9     -0.37      0.00
  -14   -2    9     -0.36      0.00
  -13   -2    9      0.02      0.00
  -12   -2    9      0.74      0.00
  -11   -2    9      1.63      0.00
  -10   -2    9      2.22      0.00
   -9   -2    9      1.92      0.00
   -8   -2    9      0.76      0.00
   -7   -2    9     -0.41      0.00
   -6   -2    9     -0.66      0.00
   -5   -2    9      0.37      0.00
   -4   -2    9      2.34      0.00
   -3   -2    9      4.41      0.00
   -2   -2    9      5.30      0.00
   -1   -2    9      3.82      0.00
    0   -2    9      0.22      0.00
    1   -2    9     -3.48      0.00
    2   -2    9     -5.46      0.00
    3   -2    9     -5.40      0.00
    4   -2    9     -4.05      0.00
    5   -2    9     -2.54      0.00
    6   -2    9     -1.78      0.00
    7   -2    9     -1.76      0.00
    8   -2    9     -1.86      0.00
    9   -2    9     -1.67      0.00
   10   -2    9     -1.12      0.00
   11   -2    9     -0.42      0.00
   12   -2    9      0.09      0.00
   13   -2    9      0.24      0.00
  -15   -1    9     -0.50      0.00
  -14   -1    9     -0.37      0.00
  -13   -1    9      0.05      0.00
  -12   -1    9      0.65      0.00
  -11   -1    9      1.17      0.00
  -10   -1    9      1.24      0.00
   -9   -1    9      0.72      0.00
   -8   -1    9      0.03      0.00
   -7   -1    9     -0.10      0.00
   -6   -1    9      0.76      0.00
   -5   -1    9      2.47      0.00
   -4   -1    9      4.46      0.00
   -3   -1    9      5.89      0.00
   -2   -1    9      5.94      0.00
   -1   -1    9      4.29      0.00
    0   -1    9      1.79      0.00
    1   -1    9      0.01      0.00
    2   -1    9     -0.31      0.00
    3   -1    9      0.38      0.00
    4   -1    9      1.26      0.00
    5   -1    9      1.65      0.00
    6   -1    9      1.25      0.00
    7   -1    9      0.50      0.00
    8   -1    9      0.01      0.00
    9   -1    9     -0.01      0.00
   10   -1    9      0.30      0.00
   11   -1    9      0.66      0.00
   12   -1    9      0.76      0.00
   13   -1    9      0.54      0.00
  -16    0    9     -0.74      0.00
  -15    0    9     -0.78      0.00
  -14    0    9     -0.49      0.00
  -13    0    9     -0.09      0.00
  -12    0    9      0.20      0.00
  -11    0    9      0.22      0.00
  -10    0    9     -0.12      0.00
   -9    0    9     -0.60      0.00
   -8    0    9     -0.82      0.00
   -7    0    9     -0.39      0.00
   -6    0    9      0.75      0.00
   -5    0    9      2.36      0.00
   -4    0    9      3.88      0.00
   -3    0    9      4.73      0.00
   -2    0    9      4.67      0.00
   -1    0    9      3.97      0.00
    0    0    9      3.32      0.00
    1    0    9      3.35      0.00
    2    0    9      4.02      0.00
    3    0    9      4.71      0.00
    4    0    9      4.86      0.00
    5    0    9      4.27      0.00
    6    0    9      3.20      0.00
    7    0    9      2.25      0.00
    8    0    9      1.73      0.00
    9    0    9      1.58      0.00
   10    0    9      1.58      0.00
   11    0    9      1.49      0.00
   12    0    9      1.12      0.00
  -16    1    9     -1.02      0.00
  -15    1    9     -0.85      0.00
  -14    1    9     -0.45      0.00
  -13    1    9     -0.18      0.00
  -12    1    9     -0.19      0.00
  -11    1    9     -0.49      0.00
  -10    1    9     -1.04      0.00
   -9    1    9     -1.59      0.00
   -8    1    9     -1.83      0.00
   -7    1    9     -1.61      0.00
   -6    1    9     -0.93      0.00
   -5    1    9     -0.01      0.00
   -4    1    9      0.79      0.00
   -3    1    9      1.28      0.00
   -2    1    9      1.66      0.00
   -1    1    9      2.25      0.00
    0    1    9      3.11      0.00
    1    1    9      4.18      0.00
    2    1    9      5.17      0.00
    3    1    9      5.62      0.00
    4    1    9      5.30      0.00
    5    1    9      4.43      0.00
    6    1    9      3.51      0.00
    7    1    9      2.92      0.00
    8    1    9      2.60      0.00
    9    1    9      2.33      0.00
   10    1    9      2.05      0.00
   11    1    9      1.63      0.00
   12    1    9      1.01      0.00
  -16    2    9     -0.78      0.00
  -15    2    9     -0.49      0.00
  -14    2    9     -0.16      0.00
  -13    2    9     -0.01      0.00
  -12    2    9     -0.10      0.00
  -11    2    9     -0.49      0.00
  -10    2    9     -1.19      0.00
   -9    2    9     -1.99      0.00
   -8    2    9     -2.64      0.00
   -7    2    9     -3.03      0.00
   -6    2    9     -3.18      0.00
   -5    2    9     -3.14      0.00
   -4    2    9     -3.03      0.00
   -3    2    9     -2.74      0.00
   -2    2    9     -1.95      0.00
   -1    2    9     -0.62      0.00
    0    2    9      0.88      0.00
    1    2    9      2.18      0.00
    2    2    9      3.07      0.00
    3    2    9      3.38      0.00
    4    2    9      3.11      0.00
    5    2    9      2.62      0.00
    6    2    9      2.35      0.00
    7    2    9      2.33      0.00
    8    2    9      2.30      0.00
    9    2    9      2.07      0.00
   10    2    9      1.72      0.00
   11    2    9      1.21      0.00
  -16    3    9     -0.21      0.00
  -15    3    9      0.07      0.00
  -14    3    9      0.35      0.00
  -13    3    9      0.52      0.00
  -12    3    9      0.49      0.00
  -11    3    9      0.12      0.00
  -10    3    9     -0.61      0.00
   -9    3    9     -1.58      0.00
   -8    3    9     -2.62      0.00
   -7    3    9     -3.60      0.00
   -6    3    9     -4.43      0.00
   -5    3    9     -5.04      0.00
   -4    3    9     -5.41      0.00
   -3    3    9     -5.38      0.00
   -2    3    9     -4.66      0.00
   -1    3    9     -3.41      0.00
    0    3    9     -2.13      0.00
    1    3    9     -1.14      0.00
    2    3    9     -0.45      0.00
    3    3    9     -0.13      0.00
    4    3    9     -0.10      0.00
    5    3    9     -0.05      0.00
    6    3    9      0.30      0.00
    7    3    9      0.83      0.00
    8    3    9      1.14      0.00
    9    3    9      1.13      0.00
   10    3    9      0.90      0.00
   11    3    9      0.56      0.00
  -16    4    9      0.28      0.00
  -15    4    9      0.63      0.00
  -14    4    9      1.01      0.00
  -13    4    9      1.27      0.00
  -12    4    9      1.28      0.00
  -11    4    9      1.04      0.00
  -10    4    9      0.49      0.00
   -9    4    9     -0.43      0.00
   -8    4    9     -1.60      0.00
   -7    4    9     -2.77      0.00
   -6    4    9     -3.76      0.00
   -5    4    9     -4.56      0.00
   -4    4    9     -5.21      0.00
   -3    4    9     -5.54      0.00
   -2    4    9     -5.32      0.00
   -1    4    9     -4.72      0.00
    0    4    9     -4.13      0.00
    1    4    9     -3.63      0.00
    2    4    9     -3.17      0.00
    3    4    9     -2.84      0.00
    4    4    9     -2.61      0.00
    5    4    9     -2.22      0.00
    6    4    9     -1.48      0.00
    7    4    9     -0.66      0.00
    8    4    9     -0.16      0.00
    9    4    9      0.00      0.00
   10    4    9      0.04      0.00
  -16    5    9      0.57      0.00
  -15    5    9      1.09      0.00
  -14    5    9      1.59      0.00
  -13    5    9      1.84      0.00
  -12    5    9      1.84      0.00
  -11    5    9      1.76      0.00
  -10    5    9      1.51      0.00
   -9    5    9      0.89      0.00
   -8    5    9      0.03      0.00
   -7    5    9     -0.77      0.00
   -6    5    9     -1.45      0.00
   -5    5    9     -2.13      0.00
   -4    5    9     -2.86      0.00
   -3    5    9     -3.48      0.00
   -2    5    9     -3.83      0.00
   -1    5    9     -3.97      0.00
    0    5    9     -4.05      0.00
    1    5    9     -3.97      0.00
    2    5    9     -3.73      0.00
    3    5    9     -3.49      0.00
    4    5    9     -3.24      0.00
    5    5    9     -2.77      0.00
    6    5    9     -2.03      0.00
    7    5    9     -1.33      0.00
    8    5    9     -0.91      0.00
    9    5    9     -0.65      0.00
   10    5    9     -0.33      0.00
  -16    6    9      0.64      0.00
  -15    6    9      1.23      0.00
  -14    6    9      1.68      0.00
  -13    6    9      1.77      0.00
  -12    6    9      1.65      0.00
  -11    6    9      1.68      0.00
  -10    6    9      1.82      0.00
   -9    6    9      1.80      0.00
   -8    6    9      1.64      0.00
   -7    6    9      1.46      0.00
   -6    6    9      1.20      0.00
   -5    6    9      0.78      0.00
   -4    6    9      0.20      0.00
   -3    6    9     -0.49      0.00
   -2    6    9     -1.17      0.00
   -1    6    9     -1.76      0.00
    0    6    9     -2.20      0.00
    1    6    9     -2.35      0.00
    2    6    9     -2.28      0.00
    3    6    9     -2.18      0.00
    4    6    9     -2.07      0.00
    5    6    9     -1.82      0.00
    6    6    9     -1.39      0.00
    7    6    9     -0.99      0.00
    8    6    9     -0.72      0.00
  -15    7    9      0.88      0.00
  -14    7    9      1.08      0.00
  -13    7    9      0.89      0.00
  -12    7    9      0.62      0.00
  -11    7    9      0.81      0.00
  -10    7    9      1.44      0.00
   -9    7    9      2.08      0.00
   -8    7    9      2.52      0.00
   -7    7    9      2.76      0.00
   -6    7    9      2.81      0.00
   -5    7    9      2.73      0.00
   -4    7    9      2.45      0.00
   -3    7    9      1.90      0.00
   -2    7    9      1.19      0.00
   -1    7    9      0.53      0.00
    0    7    9      0.05      0.00
    1    7    9     -0.14      0.00
    2    7    9     -0.14      0.00
    3    7    9     -0.20      0.00
    4    7    9     -0.35      0.00
    5    7    9     -0.44      0.00
    6    7    9     -0.34      0.00
    7    7    9     -0.14      0.00
    8    7    9     -0.03      0.00
  -14    8    9      0.12      0.00
  -13    8    9     -0.25      0.00
  -12    8    9     -0.53      0.00
  -11    8    9     -0.20      0.00
  -10    8    9      0.67      0.00
   -9    8    9      1.54      0.00
   -8    8    9      2.14      0.00
   -7    8    9      2.53      0.00
   -6    8    9      2.79      0.00
   -5    8    9      3.00      0.00
   -4    8    9      3.03      0.00
   -3    8    9      2.71      0.00
   -2    8    9      2.18      0.00
   -1    8    9      1.68      0.00
    0    8    9      1.37      0.00
    1    8    9      1.27      0.00
    2    8    9      1.24      0.00
    3    8    9      1.07      0.00
    4    8    9      0.72      0.00
    5    8    9      0.41      0.00
    6    8    9      0.33      0.00
    7    8    9      0.36      0.00
  -14    9    9     -0.46      0.00
  -13    9    9     -0.84      0.00
  -12    9    9     -1.21      0.00
  -11    9    9     -1.07      0.00
  -10    9    9     -0.43      0.00
   -9    9    9      0.24      0.00
   -8    9    9      0.76      0.00
   -7    9    9      1.16      0.00
   -6    9    9      1.48      0.00
   -5    9    9      1.81      0.00
   -4    9    9      2.04      0.00
   -3    9    9      1.93      0.00
   -2    9    9      1.60      0.00
   -1    9    9      1.33      0.00
    0    9    9      1.27      0.00
    1    9    9      1.33      0.00
    2    9    9      1.31      0.00
    3    9    9      1.12      0.00
    4    9    9      0.78      0.00
    5    9    9      0.45      0.00
  -13   10    9     -0.85      0.00
  -12   10    9     -1.56      0.00
  -11   10    9     -1.83      0.00
  -10   10    9     -1.50      0.00
   -9   10    9     -0.99      0.00
   -8   10    9     -0.56      0.00
   -7   10    9     -0.30      0.00
   -6   10    9     -0.15      0.00
   -5   10    9      0.08      0.00
   -4   10    9      0.31      0.00
   -3   10    9      0.27      0.00
   -2   10    9      0.09      0.00
   -1   10    9      0.13      0.00
    0   10    9      0.34      0.00
    1   10    9      0.47      0.00
    2   10    9      0.45      0.00
    3   10    9      0.37      0.00
    4   10    9      0.26      0.00
  -12   11    9     -1.62      0.00
  -11   11    9     -1.99      0.00
  -10   11    9     -1.68      0.00
   -9   11    9     -1.26      0.00
   -8   11    9     -1.04      0.00
   -7   11    9     -1.04      0.00
   -6   11    9     -1.18      0.00
   -5   11    9     -1.20      0.00
   -4   11    9     -1.10      0.00
   -3   11    9     -1.11      0.00
   -2   11    9     -1.05      0.00
   -1   11    9     -0.75      0.00
    0   11    9     -0.47      0.00
    1   11    9     -0.43      0.00
    2   11    9     -0.45      0.00
    3   11    9     -0.31      0.00
  -12   12    9     -1.07      0.00
  -11   12    9     -1.20      0.00
  -10   12    9     -0.91      0.00
   -9   12    9     -0.73      0.00
   -8   12    9     -0.78      0.00
   -7   12    9     -0.99      0.00
   -6   12    9     -1.32      0.00
   -5   12    9     -1.49      0.00
   -4   12    9     -1.41      0.00
   -3   12    9     -1.27      0.00
   -2   12    9     -1.04      0.00
   -1   12    9     -0.74      0.00
    0   12    9     -0.63      0.00
    1   12    9     -0.73      0.00
    2   12    9     -0.71      0.00
  -10   13    9     -0.12      0.00
   -9   13    9     -0.22      0.00
   -8   13    9     -0.39      0.00
   -7   13    9     -0.58      0.00
   -6   13    9     -0.82      0.00
   -5   13    9     -0.91      0.00
   -4   13    9     -0.72      0.00
   -3   13    9     -0.52      0.00
   -7   14    9     -0.19      0.00
    0  -17   10     -0.24      0.00
    1  -17   10     -0.42      0.00
    2  -17   10     -0.80      0.00
    3  -17   10     -1.14      0.00
    4  -17   10     -1.31      0.00
    5  -17   10     -1.27      0.00
    6  -17   10     -1.04      0.00
    7  -17   10     -0.68      0.00
    8  -17   10     -0.39      0.00
   -3  -16   10     -0.10      0.00
   -2  -16   10      0.08      0.00
   -1  -16   10      0.10      0.00
    0  -16   10     -0.01      0.00
    1  -16   10     -0.38      0.00
    2  -16   10     -0.87      0.00
    3  -16   10     -1.18      0.00
    4  -16   10     -1.26      0.00
    5  -16   10     -1.21      0.00
    6  -16   10     -1.03      0.00
    7  -16   10     -0.78      0.00
    8  -16   10     -0.63      0.00
    9  -16   10     -0.64      0.00
   10  -16   10     -0.61      0.00
   -5  -15   10     -0.06      0.00
   -4  -15   10      0.15      0.00
   -3  -15   10      0.58      0.00
   -2  -15   10      0.80      0.00
   -1  -15   10      0.74      0.00
    0  -15   10      0.55      0.00
    1  -15   10      0.27      0.00
    2  -15   10      0.04      0.00
    3  -15   10      0.00      0.00
    4  -15   10      0.02      0.00
    5  -15   10     -0.02      0.00
    6  -15   10     -0.08      0.00
    7  -15   10     -0.14      0.00
    8  -15   10     -0.24      0.00
    9  -15   10     -0.32      0.00
   10  -15   10     -0.24      0.00
   11  -15   10     -0.03      0.00
   -6  -14   10      0.02      0.00
   -5  -14   10      0.39      0.00
   -4  -14   10      0.88      0.00
   -3  -14   10      1.27      0.00
   -2  -14   10      1.33      0.00
   -1  -14   10      1.22      0.00
    0  -14   10      1.19      0.00
    1  -14   10      1.28      0.00
    2  -14   10      1.50      0.00
    3  -14   10      1.78      0.00
    4  -14   10      1.88      0.00
    5  -14   10      1.72      0.00
    6  -14   10      1.38      0.00
    7  -14   10      0.99      0.00
    8  -14   10      0.73      0.00
    9  -14   10      0.65      0.00
   10  -14   10      0.63      0.00
   11  -14   10      0.49      0.00
   -8  -13   10     -0.54      0.00
   -7  -13   10     -0.41      0.00
   -6  -13   10      0.15      0.00
   -5  -13   10      0.74      0.00
   -4  -13   10      1.10      0.00
   -3  -13   10      1.21      0.00
   -2  -13   10      1.13      0.00
   -1  -13   10      1.12      0.00
    0  -13   10      1.34      0.00
    1  -13   10      1.79      0.00
    2  -13   10      2.41      0.00
    3  -13   10      2.96      0.00
    4  -13   10      3.12      0.00
    5  -13   10      2.84      0.00
    6  -13   10      2.27      0.00
    7  -13   10      1.70      0.00
    8  -13   10      1.44      0.00
    9  -13   10      1.42      0.00
   10  -13   10      1.26      0.00
   11  -13   10      0.81      0.00
   -9  -12   10     -0.54      0.00
   -8  -12   10     -0.82      0.00
   -7  -12   10     -0.52      0.00
   -6  -12   10      0.12      0.00
   -5  -12   10      0.52      0.00
   -4  -12   10      0.55      0.00
   -3  -12   10      0.42      0.00
   -2  -12   10      0.26      0.00
   -1  -12   10      0.25      0.00
    0  -12   10      0.55      0.00
    1  -12   10      1.24      0.00
    2  -12   10      2.12      0.00
    3  -12   10      2.72      0.00
    4  -12   10      2.74      0.00
    5  -12   10      2.29      0.00
    6  -12   10      1.62      0.00
    7  -12   10      1.07      0.00
    8  -12   10      0.96      0.00
    9  -12   10      1.10      0.00
   10  -12   10      1.01      0.00
   11  -12   10      0.66      0.00
   12  -12   10      0.28      0.00
  -10  -11   10     -0.44      0.00
   -9  -11   10     -0.88      0.00
   -8  -11   10     -1.05      0.00
   -7  -11   10     -0.67      0.00
   -6  -11   10     -0.15      0.00
   -5  -11   10      0.03      0.00
   -4  -11   10     -0.14      0.00
   -3  -11   10     -0.50      0.00
   -2  -11   10     -0.94      0.00
   -1  -11   10     -1.18      0.00
    0  -11   10     -0.85      0.00
    1  -11   10     -0.02      0.00
    2  -11   10      0.83      0.00
    3  -11   10      1.15      0.00
    4  -11   10      0.85      0.00
    5  -11   10      0.21      0.00
    6  -11   10     -0.51      0.00
    7  -11   10     -0.97      0.00
    8  -11   10     -0.86      0.00
    9  -11   10     -0.45      0.00
   10  -11   10     -0.14      0.00
   11  -11   10      0.03      0.00
   12  -11   10      0.12      0.00
   13  -11   10      0.09      0.00
  -10  -10   10     -0.81      0.00
   -9  -10   10     -1.23      0.00
   -8  -10   10     -1.27      0.00
   -7  -10   10     -0.75      0.00
   -6  -10   10     -0.16      0.00
   -5  -10   10     -0.05      0.00
   -4  -10   10     -0.46      0.00
   -3  -10   10     -1.27      0.00
   -2  -10   10     -2.12      0.00
   -1  -10   10     -2.43      0.00
    0  -10   10     -1.96      0.00
    1  -10   10     -1.11      0.00
    2  -10   10     -0.50      0.00
    3  -10   10     -0.54      0.00
    4  -10   10     -1.17      0.00
    5  -10   10     -2.08      0.00
    6  -10   10     -3.01      0.00
    7  -10   10     -3.47      0.00
    8  -10   10     -3.14      0.00
    9  -10   10     -2.34      0.00
   10  -10   10     -1.47      0.00
   11  -10   10     -0.71      0.00
   12  -10   10     -0.30      0.00
   13  -10   10     -0.25      0.00
  -11   -9   10     -0.65      0.00
  -10   -9   10     -1.08      0.00
   -9   -9   10     -1.46      0.00
   -8   -9   10     -1.22      0.00
   -7   -9   10     -0.34      0.00
   -6   -9   10      0.39      0.00
   -5   -9   10      0.30      0.00
   -4   -9   10     -0.61      0.00
   -3   -9   10     -1.87      0.00
   -2   -9   10     -2.75      0.00
   -1   -9   10     -2.68      0.00
    0   -9   10     -1.82      0.00
    1   -9   10     -0.85      0.00
    2   -9   10     -0.38      0.00
    3   -9   10     -0.73      0.00
    4   -9   10     -1.84      0.00
    5   -9   10     -3.28      0.00
    6   -9   10     -4.51      0.00
    7   -9   10     -4.94      0.00
    8   -9   10     -4.35      0.00
    9   -9   10     -3.19      0.00
   10   -9   10     -2.02      0.00
   11   -9   10     -1.17      0.00
   12   -9   10     -0.82      0.00
   13   -9   10     -0.73      0.00
  -12   -8   10     -0.36      0.00
  -11   -8   10     -0.67      0.00
  -10   -8   10     -1.16      0.00
   -9   -8   10     -1.34      0.00
   -8   -8   10     -0.68      0.00
   -7   -8   10      0.48      0.00
   -6   -8   10      1.11      0.00
   -5   -8   10      0.59      0.00
   -4   -8   10     -0.76      0.00
   -3   -8   10     -2.07      0.00
   -2   -8   10     -2.43      0.00
   -1   -8   10     -1.47      0.00
    0   -8   10      0.17      0.00
    1   -8   10      1.53      0.00
    2   -8   10      1.88      0.00
    3   -8   10      0.95      0.00
    4   -8   10     -0.88      0.00
    5   -8   10     -2.80      0.00
    6   -8   10     -4.07      0.00
    7   -8   10     -4.24      0.00
    8   -8   10     -3.44      0.00
    9   -8   10     -2.34      0.00
   10   -8   10     -1.53      0.00
   11   -8   10     -1.13      0.00
   12   -8   10     -1.03      0.00
   13   -8   10     -0.85      0.00
  -12   -7   10     -0.22      0.00
  -11   -7   10     -0.66      0.00
  -10   -7   10     -1.03      0.00
   -9   -7   10     -0.81      0.00
   -8   -7   10      0.17      0.00
   -7   -7   10      1.28      0.00
   -6   -7   10      1.54      0.00
   -5   -7   10      0.58      0.00
   -4   -7   10     -0.97      0.00
   -3   -7   10     -1.97      0.00
   -2   -7   10     -1.35      0.00
   -1   -7   10      0.94      0.00
    0   -7   10      3.64      0.00
    1   -7   10      5.29      0.00
    2   -7   10      5.17      0.00
    3   -7   10      3.43      0.00
    4   -7   10      1.04      0.00
    5   -7   10     -0.88      0.00
    6   -7   10     -1.76      0.00
    7   -7   10     -1.59      0.00
    8   -7   10     -0.86      0.00
    9   -7   10     -0.37      0.00
   10   -7   10     -0.41      0.00
   11   -7   10     -0.66      0.00
   12   -7   10     -0.75      0.00
  -13   -6   10      0.15      0.00
  -12   -6   10     -0.22      0.00
  -11   -6   10     -0.62      0.00
  -10   -6   10     -0.60      0.00
   -9   -6   10      0.04      0.00
   -8   -6   10      1.04      0.00
   -7   -6   10      1.71      0.00
   -6   -6   10      1.34      0.00
   -5   -6   10     -0.12      0.00
   -4   -6   10     -1.77      0.00
   -3   -6   10     -2.12      0.00
   -2   -6   10     -0.15      0.00
   -1   -6   10      3.54      0.00
    0   -6   10      6.92      0.00
    1   -6   10      8.31      0.00
    2   -6   10      7.45      0.00
    3   -6   10      5.20      0.00
    4   -6   10      2.83      0.00
    5   -6   10      1.39      0.00
    6   -6   10      1.10      0.00
    7   -6   10      1.52      0.00
    8   -6   10      1.86      0.00
    9   -6   10      1.47      0.00
   10   -6   10      0.56      0.00
   11   -6   10     -0.13      0.00
  -13   -5   10      0.05      0.00
  -12   -5   10     -0.32      0.00
  -11   -5   10     -0.43      0.00
  -10   -5   10      0.03      0.00
   -9   -5   10      0.87      0.00
   -8   -5   10      1.50      0.00
   -7   -5   10      1.35      0.00
   -6   -5   10      0.06      0.00
   -5   -5   10     -1.98      0.00
   -4   -5   10     -3.44      0.00
   -3   -5   10     -2.79      0.00
   -2   -5   10      0.47      0.00
   -1   -5   10      4.89      0.00
    0   -5   10      8.06      0.00
    1   -5   10      8.69      0.00
    2   -5   10      7.28      0.00
    3   -5   10      5.05      0.00
    4   -5   10      3.24      0.00
    5   -5   10      2.60      0.00
    6   -5   10      2.92      0.00
    7   -5   10      3.35      0.00
    8   -5   10      3.10      0.00
    9   -5   10      2.01      0.00
   10   -5   10      0.77      0.00
   11   -5   10      0.14      0.00
  -14   -4   10      0.04      0.00
  -13   -4   10     -0.18      0.00
  -12   -4   10     -0.34      0.00
  -11   -4   10     -0.11      0.00
  -10   -4   10      0.60      0.00
   -9   -4   10      1.27      0.00
   -8   -4   10      1.18      0.00
   -7   -4   10     -0.02      0.00
   -6   -4   10     -2.17      0.00
   -5   -4   10     -4.37      0.00
   -4   -4   10     -5.19      0.00
   -3   -4   10     -3.58      0.00
   -2   -4   10      0.19      0.00
   -1   -4   10      4.23      0.00
    0   -4   10      6.39      0.00
    1   -4   10      6.10      0.00
    2   -4   10      4.45      0.00
    3   -4   10      2.73      0.00
    4   -4   10      1.91      0.00
    5   -4   10      2.18      0.00
    6   -4   10      2.80      0.00
    7   -4   10      2.86      0.00
    8   -4   10      2.12      0.00
    9   -4   10      1.00      0.00
   10   -4   10      0.22      0.00
   11   -4   10      0.14      0.00
   12   -4   10      0.40      0.00
   13   -4   10      0.48      0.00
  -14   -3   10     -0.26      0.00
  -13   -3   10     -0.34      0.00
  -12   -3   10     -0.22      0.00
  -11   -3   10      0.28      0.00
  -10   -3   10      0.97      0.00
   -9   -3   10      1.17      0.00
   -8   -3   10      0.24      0.00
   -7   -3   10     -1.76      0.00
   -6   -3   10     -4.12      0.00
   -5   -3   10     -5.76      0.00
   -4   -3   10     -5.74      0.00
   -3   -3   10     -3.76      0.00
   -2   -3   10     -0.52      0.00
   -1   -3   10      2.24      0.00
    0   -3   10      3.00      0.00
    1   -3   10      1.93      0.00
    2   -3   10      0.42      0.00
    3   -3   10     -0.43      0.00
    4   -3   10     -0.27      0.00
    5   -3   10      0.47      0.00
    6   -3   10      0.87      0.00
    7   -3   10      0.50      0.00
    8   -3   10     -0.21      0.00
    9   -3   10     -0.66      0.00
   10   -3   10     -0.55      0.00
   11   -3   10     -0.03      0.00
   12   -3   10      0.43      0.00
   13   -3   10      0.43      0.00
  -14   -2   10     -0.51      0.00
  -13   -2   10     -0.38      0.00
  -12   -2   10      0.03      0.00
  -11   -2   10      0.67      0.00
  -10   -2   10      1.17      0.00
   -9   -2   10      0.82      0.00
   -8   -2   10     -0.69      0.00
   -7   -2   10     -2.78      0.00
   -6   -2   10     -4.52      0.00
   -5   -2   10     -5.17      0.00
   -4   -2   10     -4.48      0.00
   -3   -2   10     -2.74      0.00
   -2   -2   10     -0.71      0.00
   -1   -2   10      0.42      0.00
    0   -2   10     -0.05      0.00
    1   -2   10     -1.41      0.00
    2   -2   10     -2.40      0.00
    3   -2   10     -2.54      0.00
    4   -2   10     -2.07      0.00
    5   -2   10     -1.52      0.00
    6   -2   10     -1.47      0.00
    7   -2   10     -1.84      0.00
    8   -2   10     -2.05      0.00
    9   -2   10     -1.75      0.00
   10   -2   10     -1.04      0.00
   11   -2   10     -0.26      0.00
   12   -2   10      0.19      0.00
   13   -2   10      0.16      0.00
  -15   -1   10     -0.68      0.00
  -14   -1   10     -0.67      0.00
  -13   -1   10     -0.28      0.00
  -12   -1   10      0.29      0.00
  -11   -1   10      0.86      0.00
  -10   -1   10      1.04      0.00
   -9   -1   10      0.36      0.00
   -8   -1   10     -1.09      0.00
   -7   -1   10     -2.52      0.00
   -6   -1   10     -3.18      0.00
   -5   -1   10     -2.83      0.00
   -4   -1   10     -1.76      0.00
   -3   -1   10     -0.59      0.00
   -2   -1   10      0.10      0.00
   -1   -1   10     -0.11      0.00
    0   -1   10     -1.10      0.00
    1   -1   10     -2.14      0.00
    2   -1   10     -2.68      0.00
    3   -1   10     -2.77      0.00
    4   -1   10     -2.60      0.00
    5   -1   10     -2.41      0.00
    6   -1   10     -2.46      0.00
    7   -1   10     -2.59      0.00
    8   -1   10     -2.40      0.00
    9   -1   10     -1.80      0.00
   10   -1   10     -1.01      0.00
   11   -1   10     -0.35      0.00
   12   -1   10     -0.03      0.00
  -15    0   10     -0.85      0.00
  -14    0   10     -0.55      0.00
  -13    0   10     -0.06      0.00
  -12    0   10      0.33      0.00
  -11    0   10      0.53      0.00
  -10    0   10      0.41      0.00
   -9    0   10     -0.17      0.00
   -8    0   10     -0.94      0.00
   -7    0   10     -1.33      0.00
   -6    0   10     -0.97      0.00
   -5    0   10      0.08      0.00
   -4    0   10      1.26      0.00
   -3    0   10      1.82      0.00
   -2    0   10      1.53      0.00
   -1    0   10      0.78      0.00
    0    0   10     -0.01      0.00
    1    0   10     -0.62      0.00
    2    0   10     -1.08      0.00
    3    0   10     -1.44      0.00
    4    0   10     -1.60      0.00
    5    0   10     -1.64      0.00
    6    0   10     -1.80      0.00
    7    0   10     -1.88      0.00
    8    0   10     -1.61      0.00
    9    0   10     -1.09      0.00
   10    0   10     -0.57      0.00
   11    0   10     -0.22      0.00
   12    0   10     -0.07      0.00
  -16    1   10     -0.71      0.00
  -15    1   10     -0.59      0.00
  -14    1   10     -0.19      0.00
  -13    1   10      0.02      0.00
  -12    1   10     -0.10      0.00
  -11    1   10     -0.32      0.00
  -10    1   10     -0.50      0.00
   -9    1   10     -0.62      0.00
   -8    1   10     -0.58      0.00
   -7    1   10     -0.15      0.00
   -6    1   10      0.82      0.00
   -5    1   10      2.16      0.00
   -4    1   10      3.21      0.00
   -3    1   10      3.33      0.00
   -2    1   10      2.69      0.00
   -1    1   10      2.02      0.00
    0    1   10      1.62      0.00
    1    1   10      1.30      0.00
    2    1   10      0.90      0.00
    3    1   10      0.49      0.00
    4    1   10      0.17      0.00
    5    1   10     -0.18      0.00
    6    1   10     -0.59      0.00
    7    1   10     -0.74      0.00
    8    1   10     -0.54      0.00
    9    1   10     -0.29      0.00
   10    1   10     -0.17      0.00
   11    1   10     -0.12      0.00
  -15    2   10     -0.20      0.00
  -14    2   10     -0.07      0.00
  -13    2   10     -0.29      0.00
  -12    2   10     -0.80      0.00
  -11    2   10     -1.19      0.00
  -10    2   10     -1.24      0.00
   -9    2   10     -1.00      0.00
   -8    2   10     -0.52      0.00
   -7    2   10      0.23      0.00
   -6    2   10      1.28      0.00
   -5    2   10      2.47      0.00
   -4    2   10      3.26      0.00
   -3    2   10      3.19      0.00
   -2    2   10      2.64      0.00
   -1    2   10      2.28      0.00
    0    2   10      2.27      0.00
    1    2   10      2.30      0.00
    2    2   10      2.15      0.00
    3    2   10      1.81      0.00
    4    2   10      1.30      0.00
    5    2   10      0.69      0.00
    6    2   10      0.21      0.00
    7    2   10      0.06      0.00
    8    2   10      0.11      0.00
    9    2   10      0.05      0.00
   10    2   10     -0.11      0.00
   11    2   10     -0.18      0.00
  -15    3   10     -0.23      0.00
  -14    3   10     -0.41      0.00
  -13    3   10     -0.78      0.00
  -12    3   10     -1.28      0.00
  -11    3   10     -1.62      0.00
  -10    3   10     -1.60      0.00
   -9    3   10     -1.30      0.00
   -8    3   10     -0.85      0.00
   -7    3   10     -0.27      0.00
   -6    3   10      0.43      0.00
   -5    3   10      1.18      0.00
   -4    3   10      1.64      0.00
   -3    3   10      1.55      0.00
   -2    3   10      1.27      0.00
   -1    3   10      1.33      0.00
    0    3   10      1.74      0.00
    1    3   10      2.11      0.00
    2    3   10      2.10      0.00
    3    3   10      1.70      0.00
    4    3   10      1.13      0.00
    5    3   10      0.61      0.00
    6    3   10      0.28      0.00
    7    3   10      0.17      0.00
    8    3   10      0.10      0.00
    9    3   10     -0.07      0.00
   10    3   10     -0.20      0.00
  -16    4   10     -0.30      0.00
  -15    4   10     -0.56      0.00
  -14    4   10     -0.74      0.00
  -13    4   10     -0.91      0.00
  -12    4   10     -1.19      0.00
  -11    4   10     -1.44      0.00
  -10    4   10     -1.46      0.00
   -9    4   10     -1.33      0.00
   -8    4   10     -1.18      0.00
   -7    4   10     -1.03      0.00
   -6    4   10     -0.85      0.00
   -5    4   10     -0.61      0.00
   -4    4   10     -0.42      0.00
   -3    4   10     -0.41      0.00
   -2    4   10     -0.34      0.00
   -1    4   10      0.08      0.00
    0    4   10      0.65      0.00
    1    4   10      0.96      0.00
    2    4   10      0.84      0.00
    3    4   10      0.43      0.00
    4    4   10      0.07      0.00
    5    4   10     -0.15      0.00
    6    4   10     -0.25      0.00
    7    4   10     -0.27      0.00
    8    4   10     -0.26      0.00
    9    4   10     -0.24      0.00
  -15    5   10     -0.59      0.00
  -14    5   10     -0.58      0.00
  -13    5   10     -0.46      0.00
  -12    5   10     -0.54      0.00
  -11    5   10     -0.74      0.00
  -10    5   10     -0.83      0.00
   -9    5   10     -0.92      0.00
   -8    5   10     -1.08      0.00
   -7    5   10     -1.29      0.00
   -6    5   10     -1.47      0.00
   -5    5   10     -1.53      0.00
   -4    5   10     -1.44      0.00
   -3    5   10     -1.30      0.00
   -2    5   10     -1.06      0.00
   -1    5   10     -0.71      0.00
    0    5   10     -0.49      0.00
    1    5   10     -0.52      0.00
    2    5   10     -0.74      0.00
    3    5   10     -0.99      0.00
    4    5   10     -1.08      0.00
    5    5   10     -1.02      0.00
    6    5   10     -0.90      0.00
    7    5   10     -0.73      0.00
    8    5   10     -0.50      0.00
    9    5   10     -0.23      0.00
  -14    6   10     -0.07      0.00
  -13    6   10      0.22      0.00
  -12    6   10      0.25      0.00
  -11    6   10      0.10      0.00
  -10    6   10     -0.05      0.00
   -9    6   10     -0.23      0.00
   -8    6   10     -0.44      0.00
   -7    6   10     -0.65      0.00
   -6    6   10     -0.88      0.00
   -5    6   10     -0.98      0.00
   -4    6   10     -0.90      0.00
   -3    6   10     -0.77      0.00
   -2    6   10     -0.72      0.00
   -1    6   10     -0.82      0.00
    0    6   10     -1.08      0.00
    1    6   10     -1.36      0.00
    2    6   10     -1.56      0.00
    3    6   10     -1.69      0.00
    4    6   10     -1.65      0.00
    5    6   10     -1.43      0.00
    6    6   10     -1.12      0.00
    7    6   10     -0.78      0.00
    8    6   10     -0.43      0.00
  -14    7   10      0.29      0.00
  -13    7   10      0.64      0.00
  -12    7   10      0.69      0.00
  -11    7   10      0.51      0.00
  -10    7   10      0.39      0.00
   -9    7   10      0.39      0.00
   -8    7   10      0.50      0.00
   -7    7   10      0.59      0.00
   -6    7   10      0.53      0.00
   -5    7   10      0.49      0.00
   -4    7   10      0.58      0.00
   -3    7   10      0.58      0.00
   -2    7   10      0.33      0.00
   -1    7   10     -0.15      0.00
    0    7   10     -0.68      0.00
    1    7   10     -1.06      0.00
    2    7   10     -1.30      0.00
    3    7   10     -1.46      0.00
    4    7   10     -1.42      0.00
    5    7   10     -1.18      0.00
    6    7   10     -0.82      0.00
    7    7   10     -0.44      0.00
  -14    8   10      0.29      0.00
  -13    8   10      0.59      0.00
  -12    8   10      0.55      0.00
  -11    8   10      0.32      0.00
  -10    8   10      0.33      0.00
   -9    8   10      0.67      0.00
   -8    8   10      1.19      0.00
   -7    8   10      1.61      0.00
   -6    8   10      1.76      0.00
   -5    8   10      1.84      0.00
   -4    8   10      1.99      0.00
   -3    8   10      1.94      0.00
   -2    8   10      1.53      0.00
   -1    8   10      0.90      0.00
    0    8   10      0.29      0.00
    1    8   10     -0.11      0.00
    2    8   10     -0.36      0.00
    3    8   10     -0.56      0.00
    4    8   10     -0.64      0.00
    5    8   10     -0.55      0.00
    6    8   10     -0.31      0.00
  -13    9   10      0.31      0.00
  -12    9   10      0.14      0.00
  -11    9   10     -0.15      0.00
  -10    9   10     -0.10      0.00
   -9    9   10      0.36      0.00
   -8    9   10      1.03      0.00
   -7    9   10      1.63      0.00
   -6    9   10      1.95      0.00
   -5    9   10      2.16      0.00
   -4    9   10      2.41      0.00
   -3    9   10      2.41      0.00
   -2    9   10      1.99      0.00
   -1    9   10      1.39      0.00
    0    9   10      0.95      0.00
    1    9   10      0.77      0.00
    2    9   10      0.65      0.00
    3    9   10      0.40      0.00
    4    9   10      0.11      0.00
  -12   10   10     -0.23      0.00
  -11   10   10     -0.65      0.00
  -10   10   10     -0.74      0.00
   -9   10   10     -0.47      0.00
   -8   10   10      0.06      0.00
   -7   10   10      0.60      0.00
   -6   10   10      0.87      0.00
   -5   10   10      1.09      0.00
   -4   10   10      1.43      0.00
   -3   10   10      1.54      0.00
   -2   10   10      1.26      0.00
   -1   10   10      0.98      0.00
    0   10   10      1.00      0.00
    1   10   10      1.18      0.00
    2   10   10      1.13      0.00
    3   10   10      0.77      0.00
  -12   11   10     -0.49      0.00
  -11   11   10     -1.01      0.00
  -10   11   10     -1.24      0.00
   -9   11   10     -1.17      0.00
   -8   11   10     -0.91      0.00
   -7   11   10     -0.72      0.00
   -6   11   10     -0.75      0.00
   -5   11   10     -0.64      0.00
   -4   11   10     -0.22      0.00
   -3   11   10      0.05      0.00
   -2   11   10      0.06      0.00
   -1   11   10      0.23      0.00
    0   11   10      0.66      0.00
    1   11   10      0.95      0.00
    2   11   10      0.81      0.00
  -11   12   10     -0.92      0.00
  -10   12   10     -1.05      0.00
   -9   12   10     -1.05      0.00
   -8   12   10     -1.13      0.00
   -7   12   10     -1.38      0.00
   -6   12   10     -1.68      0.00
   -5   12   10     -1.60      0.00
   -4   12   10     -1.11      0.00
   -3   12   10     -0.73      0.00
   -2   12   10     -0.55      0.00
    0   12   10      0.22      0.00
   -7   13   10     -1.05      0.00
   -6   13   10     -1.34      0.00
    1  -17   11      0.12      0.00
    2  -17   11     -0.02      0.00
    3  -17   11     -0.06      0.00
    4  -17   11     -0.05      0.00
    5  -17   11     -0.10      0.00
   -1  -16   11      0.14      0.00
    0  -16   11      0.14      0.00
    1  -16   11     -0.05      0.00
    2  -16   11     -0.39      0.00
    3  -16   11     -0.55      0.00
    4  -16   11     -0.57      0.00
    5  -16   11     -0.69      0.00
    6  -16   11     -0.84      0.00
    7  -16   11     -0.85      0.00
    8  -16   11     -0.68      0.00
   -4  -15   11      0.10      0.00
   -3  -15   11     -0.05      0.00
   -2  -15   11     -0.13      0.00
   -1  -15   11     -0.12      0.00
    0  -15   11     -0.16      0.00
    1  -15   11     -0.45      0.00
    2  -15   11     -0.80      0.00
    3  -15   11     -0.91      0.00
    4  -15   11     -0.96      0.00
    5  -15   11     -1.20      0.00
    6  -15   11     -1.46      0.00
    7  -15   11     -1.56      0.00
    8  -15   11     -1.42      0.00
    9  -15   11     -1.03      0.00
   10  -15   11     -0.46      0.00
   -5  -14   11     -0.32      0.00
   -4  -14   11     -0.33      0.00
   -3  -14   11     -0.35      0.00
   -2  -14   11     -0.36      0.00
   -1  -14   11     -0.30      0.00
    0  -14   11     -0.29      0.00
    1  -14   11     -0.45      0.00
    2  -14   11     -0.59      0.00
    3  -14   11     -0.58      0.00
    4  -14   11     -0.66      0.00
    5  -14   11     -0.96      0.00
    6  -14   11     -1.32      0.00
    7  -14   11     -1.60      0.00
    8  -14   11     -1.60      0.00
    9  -14   11     -1.15      0.00
   10  -14   11     -0.42      0.00
   -7  -13   11     -1.03      0.00
   -6  -13   11     -1.04      0.00
   -5  -13   11     -0.72      0.00
   -4  -13   11     -0.41      0.00
   -3  -13   11     -0.24      0.00
   -2  -13   11     -0.15      0.00
   -1  -13   11      0.00      0.00
    0  -13   11      0.15      0.00
    1  -13   11      0.21      0.00
    2  -13   11      0.32      0.00
    3  -13   11      0.52      0.00
    4  -13   11      0.56      0.00
    5  -13   11      0.32      0.00
    6  -13   11     -0.14      0.00
    7  -13   11     -0.68      0.00
    8  -13   11     -0.87      0.00
    9  -13   11     -0.49      0.00
   10  -13   11      0.08      0.00
   11  -13   11      0.35      0.00
   -8  -12   11     -1.11      0.00
   -7  -12   11     -1.41      0.00
   -6  -12   11     -1.08      0.00
   -5  -12   11     -0.43      0.00
   -4  -12   11      0.05      0.00
   -3  -12   11      0.26      0.00
   -2  -12   11      0.35      0.00
   -1  -12   11      0.51      0.00
    0  -12   11      0.77      0.00
    1  -12   11      1.07      0.00
    2  -12   11      1.51      0.00
    3  -12   11      2.01      0.00
    4  -12   11      2.25      0.00
    5  -12   11      2.06      0.00
    6  -12   11      1.45      0.00
    7  -12   11      0.67      0.00
    8  -12   11      0.29      0.00
    9  -12   11      0.46      0.00
   10  -12   11      0.75      0.00
   11  -12   11      0.80      0.00
   -9  -11   11     -0.64      0.00
   -8  -11   11     -1.10      0.00
   -7  -11   11     -1.12      0.00
   -6  -11   11     -0.53      0.00
   -5  -11   11      0.18      0.00
   -4  -11   11      0.59      0.00
   -3  -11   11      0.62      0.00
   -2  -11   11      0.46      0.00
   -1  -11   11      0.46      0.00
    0  -11   11      0.81      0.00
    1  -11   11      1.49      0.00
    2  -11   11      2.39      0.00
    3  -11   11      3.14      0.00
    4  -11   11      3.42      0.00
    5  -11   11      3.12      0.00
    6  -11   11      2.31      0.00
    7  -11   11      1.37      0.00
    8  -11   11      0.87      0.00
    9  -11   11      0.93      0.00
   10  -11   11      1.12      0.00
   11  -11   11      1.16      0.00
   12  -11   11      0.94      0.00
   13  -11   11      0.52      0.00
  -10  -10   11      0.25      0.00
   -9  -10   11     -0.23      0.00
   -8  -10   11     -0.72      0.00
   -7  -10   11     -0.61      0.00
   -6  -10   11      0.05      0.00
   -5  -10   11      0.72      0.00
   -4  -10   11      0.94      0.00
   -3  -10   11      0.53      0.00
   -2  -10   11     -0.20      0.00
   -1  -10   11     -0.54      0.00
    0  -10   11     -0.02      0.00
    1  -10   11      1.13      0.00
    2  -10   11      2.41      0.00
    3  -10   11      3.23      0.00
    4  -10   11      3.30      0.00
    5  -10   11      2.69      0.00
    6  -10   11      1.62      0.00
    7  -10   11      0.61      0.00
    8  -10   11      0.24      0.00
    9  -10   11      0.47      0.00
   10  -10   11      0.83      0.00
   11  -10   11      1.01      0.00
   12  -10   11      0.83      0.00
   13  -10   11      0.39      0.00
  -11   -9   11      1.21      0.00
  -10   -9   11      0.92      0.00
   -9   -9   11      0.13      0.00
   -8   -9   11     -0.42      0.00
   -7   -9   11     -0.13      0.00
   -6   -9   11      0.70      0.00
   -5   -9   11      1.31      0.00
   -4   -9   11      1.11      0.00
   -3   -9   11     -0.04      0.00
   -2   -9   11     -1.49      0.00
   -1   -9   11     -2.08      0.00
    0   -9   11     -1.32      0.00
    1   -9   11      0.25      0.00
    2   -9   11      1.73      0.00
    3   -9   11      2.37      0.00
    4   -9   11      1.94      0.00
    5   -9   11      0.80      0.00
    6   -9   11     -0.50      0.00
    7   -9   11     -1.31      0.00
    8   -9   11     -1.25      0.00
    9   -9   11     -0.62      0.00
   10   -9   11      0.02      0.00
   11   -9   11      0.38      0.00
   12   -9   11      0.33      0.00
   13   -9   11      0.04      0.00
  -12   -8   11      1.39      0.00
  -11   -8   11      1.52      0.00
  -10   -8   11      0.87      0.00
   -9   -8   11      0.00      0.00
   -8   -8   11     -0.18      0.00
   -7   -8   11      0.58      0.00
   -6   -8   11      1.58      0.00
   -5   -8   11      1.87      0.00
   -4   -8   11      0.93      0.00
   -3   -8   11     -1.01      0.00
   -2   -8   11     -2.86      0.00
   -1   -8   11     -3.26      0.00
    0   -8   11     -2.02      0.00
    1   -8   11     -0.11      0.00
    2   -8   11      1.26      0.00
    3   -8   11      1.30      0.00
    4   -8   11      0.08      0.00
    5   -8   11     -1.57      0.00
    6   -8   11     -2.80      0.00
    7   -8   11     -3.12      0.00
    8   -8   11     -2.51      0.00
    9   -8   11     -1.52      0.00
   10   -8   11     -0.72      0.00
   11   -8   11     -0.29      0.00
   12   -8   11     -0.20      0.00
  -12   -7   11      0.96      0.00
  -11   -7   11      0.70      0.00
  -10   -7   11      0.02      0.00
   -9   -7   11     -0.33      0.00
   -8   -7   11      0.21      0.00
   -7   -7   11      1.41      0.00
   -6   -7   11      2.29      0.00
   -5   -7   11      1.96      0.00
   -4   -7   11      0.26      0.00
   -3   -7   11     -2.04      0.00
   -2   -7   11     -3.53      0.00
   -1   -7   11     -3.08      0.00
    0   -7   11     -1.09      0.00
    1   -7   11      0.93      0.00
    2   -7   11      1.64      0.00
    3   -7   11      0.67      0.00
    4   -7   11     -1.27      0.00
    5   -7   11     -2.98      0.00
    6   -7   11     -3.74      0.00
    7   -7   11     -3.48      0.00
    8   -7   11     -2.50      0.00
    9   -7   11     -1.45      0.00
   10   -7   11     -0.82      0.00
   11   -7   11     -0.55      0.00
  -12   -6   11     -0.13      0.00
  -11   -6   11     -0.57      0.00
  -10   -6   11     -0.86      0.00
   -9   -6   11     -0.46      0.00
   -8   -6   11      0.67      0.00
   -7   -6   11      1.94      0.00
   -6   -6   11      2.40      0.00
   -5   -6   11      1.42      0.00
   -4   -6   11     -0.63      0.00
   -3   -6   11     -2.56      0.00
   -2   -6   11     -2.93      0.00
   -1   -6   11     -1.24      0.00
    0   -6   11      1.32      0.00
    1   -6   11      2.88      0.00
    2   -6   11      2.54      0.00
    3   -6   11      0.72      0.00
    4   -6   11     -1.35      0.00
    5   -6   11     -2.55      0.00
    6   -6   11     -2.62      0.00
    7   -6   11     -1.92      0.00
    8   -6   11     -0.93      0.00
    9   -6   11     -0.28      0.00
   10   -6   11     -0.22      0.00
  -13   -5   11     -0.58      0.00
  -12   -5   11     -1.01      0.00
  -11   -5   11     -1.37      0.00
  -10   -5   11     -1.18      0.00
   -9   -5   11     -0.24      0.00
   -8   -5   11      1.04      0.00
   -7   -5   11      1.95      0.00
   -6   -5   11      1.78      0.00
   -5   -5   11      0.38      0.00
   -4   -5   11     -1.46      0.00
   -3   -5   11     -2.41      0.00
   -2   -5   11     -1.45      0.00
   -1   -5   11      1.13      0.00
    0   -5   11      3.53      0.00
    1   -5   11      4.19      0.00
    2   -5   11      3.05      0.00
    3   -5   11      1.14      0.00
    4   -5   11     -0.34      0.00
    5   -5   11     -0.68      0.00
    6   -5   11     -0.07      0.00
    7   -5   11      0.81      0.00
    8   -5   11      1.37      0.00
    9   -5   11      1.22      0.00
   10   -5   11      0.53      0.00
  -13   -4   11     -0.82      0.00
  -12   -4   11     -1.32      0.00
  -11   -4   11     -1.49      0.00
  -10   -4   11     -0.93      0.00
   -9   -4   11      0.19      0.00
   -8   -4   11      1.16      0.00
   -7   -4   11      1.35      0.00
   -6   -4   11      0.52      0.00
   -5   -4   11     -1.00      0.00
   -4   -4   11     -2.24      0.00
   -3   -4   11     -2.14      0.00
   -2   -4   11     -0.39      0.00
   -1   -4   11      2.14      0.00
    0   -4   11      3.74      0.00
    1   -4   11      3.59      0.00
    2   -4   11      2.38      0.00
    3   -4   11      1.18      0.00
    4   -4   11      0.75      0.00
    5   -4   11      1.34      0.00
    6   -4   11      2.39      0.00
    7   -4   11      3.02      0.00
    8   -4   11      2.83      0.00
    9   -4   11      1.91      0.00
   10   -4   11      0.78      0.00
   11   -4   11      0.05      0.00
   12   -4   11     -0.10      0.00
  -14   -3   11     -0.41      0.00
  -13   -3   11     -0.87      0.00
  -12   -3   11     -1.22      0.00
  -11   -3   11     -1.08      0.00
  -10   -3   11     -0.30      0.00
   -9   -3   11      0.64      0.00
   -8   -3   11      0.95      0.00
   -7   -3   11      0.34      0.00
   -6   -3   11     -0.96      0.00
   -5   -3   11     -2.37      0.00
   -4   -3   11     -3.06      0.00
   -3   -3   11     -2.49      0.00
   -2   -3   11     -0.85      0.00
   -1   -3   11      0.88      0.00
    0   -3   11      1.53      0.00
    1   -3   11      1.06      0.00
    2   -3   11      0.44      0.00
    3   -3   11      0.38      0.00
    4   -3   11      1.07      0.00
    5   -3   11      2.29      0.00
    6   -3   11      3.22      0.00
    7   -3   11      3.22      0.00
    8   -3   11      2.41      0.00
    9   -3   11      1.32      0.00
   10   -3   11      0.42      0.00
   11   -3   11     -0.01      0.00
   12   -3   11     -0.02      0.00
  -14   -2   11     -0.49      0.00
  -13   -2   11     -0.72      0.00
  -12   -2   11     -0.66      0.00
  -11   -2   11     -0.18      0.00
  -10   -2   11      0.59      0.00
   -9   -2   11      1.07      0.00
   -8   -2   11      0.70      0.00
   -7   -2   11     -0.46      0.00
   -6   -2   11     -2.00      0.00
   -5   -2   11     -3.32      0.00
   -4   -2   11     -3.84      0.00
   -3   -2   11     -3.44      0.00
   -2   -2   11     -2.51      0.00
   -1   -2   11     -1.81      0.00
    0   -2   11     -1.80      0.00
    1   -2   11     -2.06      0.00
    2   -2   11     -1.77      0.00
    3   -2   11     -0.81      0.00
    4   -2   11      0.48      0.00
    5   -2   11      1.60      0.00
    6   -2   11      1.97      0.00
    7   -2   11      1.46      0.00
    8   -2   11      0.64      0.00
    9   -2   11      0.05      0.00
   10   -2   11     -0.18      0.00
   11   -2   11     -0.13      0.00
   12   -2   11      0.04      0.00
  -15   -1   11     -0.21      0.00
  -14   -1   11     -0.30      0.00
  -13   -1   11     -0.08      0.00
  -12   -1   11      0.41      0.00
  -11   -1   11      1.02      0.00
  -10   -1   11      1.55      0.00
   -9   -1   11      1.56      0.00
   -8   -1   11      0.75      0.00
   -7   -1   11     -0.67      0.00
   -6   -1   11     -2.25      0.00
   -5   -1   11     -3.51      0.00
   -4   -1   11     -4.05      0.00
   -3   -1   11     -4.03      0.00
   -2   -1   11     -3.90      0.00
   -1   -1   11     -3.97      0.00
    0   -1   11     -4.13      0.00
    1   -1   11     -3.87      0.00
    2   -1   11     -2.90      0.00
    3   -1   11     -1.67      0.00
    4   -1   11     -0.68      0.00
    5   -1   11     -0.15      0.00
    6   -1   11     -0.24      0.00
    7   -1   11     -0.72      0.00
    8   -1   11     -1.05      0.00
    9   -1   11     -0.98      0.00
   10   -1   11     -0.63      0.00
   11   -1   11     -0.25      0.00
   12   -1   11     -0.03      0.00
  -15    0   11     -0.01      0.00
  -14    0   11      0.28      0.00
  -13    0   11      0.87      0.00
  -12    0   11      1.45      0.00
  -11    0   11      1.92      0.00
  -10    0   11      2.16      0.00
   -9    0   11      1.89      0.00
   -8    0   11      0.97      0.00
   -7    0   11     -0.35      0.00
   -6    0   11     -1.69      0.00
   -5    0   11     -2.65      0.00
   -4    0   11     -3.08      0.00
   -3    0   11     -3.32      0.00
   -2    0   11     -3.72      0.00
   -1    0   11     -4.10      0.00
    0    0   11     -4.07      0.00
    1    0   11     -3.43      0.00
    2    0   11     -2.50      0.00
    3    0   11     -1.81      0.00
    4    0   11     -1.51      0.00
    5    0   11     -1.49      0.00
    6    0   11     -1.71      0.00
    7    0   11     -1.93      0.00
    8    0   11     -1.81      0.00
    9    0   11     -1.32      0.00
   10    0   11     -0.71      0.00
   11    0   11     -0.26      0.00
  -15    1   11      0.35      0.00
  -14    1   11      0.91      0.00
  -13    1   11      1.49      0.00
  -12    1   11      1.85      0.00
  -11    1   11      2.03      0.00
  -10    1   11      2.08      0.00
   -9    1   11      1.82      0.00
   -8    1   11      1.16      0.00
   -7    1   11      0.32      0.00
   -6    1   11     -0.45      0.00
   -5    1   11     -0.91      0.00
   -4    1   11     -1.06      0.00
   -3    1   11     -1.32      0.00
   -2    1   11     -1.83      0.00
   -1    1   11     -2.15      0.00
    0    1   11     -1.95      0.00
    1    1   11     -1.41      0.00
    2    1   11     -0.99      0.00
    3    1   11     -0.95      0.00
    4    1   11     -1.14      0.00
    5    1   11     -1.40      0.00
    6    1   11     -1.72      0.00
    7    1   11     -1.86      0.00
    8    1   11     -1.58      0.00
    9    1   11     -1.01      0.00
   10    1   11     -0.47      0.00
  -15    2   11      0.65      0.00
  -14    2   11      1.17      0.00
  -13    2   11      1.46      0.00
  -12    2   11      1.46      0.00
  -11    2   11      1.39      0.00
  -10    2   11      1.40      0.00
   -9    2   11      1.38      0.00
   -8    2   11      1.18      0.00
   -7    2   11      0.92      0.00
   -6    2   11      0.74      0.00
   -5    2   11      0.78      0.00
   -4    2   11      0.99      0.00
   -3    2   11      0.97      0.00
   -2    2   11      0.68      0.00
   -1    2   11      0.52      0.00
    0    2   11      0.69      0.00
    1    2   11      0.96      0.00
    2    2   11      1.03      0.00
    3    2   11      0.79      0.00
    4    2   11      0.38      0.00
    5    2   11     -0.10      0.00
    6    2   11     -0.59      0.00
    7    2   11     -0.82      0.00
    8    2   11     -0.67      0.00
    9    2   11     -0.39      0.00
   10    2   11     -0.20      0.00
  -15    3   11      0.69      0.00
  -14    3   11      0.93      0.00
  -13    3   11      0.87      0.00
  -12    3   11      0.58      0.00
  -11    3   11      0.37      0.00
  -10    3   11      0.46      0.00
   -9    3   11      0.63      0.00
   -8    3   11      0.70      0.00
   -7    3   11      0.76      0.00
   -6    3   11      0.97      0.00
   -5    3   11      1.40      0.00
   -4    3   11      1.95      0.00
   -3    3   11      2.25      0.00
   -2    3   11      2.26      0.00
   -1    3   11      2.31      0.00
    0    3   11      2.54      0.00
    1    3   11      2.81      0.00
    2    3   11      2.86      0.00
    3    3   11      2.56      0.00
    4    3   11      2.05      0.00
    5    3   11      1.50      0.00
    6    3   11      0.96      0.00
    7    3   11      0.57      0.00
    8    3   11      0.33      0.00
    9    3   11      0.09      0.00
  -14    4   11      0.29      0.00
  -13    4   11      0.05      0.00
  -12    4   11     -0.31      0.00
  -11    4   11     -0.53      0.00
  -10    4   11     -0.52      0.00
   -9    4   11     -0.50      0.00
   -8    4   11     -0.52      0.00
   -7    4   11     -0.36      0.00
   -6    4   11      0.04      0.00
   -5    4   11      0.62      0.00
   -4    4   11      1.28      0.00
   -3    4   11      1.76      0.00
   -2    4   11      2.09      0.00
   -1    4   11      2.52      0.00
    0    4   11      3.05      0.00
    1    4   11      3.48      0.00
    2    4   11      3.58      0.00
    3    4   11      3.31      0.00
    4    4   11      2.90      0.00
    5    4   11      2.50      0.00
    6    4   11      2.01      0.00
    7    4   11      1.41      0.00
    8    4   11      0.79      0.00
  -14    5   11     -0.34      0.00
  -13    5   11     -0.47      0.00
  -12    5   11     -0.68      0.00
  -11    5   11     -1.00      0.00
  -10    5   11     -1.34      0.00
   -9    5   11     -1.69      0.00
   -8    5   11     -1.90      0.00
   -7    5   11     -1.78      0.00
   -6    5   11     -1.48      0.00
   -5    5   11     -1.10      0.00
   -4    5   11     -0.62      0.00
   -3    5   11     -0.08      0.00
   -2    5   11      0.58      0.00
   -1    5   11      1.39      0.00
    0    5   11      2.14      0.00
    1    5   11      2.63      0.00
    2    5   11      2.80      0.00
    3    5   11      2.69      0.00
    4    5   11      2.51      0.00
    5    5   11      2.29      0.00
    6    5   11      1.85      0.00
    7    5   11      1.22      0.00
    8    5   11      0.60      0.00
  -14    6   11     -0.48      0.00
  -13    6   11     -0.37      0.00
  -12    6   11     -0.49      0.00
  -11    6   11     -0.99      0.00
  -10    6   11     -1.62      0.00
   -9    6   11     -2.21      0.00
   -8    6   11     -2.57      0.00
   -7    6   11     -2.68      0.00
   -6    6   11     -2.75      0.00
   -5    6   11     -2.79      0.00
   -4    6   11     -2.56      0.00
   -3    6   11     -2.01      0.00
   -2    6   11     -1.21      0.00
   -1    6   11     -0.34      0.00
    0    6   11      0.34      0.00
    1    6   11      0.80      0.00
    2    6   11      1.09      0.00
    3    6   11      1.17      0.00
    4    6   11      1.16      0.00
    5    6   11      1.10      0.00
    6    6   11      0.84      0.00
    7    6   11      0.45      0.00
  -14    7   11     -0.22      0.00
  -13    7   11      0.00      0.00
  -12    7   11     -0.06      0.00
  -11    7   11     -0.51      0.00
  -10    7   11     -1.10      0.00
   -9    7   11     -1.69      0.00
   -8    7   11     -2.19      0.00
   -7    7   11     -2.58      0.00
   -6    7   11     -3.03      0.00
   -5    7   11     -3.41      0.00
   -4    7   11     -3.37      0.00
   -3    7   11     -2.92      0.00
   -2    7   11     -2.26      0.00
   -1    7   11     -1.63      0.00
    0    7   11     -1.18      0.00
    1    7   11     -0.79      0.00
    2    7   11     -0.49      0.00
    3    7   11     -0.36      0.00
    4    7   11     -0.25      0.00
    5    7   11     -0.06      0.00
    6    7   11      0.00      0.00
  -13    8   11      0.28      0.00
  -12    8   11      0.42      0.00
  -11    8   11      0.25      0.00
  -10    8   11     -0.07      0.00
   -9    8   11     -0.49      0.00
   -8    8   11     -0.93      0.00
   -7    8   11     -1.38      0.00
   -6    8   11     -2.00      0.00
   -5    8   11     -2.57      0.00
   -4    8   11     -2.67      0.00
   -3    8   11     -2.37      0.00
   -2    8   11     -2.00      0.00
   -1    8   11     -1.75      0.00
    0    8   11     -1.60      0.00
    1    8   11     -1.44      0.00
    2    8   11     -1.28      0.00
    3    8   11     -1.16      0.00
    4    8   11     -0.86      0.00
    5    8   11     -0.42      0.00
  -12    9   11      0.76      0.00
  -11    9   11      0.88      0.00
  -10    9   11      0.89      0.00
   -9    9   11      0.81      0.00
   -8    9   11      0.66      0.00
   -7    9   11      0.38      0.00
   -6    9   11     -0.22      0.00
   -5    9   11     -0.83      0.00
   -4    9   11     -1.01      0.00
   -3    9   11     -0.89      0.00
   -2    9   11     -0.87      0.00
   -1    9   11     -1.05      0.00
    0    9   11     -1.27      0.00
    1    9   11     -1.33      0.00
    2    9   11     -1.25      0.00
    3    9   11     -1.05      0.00
  -12   10   11      0.78      0.00
  -11   10   11      1.08      0.00
  -10   10   11      1.38      0.00
   -9   10   11      1.56      0.00
   -8   10   11      1.65      0.00
   -7   10   11      1.58      0.00
   -6   10   11      1.12      0.00
   -5   10   11      0.54      0.00
   -4   10   11      0.33      0.00
   -3   10   11      0.31      0.00
   -2   10   11      0.01      0.00
   -1   10   11     -0.50      0.00
    0   10   11     -0.87      0.00
    1   10   11     -0.89      0.00
    2   10   11     -0.69      0.00
  -11   11   11      0.81      0.00
  -10   11   11      1.12      0.00
   -9   11   11      1.30      0.00
   -8   11   11      1.46      0.00
   -7   11   11      1.53      0.00
   -6   11   11      1.19      0.00
   -5   11   11      0.69      0.00
   -4   11   11      0.55      0.00
   -3   11   11      0.50      0.00
   -2   11   11      0.12      0.00
   -1   11   11     -0.39      0.00
    0   11   11     -0.58      0.00
   -9   12   11      0.41      0.00
   -8   12   11      0.59      0.00
   -7   12   11      0.69      0.00
   -6   12   11      0.39      0.00
   -5   12   11      0.04      0.00
    2  -17   12      0.83      0.00
    3  -17   12      0.89      0.00
    0  -16   12      0.42      0.00
    1  -16   12      0.67      0.00
    2  -16   12      0.79      0.00
    3  -16   12      0.89      0.00
    4  -16   12      0.91      0.00
    5  -16   12      0.75      0.00
    6  -16   12      0.52      0.00
    7  -16   12      0.32      0.00
   -3  -15   12      0.04      0.00
   -2  -15   12      0.07      0.00
   -1  -15   12      0.08      0.00
    0  -15   12      0.13      0.00
    1  -15   12      0.15      0.00
    2  -15   12      0.18      0.00
    3  -15   12      0.37      0.00
    4  -15   12      0.51      0.00
    5  -15   12      0.34      0.00
    6  -15   12      0.01      0.00
    7  -15   12     -0.33      0.00
    8  -15   12     -0.67      0.00
    9  -15   12     -0.84      0.00
   -5  -14   12     -0.22      0.00
   -4  -14   12     -0.21      0.00
   -3  -14   12     -0.18      0.00
   -2  -14   12     -0.20      0.00
   -1  -14   12     -0.26      0.00
    0  -14   12     -0.33      0.00
    1  -14   12     -0.44      0.00
    2  -14   12     -0.41      0.00
    3  -14   12     -0.17      0.00
    4  -14   12     -0.13      0.00
    5  -14   12     -0.46      0.00
    6  -14   12     -0.92      0.00
    7  -14   12     -1.36      0.00
    8  -14   12     -1.73      0.00
    9  -14   12     -1.76      0.00
   10  -14   12     -1.25      0.00
   -7  -13   12     -0.18      0.00
   -6  -13   12     -0.46      0.00
   -5  -13   12     -0.53      0.00
   -4  -13   12     -0.47      0.00
   -3  -13   12     -0.39      0.00
   -2  -13   12     -0.35      0.00
   -1  -13   12     -0.36      0.00
    0  -13   12     -0.44      0.00
    1  -13   12     -0.52      0.00
    2  -13   12     -0.41      0.00
    3  -13   12     -0.20      0.00
    4  -13   12     -0.32      0.00
    5  -13   12     -0.83      0.00
    6  -13   12     -1.43      0.00
    7  -13   12     -2.00      0.00
    8  -13   12     -2.40      0.00
    9  -13   12     -2.31      0.00
   10  -13   12     -1.66      0.00
   -8  -12   12      0.07      0.00
   -7  -12   12     -0.49      0.00
   -6  -12   12     -0.80      0.00
   -5  -12   12     -0.72      0.00
   -4  -12   12     -0.44      0.00
   -3  -12   12     -0.17      0.00
   -2  -12   12     -0.04      0.00
   -1  -12   12     -0.03      0.00
    0  -12   12     -0.05      0.00
    1  -12   12      0.00      0.00
    2  -12   12      0.28      0.00
    3  -12   12      0.59      0.00
    4  -12   12      0.47      0.00
    5  -12   12     -0.09      0.00
    6  -12   12     -0.82      0.00
    7  -12   12     -1.54      0.00
    8  -12   12     -1.99      0.00
    9  -12   12     -1.95      0.00
   10  -12   12     -1.49      0.00
   11  -12   12     -0.84      0.00
   -9  -11   12      0.31      0.00
   -8  -11   12     -0.23      0.00
   -7  -11   12     -0.79      0.00
   -6  -11   12     -0.85      0.00
   -5  -11   12     -0.43      0.00
   -4  -11   12      0.11      0.00
   -3  -11   12      0.42      0.00
   -2  -11   12      0.43      0.00
   -1  -11   12      0.35      0.00
    0  -11   12      0.43      0.00
    1  -11   12      0.75      0.00
    2  -11   12      1.35      0.00
    3  -11   12      1.96      0.00
    4  -11   12      2.07      0.00
    5  -11   12      1.58      0.00
    6  -11   12      0.76      0.00
    7  -11   12     -0.08      0.00
    8  -11   12     -0.63      0.00
    9  -11   12     -0.77      0.00
   10  -11   12     -0.56      0.00
   11  -11   12     -0.10      0.00
  -10  -10   12      0.14      0.00
   -9  -10   12     -0.08      0.00
   -8  -10   12     -0.59      0.00
   -7  -10   12     -0.86      0.00
   -6  -10   12     -0.52      0.00
   -5  -10   12      0.20      0.00
   -4  -10   12      0.75      0.00
   -3  -10   12      0.78      0.00
   -2  -10   12      0.40      0.00
   -1  -10   12      0.17      0.00
    0  -10   12      0.43      0.00
    1  -10   12      1.16      0.00
    2  -10   12      2.23      0.00
    3  -10   12      3.25      0.00
    4  -10   12      3.64      0.00
    5  -10   12      3.21      0.00
    6  -10   12      2.28      0.00
    7  -10   12      1.34      0.00
    8  -10   12      0.79      0.00
    9  -10   12      0.67      0.00
   10  -10   12      0.84      0.00
   11  -10   12      1.12      0.00
   12  -10   12      1.10      0.00
  -10   -9   12     -0.22      0.00
   -9   -9   12     -0.47      0.00
   -8   -9   12     -0.83      0.00
   -7   -9   12     -0.77      0.00
   -6   -9   12     -0.13      0.00
   -5   -9   12      0.64      0.00
   -4   -9   12      0.92      0.00
   -3   -9   12      0.39      0.00
   -2   -9   12     -0.56      0.00
   -1   -9   12     -0.98      0.00
    0   -9   12     -0.43      0.00
    1   -9   12      0.87      0.00
    2   -9   12      2.48      0.00
    3   -9   12      3.82      0.00
    4   -9   12      4.25      0.00
    5   -9   12      3.67      0.00
    6   -9   12      2.57      0.00
    7   -9   12      1.68      0.00
    8   -9   12      1.43      0.00
    9   -9   12      1.63      0.00
   10   -9   12      1.85      0.00
   11   -9   12      1.81      0.00
   12   -9   12      1.31      0.00
  -11   -8   12     -0.33      0.00
  -10   -8   12     -0.46      0.00
   -9   -8   12     -0.75      0.00
   -8   -8   12     -0.93      0.00
   -7   -8   12     -0.63      0.00
   -6   -8   12      0.11      0.00
   -5   -8   12      0.69      0.00
   -4   -8   12      0.45      0.00
   -3   -8   12     -0.86      0.00
   -2   -8   12     -2.42      0.00
   -1   -8   12     -2.91      0.00
    0   -8   12     -1.85      0.00
    1   -8   12      0.11      0.00
    2   -8   12      2.10      0.00
    3   -8   12      3.36      0.00
    4   -8   12      3.40      0.00
    5   -8   12      2.44      0.00
    6   -8   12      1.29      0.00
    7   -8   12      0.72      0.00
    8   -8   12      0.99      0.00
    9   -8   12      1.54      0.00
   10   -8   12      1.74      0.00
   11   -8   12      1.43      0.00
  -12   -7   12     -0.11      0.00
  -11   -7   12     -0.33      0.00
  -10   -7   12     -0.71      0.00
   -9   -7   12     -0.95      0.00
   -8   -7   12     -0.85      0.00
   -7   -7   12     -0.34      0.00
   -6   -7   12      0.34      0.00
   -5   -7   12      0.49      0.00
   -4   -7   12     -0.52      0.00
   -3   -7   12     -2.58      0.00
   -2   -7   12     -4.43      0.00
   -1   -7   12     -4.53      0.00
    0   -7   12     -2.78      0.00
    1   -7   12     -0.40      0.00
    2   -7   12      1.40      0.00
    3   -7   12      1.97      0.00
    4   -7   12      1.31      0.00
    5   -7   12      0.07      0.00
    6   -7   12     -0.88      0.00
    7   -7   12     -0.96      0.00
    8   -7   12     -0.25      0.00
    9   -7   12      0.50      0.00
   10   -7   12      0.70      0.00
  -12   -6   12     -0.05      0.00
  -11   -6   12     -0.57      0.00
  -10   -6   12     -1.03      0.00
   -9   -6   12     -1.01      0.00
   -8   -6   12     -0.52      0.00
   -7   -6   12      0.19      0.00
   -6   -6   12      0.65      0.00
   -5   -6   12      0.18      0.00
   -4   -6   12     -1.52      0.00
   -3   -6   12     -3.81      0.00
   -2   -6   12     -5.18      0.00
   -1   -6   12     -4.49      0.00
    0   -6   12     -2.26      0.00
    1   -6   12     -0.12      0.00
    2   -6   12      0.79      0.00
    3   -6   12      0.32      0.00
    4   -6   12     -0.96      0.00
    5   -6   12     -2.15      0.00
    6   -6   12     -2.63      0.00
    7   -6   12     -2.31      0.00
    8   -6   12     -1.47      0.00
    9   -6   12     -0.71      0.00
   10   -6   12     -0.39      0.00
  -13   -5   12      0.05      0.00
  -12   -5   12     -0.31      0.00
  -11   -5   12     -0.94      0.00
  -10   -5   12     -1.23      0.00
   -9   -5   12     -0.80      0.00
   -8   -5   12      0.07      0.00
   -7   -5   12      0.80      0.00
   -6   -5   12      0.85      0.00
   -5   -5   12     -0.14      0.00
   -4   -5   12     -1.90      0.00
   -3   -5   12     -3.53      0.00
   -2   -5   12     -3.86      0.00
   -1   -5   12     -2.44      0.00
    0   -5   12     -0.27      0.00
    1   -5   12      1.01      0.00
    2   -5   12      0.72      0.00
    3   -5   12     -0.66      0.00
    4   -5   12     -2.15      0.00
    5   -5   12     -2.91      0.00
    6   -5   12     -2.88      0.00
    7   -5   12     -2.41      0.00
    8   -5   12     -1.79      0.00
    9   -5   12     -1.26      0.00
   10   -5   12     -0.95      0.00
   11   -5   12     -0.72      0.00
  -13   -4   12     -0.20      0.00
  -12   -4   12     -0.63      0.00
  -11   -4   12     -1.15      0.00
  -10   -4   12     -1.13      0.00
   -9   -4   12     -0.34      0.00
   -8   -4   12      0.61      0.00
   -7   -4   12      1.04      0.00
   -6   -4   12      0.67      0.00
   -5   -4   12     -0.32      0.00
   -4   -4   12     -1.37      0.00
   -3   -4   12     -1.81      0.00
   -2   -4   12     -1.08      0.00
   -1   -4   12      0.70      0.00
    0   -4   12      2.33      0.00
    1   -4   12      2.52      0.00
    2   -4   12      1.26      0.00
    3   -4   12     -0.48      0.00
    4   -4   12     -1.68      0.00
    5   -4   12     -1.88      0.00
    6   -4   12     -1.50      0.00
    7   -4   12     -1.17      0.00
    8   -4   12     -1.04      0.00
    9   -4   12     -0.99      0.00
   10   -4   12     -0.98      0.00
   11   -4   12     -0.92      0.00
  -14   -3   12     -0.15      0.00
  -13   -3   12     -0.39      0.00
  -12   -3   12     -0.78      0.00
  -11   -3   12     -1.08      0.00
  -10   -3   12     -0.80      0.00
   -9   -3   12      0.00      0.00
   -8   -3   12      0.62      0.00
   -7   -3   12      0.62      0.00
   -6   -3   12      0.19      0.00
   -5   -3   12     -0.26      0.00
   -4   -3   12     -0.30      0.00
   -3   -3   12      0.38      0.00
   -2   -3   12      1.79      0.00
   -1   -3   12      3.42      0.00
    0   -3   12      4.18      0.00
    1   -3   12      3.46      0.00
    2   -3   12      1.87      0.00
    3   -3   12      0.46      0.00
    4   -3   12     -0.13      0.00
    5   -3   12      0.14      0.00
    6   -3   12      0.60      0.00
    7   -3   12      0.58      0.00
    8   -3   12      0.17      0.00
    9   -3   12     -0.28      0.00
   10   -3   12     -0.63      0.00
   11   -3   12     -0.80      0.00
   12   -3   12     -0.71      0.00
  -14   -2   12     -0.17      0.00
  -13   -2   12     -0.43      0.00
  -12   -2   12     -0.67      0.00
  -11   -2   12     -0.76      0.00
  -10   -2   12     -0.50      0.00
   -9   -2   12     -0.07      0.00
   -8   -2   12      0.11      0.00
   -7   -2   12     -0.01      0.00
   -6   -2   12     -0.12      0.00
   -5   -2   12      0.04      0.00
   -4   -2   12      0.73      0.00
   -3   -2   12      1.98      0.00
   -2   -2   12      3.39      0.00
   -1   -2   12      4.30      0.00
    0   -2   12      4.10      0.00
    1   -2   12      2.98      0.00
    2   -2   12      1.83      0.00
    3   -2   12      1.25      0.00
    4   -2   12      1.33      0.00
    5   -2   12      1.82      0.00
    6   -2   12      2.10      0.00
    7   -2   12      1.75      0.00
    8   -2   12      1.05      0.00
    9   -2   12      0.44      0.00
   10   -2   12      0.03      0.00
   11   -2   12     -0.21      0.00
  -14   -1   12     -0.18      0.00
  -13   -1   12     -0.28      0.00
  -12   -1   12     -0.28      0.00
  -11   -1   12     -0.30      0.00
  -10   -1   12     -0.28      0.00
   -9   -1   12     -0.20      0.00
   -8   -1   12     -0.19      0.00
   -7   -1   12     -0.15      0.00
   -6   -1   12      0.00      0.00
   -5   -1   12      0.39      0.00
   -4   -1   12      1.19      0.00
   -3   -1   12      2.25      0.00
   -2   -1   12      2.98      0.00
   -1   -1   12      2.92      0.00
    0   -1   12      2.13      0.00
    1   -1   12      1.29      0.00
    2   -1   12      1.02      0.00
    3   -1   12      1.30      0.00
    4   -1   12      1.78      0.00
    5   -1   12      2.23      0.00
    6   -1   12      2.28      0.00
    7   -1   12      1.85      0.00
    8   -1   12      1.29      0.00
    9   -1   12      0.90      0.00
   10   -1   12      0.64      0.00
   11   -1   12      0.39      0.00
  -14    0   12     -0.15      0.00
  -13    0   12     -0.03      0.00
  -12    0   12      0.11      0.00
  -11    0   12      0.09      0.00
  -10    0   12      0.05      0.00
   -9    0   12      0.08      0.00
   -8    0   12      0.14      0.00
   -7    0   12      0.23      0.00
   -6    0   12      0.34      0.00
   -5    0   12      0.52      0.00
   -4    0   12      0.90      0.00
   -3    0   12      1.25      0.00
   -2    0   12      1.13      0.00
   -1    0   12      0.46      0.00
    0    0   12     -0.30      0.00
    1    0   12     -0.57      0.00
    2    0   12     -0.17      0.00
    3    0   12      0.52      0.00
    4    0   12      1.06      0.00
    5    0   12      1.35      0.00
    6    0   12      1.37      0.00
    7    0   12      1.18      0.00
    8    0   12      1.00      0.00
    9    0   12      0.88      0.00
   10    0   12      0.72      0.00
  -14    1   12     -0.16      0.00
  -13    1   12      0.01      0.00
  -12    1   12      0.20      0.00
  -11    1   12      0.34      0.00
  -10    1   12      0.52      0.00
   -9    1   12      0.72      0.00
   -8    1   12      0.79      0.00
   -7    1   12      0.80      0.00
   -6    1   12      0.73      0.00
   -5    1   12      0.54      0.00
   -4    1   12      0.32      0.00
   -3    1   12      0.00      0.00
   -2    1   12     -0.58      0.00
   -1    1   12     -1.31      0.00
    0    1   12     -1.83      0.00
    1    1   12     -1.79      0.00
    2    1   12     -1.23      0.00
    3    1   12     -0.58      0.00
    4    1   12     -0.18      0.00
    5    1   12      0.03      0.00
    6    1   12      0.18      0.00
    7    1   12      0.32      0.00
    8    1   12      0.45      0.00
    9    1   12      0.46      0.00
  -14    2   12     -0.29      0.00
  -13    2   12     -0.16      0.00
  -12    2   12      0.13      0.00
  -11    2   12      0.50      0.00
  -10    2   12      0.97      0.00
   -9    2   12      1.34      0.00
   -8    2   12      1.47      0.00
   -7    2   12      1.46      0.00
   -6    2   12      1.27      0.00
   -5    2   12      0.81      0.00
   -4    2   12      0.21      0.00
   -3    2   12     -0.43      0.00
   -2    2   12     -1.11      0.00
   -1    2   12     -1.73      0.00
    0    2   12     -2.11      0.00
    1    2   12     -2.08      0.00
    2    2   12     -1.66      0.00
    3    2   12     -1.25      0.00
    4    2   12     -1.05      0.00
    5    2   12     -0.89      0.00
    6    2   12     -0.63      0.00
    7    2   12     -0.29      0.00
    8    2   12      0.00      0.00
    9    2   12      0.07      0.00
  -14    3   12     -0.35      0.00
  -13    3   12     -0.24      0.00
  -12    3   12      0.07      0.00
  -11    3   12      0.55      0.00
  -10    3   12      1.22      0.00
   -9    3   12      1.78      0.00
   -8    3   12      2.01      0.00
   -7    3   12      2.00      0.00
   -6    3   12      1.80      0.00
   -5    3   12      1.32      0.00
   -4    3   12      0.67      0.00
   -3    3   12     -0.02      0.00
   -2    3   12     -0.66      0.00
   -1    3   12     -1.13      0.00
    0    3   12     -1.42      0.00
    1    3   12     -1.49      0.00
    2    3   12     -1.34      0.00
    3    3   12     -1.24      0.00
    4    3   12     -1.24      0.00
    5    3   12     -1.15      0.00
    6    3   12     -0.84      0.00
    7    3   12     -0.42      0.00
    8    3   12     -0.09      0.00
  -14    4   12     -0.28      0.00
  -13    4   12     -0.29      0.00
  -12    4   12     -0.11      0.00
  -11    4   12      0.34      0.00
  -10    4   12      1.11      0.00
   -9    4   12      1.78      0.00
   -8    4   12      2.01      0.00
   -7    4   12      2.02      0.00
   -6    4   12      1.95      0.00
   -5    4   12      1.65      0.00
   -4    4   12      1.13      0.00
   -3    4   12      0.53      0.00
   -2    4   12      0.09      0.00
   -1    4   12     -0.12      0.00
    0    4   12     -0.32      0.00
    1    4   12     -0.57      0.00
    2    4   12     -0.74      0.00
    3    4   12     -0.87      0.00
    4    4   12     -0.97      0.00
    5    4   12     -0.88      0.00
    6    4   12     -0.58      0.00
    7    4   12     -0.22      0.00
    8    4   12     -0.01      0.00
  -14    5   12     -0.30      0.00
  -13    5   12     -0.47      0.00
  -12    5   12     -0.45      0.00
  -11    5   12     -0.11      0.00
  -10    5   12      0.56      0.00
   -9    5   12      1.12      0.00
   -8    5   12      1.32      0.00
   -7    5   12      1.44      0.00
   -6    5   12      1.57      0.00
   -5    5   12      1.48      0.00
   -4    5   12      1.14      0.00
   -3    5   12      0.75      0.00
   -2    5   12      0.61      0.00
   -1    5   12      0.65      0.00
    0    5   12      0.45      0.00
    1    5   12      0.01      0.00
    2    5   12     -0.31      0.00
    3    5   12     -0.45      0.00
    4    5   12     -0.50      0.00
    5    5   12     -0.42      0.00
    6    5   12     -0.25      0.00
    7    5   12     -0.10      0.00
  -13    6   12     -0.54      0.00
  -12    6   12     -0.61      0.00
  -11    6   12     -0.51      0.00
  -10    6   12     -0.18      0.00
   -9    6   12      0.15      0.00
   -8    6   12      0.34      0.00
   -7    6   12      0.59      0.00
   -6    6   12      0.84      0.00
   -5    6   12      0.87      0.00
   -4    6   12      0.68      0.00
   -3    6   12      0.48      0.00
   -2    6   12      0.52      0.00
   -1    6   12      0.67      0.00
    0    6   12      0.50      0.00
    1    6   12      0.10      0.00
    2    6   12     -0.07      0.00
    3    6   12     -0.09      0.00
    4    6   12     -0.13      0.00
    5    6   12     -0.17      0.00
    6    6   12     -0.18      0.00
  -13    7   12     -0.29      0.00
  -12    7   12     -0.44      0.00
  -11    7   12     -0.63      0.00
  -10    7   12     -0.65      0.00
   -9    7   12     -0.55      0.00
   -8    7   12     -0.42      0.00
   -7    7   12     -0.17      0.00
   -6    7   12      0.08      0.00
   -5    7   12      0.09      0.00
   -4    7   12     -0.09      0.00
   -3    7   12     -0.24      0.00
   -2    7   12     -0.12      0.00
   -1    7   12      0.14      0.00
    0    7   12      0.13      0.00
    1    7   12     -0.03      0.00
    2    7   12     -0.01      0.00
    3    7   12      0.03      0.00
    4    7   12     -0.05      0.00
    5    7   12     -0.14      0.00
  -12    8   12     -0.15      0.00
  -11    8   12     -0.47      0.00
  -10    8   12     -0.66      0.00
   -9    8   12     -0.72      0.00
   -8    8   12     -0.70      0.00
   -7    8   12     -0.50      0.00
   -6    8   12     -0.37      0.00
   -5    8   12     -0.54      0.00
   -4    8   12     -0.84      0.00
   -3    8   12     -0.93      0.00
   -2    8   12     -0.67      0.00
   -1    8   12     -0.30      0.00
    0    8   12     -0.16      0.00
    1    8   12     -0.17      0.00
    2    8   12     -0.09      0.00
    3    8   12     -0.04      0.00
  -12    9   12      0.04      0.00
  -11    9   12     -0.22      0.00
  -10    9   12     -0.37      0.00
   -9    9   12     -0.43      0.00
   -8    9   12     -0.41      0.00
   -7    9   12     -0.26      0.00
   -6    9   12     -0.31      0.00
   -5    9   12     -0.70      0.00
   -4    9   12     -1.02      0.00
   -3    9   12     -0.95      0.00
   -2    9   12     -0.59      0.00
   -1    9   12     -0.26      0.00
    0    9   12     -0.16      0.00
    1    9   12     -0.18      0.00
    2    9   12     -0.12      0.00
  -11   10   12     -0.01      0.00
  -10   10   12     -0.01      0.00
   -9   10   12      0.06      0.00
   -8   10   12      0.16      0.00
   -7   10   12      0.29      0.00
   -6   10   12      0.16      0.00
   -5   10   12     -0.28      0.00
   -4   10   12     -0.50      0.00
   -3   10   12     -0.35      0.00
   -2   10   12     -0.08      0.00
   -1   10   12      0.06      0.00
    0   10   12      0.02      0.00
   -9   11   12      0.32      0.00
   -8   11   12      0.44      0.00
   -7   11   12      0.65      0.00
   -6   11   12      0.58      0.00
   -5   11   12      0.22      0.00
    0  -16   13     -0.29      0.00
    1  -16   13      0.19      0.00
    2  -16   13      0.53      0.00
    3  -16   13      0.80      0.00
    4  -16   13      1.03      0.00
    6  -16   13      0.84      0.00
   -2  -15   13     -0.57      0.00
   -1  -15   13     -0.53      0.00
    0  -15   13     -0.12      0.00
    1  -15   13      0.39      0.00
    2  -15   13      0.75      0.00
    3  -15   13      1.17      0.00
    4  -15   13      1.59      0.00
    5  -15   13      1.69      0.00
    6  -15   13      1.45      0.00
    8  -15   13      0.70      0.00
   -4  -14   13     -0.43      0.00
   -3  -14   13     -0.57      0.00
   -2  -14   13     -0.63      0.00
   -1  -14   13     -0.51      0.00
    0  -14   13     -0.22      0.00
    1  -14   13      0.07      0.00
    2  -14   13      0.38      0.00
    3  -14   13      0.96      0.00
    4  -14   13      1.57      0.00
    5  -14   13      1.74      0.00
    6  -14   13      1.48      0.00
    7  -14   13      1.07      0.00
    8  -14   13      0.63      0.00
   -6  -13   13      0.02      0.00
   -5  -13   13     -0.28      0.00
   -4  -13   13     -0.53      0.00
   -3  -13   13     -0.64      0.00
   -2  -13   13     -0.70      0.00
   -1  -13   13     -0.76      0.00
    0  -13   13     -0.82      0.00
    1  -13   13     -0.82      0.00
    2  -13   13     -0.51      0.00
    3  -13   13      0.23      0.00
    4  -13   13      0.93      0.00
    5  -13   13      1.12      0.00
    6  -13   13      0.88      0.00
    7  -13   13      0.46      0.00
    8  -13   13      0.03      0.00
    9  -13   13     -0.25      0.00
   10  -13   13     -0.28      0.00
   -8  -12   13      0.53      0.00
   -7  -12   13      0.35      0.00
   -6  -12   13      0.01      0.00
   -5  -12   13     -0.34      0.00
   -4  -12   13     -0.53      0.00
   -3  -12   13     -0.58      0.00
   -2  -12   13     -0.74      0.00
   -1  -12   13     -1.15      0.00
    0  -12   13     -1.60      0.00
    1  -12   13     -1.74      0.00
    2  -12   13     -1.31      0.00
    3  -12   13     -0.44      0.00
    4  -12   13      0.27      0.00
    5  -12   13      0.44      0.00
    6  -12   13      0.15      0.00
    7  -12   13     -0.36      0.00
    8  -12   13     -0.84      0.00
    9  -12   13     -1.06      0.00
   10  -12   13     -0.95      0.00
   -9  -11   13      0.73      0.00
   -8  -11   13      0.58      0.00
   -7  -11   13      0.14      0.00
   -6  -11   13     -0.31      0.00
   -5  -11   13     -0.54      0.00
   -4  -11   13     -0.46      0.00
   -3  -11   13     -0.36      0.00
   -2  -11   13     -0.68      0.00
   -1  -11   13     -1.42      0.00
    0  -11   13     -2.03      0.00
    1  -11   13     -2.06      0.00
    2  -11   13     -1.43      0.00
    3  -11   13     -0.45      0.00
    4  -11   13      0.27      0.00
    5  -11   13      0.36      0.00
    6  -11   13     -0.14      0.00
    7  -11   13     -0.90      0.00
    8  -11   13     -1.51      0.00
    9  -11   13     -1.72      0.00
   10  -11   13     -1.54      0.00
   -9  -10   13      0.50      0.00
   -8  -10   13      0.02      0.00
   -7  -10   13     -0.59      0.00
   -6  -10   13     -0.87      0.00
   -5  -10   13     -0.66      0.00
   -4  -10   13     -0.20      0.00
   -3  -10   13     -0.05      0.00
   -2  -10   13     -0.59      0.00
   -1  -10   13     -1.45      0.00
    0  -10   13     -1.91      0.00
    1  -10   13     -1.67      0.00
    2  -10   13     -0.80      0.00
    3  -10   13      0.33      0.00
    4  -10   13      1.06      0.00
    5  -10   13      0.96      0.00
    6  -10   13      0.10      0.00
    7  -10   13     -0.95      0.00
    8  -10   13     -1.60      0.00
    9  -10   13     -1.73      0.00
   10  -10   13     -1.47      0.00
   11  -10   13     -0.85      0.00
  -10   -9   13      0.11      0.00
   -9   -9   13     -0.25      0.00
   -8   -9   13     -0.94      0.00
   -7   -9   13     -1.35      0.00
   -6   -9   13     -1.08      0.00
   -5   -9   13     -0.36      0.00
   -4   -9   13      0.26      0.00
   -3   -9   13      0.20      0.00
   -2   -9   13     -0.61      0.00
   -1   -9   13     -1.46      0.00
    0   -9   13     -1.63      0.00
    1   -9   13     -1.01      0.00
    2   -9   13      0.19      0.00
    3   -9   13      1.48      0.00
    4   -9   13      2.11      0.00
    5   -9   13      1.68      0.00
    6   -9   13      0.53      0.00
    7   -9   13     -0.54      0.00
    8   -9   13     -0.99      0.00
    9   -9   13     -0.93      0.00
   10   -9   13     -0.65      0.00
   11   -9   13     -0.26      0.00
  -11   -8   13     -0.03      0.00
  -10   -8   13     -0.31      0.00
   -9   -8   13     -0.95      0.00
   -8   -8   13     -1.47      0.00
   -7   -8   13     -1.36      0.00
   -6   -8   13     -0.57      0.00
   -5   -8   13      0.36      0.00
   -4   -8   13      0.75      0.00
   -3   -8   13      0.20      0.00
   -2   -8   13     -0.99      0.00
   -1   -8   13     -1.85      0.00
    0   -8   13     -1.66      0.00
    1   -8   13     -0.52      0.00
    2   -8   13      1.05      0.00
    3   -8   13      2.32      0.00
    4   -8   13      2.65      0.00
    5   -8   13      1.95      0.00
    6   -8   13      0.82      0.00
    7   -8   13      0.05      0.00
    8   -8   13     -0.02      0.00
    9   -8   13      0.25      0.00
   10   -8   13      0.35      0.00
  -11   -7   13      0.12      0.00
  -10   -7   13     -0.46      0.00
   -9   -7   13     -1.01      0.00
   -8   -7   13     -1.08      0.00
   -7   -7   13     -0.52      0.00
   -6   -7   13      0.41      0.00
   -5   -7   13      1.10      0.00
   -4   -7   13      0.91      0.00
   -3   -7   13     -0.36      0.00
   -2   -7   13     -2.02      0.00
   -1   -7   13     -2.79      0.00
    0   -7   13     -2.05      0.00
    1   -7   13     -0.35      0.00
    2   -7   13      1.34      0.00
    3   -7   13      2.28      0.00
    4   -7   13      2.20      0.00
    5   -7   13      1.42      0.00
    6   -7   13      0.62      0.00
    7   -7   13      0.37      0.00
    8   -7   13      0.75      0.00
    9   -7   13      1.10      0.00
   10   -7   13      0.87      0.00
  -12   -6   13      0.63      0.00
  -11   -6   13      0.33      0.00
  -10   -6   13     -0.23      0.00
   -9   -6   13     -0.43      0.00
   -8   -6   13     -0.06      0.00
   -7   -6   13      0.66      0.00
   -6   -6   13      1.32      0.00
   -5   -6   13      1.36      0.00
   -4   -6   13      0.31      0.00
   -3   -6   13     -1.65      0.00
   -2   -6   13     -3.43      0.00
   -1   -6   13     -3.75      0.00
    0   -6   13     -2.42      0.00
    1   -6   13     -0.52      0.00
    2   -6   13      0.84      0.00
    3   -6   13      1.22      0.00
    4   -6   13      0.80      0.00
    5   -6   13      0.16      0.00
    6   -6   13     -0.11      0.00
    7   -6   13      0.25      0.00
    8   -6   13      0.92      0.00
    9   -6   13      1.18      0.00
   10   -6   13      0.72      0.00
  -12   -5   13      0.87      0.00
  -11   -5   13      0.62      0.00
  -10   -5   13      0.26      0.00
   -9   -5   13      0.41      0.00
   -8   -5   13      1.04      0.00
   -7   -5   13      1.65      0.00
   -6   -5   13      1.75      0.00
   -5   -5   13      0.92      0.00
   -4   -5   13     -0.83      0.00
   -3   -5   13     -2.88      0.00
   -2   -5   13     -4.16      0.00
   -1   -5   13     -3.87      0.00
    0   -5   13     -2.35      0.00
    1   -5   13     -0.81      0.00
    2   -5   13     -0.09      0.00
    3   -5   13     -0.25      0.00
    4   -5   13     -0.81      0.00
    5   -5   13     -1.10      0.00
    6   -5   13     -0.78      0.00
    7   -5   13     -0.07      0.00
    8   -5   13      0.52      0.00
    9   -5   13      0.58      0.00
   10   -5   13      0.20      0.00
   11   -5   13     -0.11      0.00
  -13   -4   13      0.72      0.00
  -12   -4   13      1.04      0.00
  -11   -4   13      0.89      0.00
  -10   -4   13      0.72      0.00
   -9   -4   13      1.11      0.00
   -8   -4   13      1.82      0.00
   -7   -4   13      2.11      0.00
   -6   -4   13      1.54      0.00
   -5   -4   13      0.15      0.00
   -4   -4   13     -1.56      0.00
   -3   -4   13     -2.92      0.00
   -2   -4   13     -3.41      0.00
   -1   -4   13     -2.80      0.00
    0   -4   13     -1.57      0.00
    1   -4   13     -0.68      0.00
    2   -4   13     -0.58      0.00
    3   -4   13     -1.03      0.00
    4   -4   13     -1.47      0.00
    5   -4   13     -1.37      0.00
    6   -4   13     -0.79      0.00
    7   -4   13     -0.26      0.00
    8   -4   13     -0.06      0.00
    9   -4   13     -0.10      0.00
   10   -4   13     -0.17      0.00
   11   -4   13     -0.11      0.00
  -13   -3   13      0.63      0.00
  -12   -3   13      0.91      0.00
  -11   -3   13      0.88      0.00
  -10   -3   13      0.91      0.00
   -9   -3   13      1.42      0.00
   -8   -3   13      1.96      0.00
   -7   -3   13      1.81      0.00
   -6   -3   13      0.86      0.00
   -5   -3   13     -0.41      0.00
   -4   -3   13     -1.37      0.00
   -3   -3   13     -1.75      0.00
   -2   -3   13     -1.56      0.00
   -1   -3   13     -0.87      0.00
    0   -3   13     -0.09      0.00
    1   -3   13      0.21      0.00
    2   -3   13     -0.04      0.00
    3   -3   13     -0.50      0.00
    4   -3   13     -0.74      0.00
    5   -3   13     -0.54      0.00
    6   -3   13     -0.19      0.00
    7   -3   13     -0.11      0.00
    8   -3   13     -0.27      0.00
    9   -3   13     -0.34      0.00
   10   -3   13     -0.25      0.00
   11   -3   13     -0.10      0.00
  -14   -2   13      0.02      0.00
  -13   -2   13      0.16      0.00
  -12   -2   13      0.42      0.00
  -11   -2   13      0.54      0.00
  -10   -2   13      0.68      0.00
   -9   -2   13      1.02      0.00
   -8   -2   13      1.18      0.00
   -7   -2   13      0.75      0.00
   -6   -2   13     -0.09      0.00
   -5   -2   13     -0.77      0.00
   -4   -2   13     -0.86      0.00
   -3   -2   13     -0.37      0.00
   -2   -2   13      0.36      0.00
   -1   -2   13      1.06      0.00
    0   -2   13      1.46      0.00
    1   -2   13      1.38      0.00
    2   -2   13      1.06      0.00
    3   -2   13      0.74      0.00
    4   -2   13      0.58      0.00
    5   -2   13      0.62      0.00
    6   -2   13      0.62      0.00
    7   -2   13      0.35      0.00
    8   -2   13     -0.02      0.00
    9   -2   13     -0.21      0.00
   10   -2   13     -0.21      0.00
  -14   -1   13     -0.38      0.00
  -13   -1   13     -0.28      0.00
  -12   -1   13      0.00      0.00
  -11   -1   13      0.08      0.00
  -10   -1   13     -0.04      0.00
   -9   -1   13     -0.11      0.00
   -8   -1   13     -0.28      0.00
   -7   -1   13     -0.69      0.00
   -6   -1   13     -1.16      0.00
   -5   -1   13     -1.26      0.00
   -4   -1   13     -0.67      0.00
   -3   -1   13      0.43      0.00
   -2   -1   13      1.45      0.00
   -1   -1   13      2.03      0.00
    0   -1   13      2.12      0.00
    1   -1   13      1.92      0.00
    2   -1   13      1.71      0.00
    3   -1   13      1.57      0.00
    4   -1   13      1.48      0.00
    5   -1   13      1.41      0.00
    6   -1   13      1.19      0.00
    7   -1   13      0.72      0.00
    8   -1   13      0.25      0.00
    9   -1   13      0.00      0.00
   10   -1   13     -0.07      0.00
  -14    0   13     -0.37      0.00
  -13    0   13     -0.23      0.00
  -12    0   13     -0.10      0.00
  -11    0   13     -0.39      0.00
  -10    0   13     -0.94      0.00
   -9    0   13     -1.37      0.00
   -8    0   13     -1.67      0.00
   -7    0   13     -1.96      0.00
   -6    0   13     -2.11      0.00
   -5    0   13     -1.82      0.00
   -4    0   13     -0.88      0.00
   -3    0   13      0.37      0.00
   -2    0   13      1.29      0.00
   -1    0   13      1.64      0.00
    0    0   13      1.59      0.00
    1    0   13      1.44      0.00
    2    0   13      1.43      0.00
    3    0   13      1.51      0.00
    4    0   13      1.55      0.00
    5    0   13      1.42      0.00
    6    0   13      1.07      0.00
    7    0   13      0.62      0.00
    8    0   13      0.33      0.00
    9    0   13      0.23      0.00
  -14    1   13      0.01      0.00
  -13    1   13      0.08      0.00
  -12    1   13     -0.09      0.00
  -11    1   13     -0.73      0.00
  -10    1   13     -1.53      0.00
   -9    1   13     -2.07      0.00
   -8    1   13     -2.39      0.00
   -7    1   13     -2.57      0.00
   -6    1   13     -2.52      0.00
   -5    1   13     -2.12      0.00
   -4    1   13     -1.29      0.00
   -3    1   13     -0.35      0.00
   -2    1   13      0.25      0.00
   -1    1   13      0.42      0.00
    0    1   13      0.36      0.00
    1    1   13      0.33      0.00
    2    1   13      0.50      0.00
    3    1   13      0.74      0.00
    4    1   13      0.78      0.00
    5    1   13      0.58      0.00
    6    1   13      0.31      0.00
    7    1   13      0.22      0.00
    8    1   13      0.33      0.00
  -14    2   13      0.25      0.00
  -13    2   13      0.22      0.00
  -12    2   13     -0.09      0.00
  -11    2   13     -0.79      0.00
  -10    2   13     -1.53      0.00
   -9    2   13     -1.95      0.00
   -8    2   13     -2.15      0.00
   -7    2   13     -2.22      0.00
   -6    2   13     -2.18      0.00
   -5    2   13     -1.99      0.00
   -4    2   13     -1.60      0.00
   -3    2   13     -1.13      0.00
   -2    2   13     -0.85      0.00
   -1    2   13     -0.80      0.00
    0    2   13     -0.85      0.00
    1    2   13     -0.79      0.00
    2    2   13     -0.55      0.00
    3    2   13     -0.38      0.00
    4    2   13     -0.46      0.00
    5    2   13     -0.59      0.00
    6    2   13     -0.51      0.00
    7    2   13     -0.17      0.00
    8    2   13      0.17      0.00
  -13    3   13      0.25      0.00
  -12    3   13      0.03      0.00
  -11    3   13     -0.51      0.00
  -10    3   13     -0.96      0.00
   -9    3   13     -1.05      0.00
   -8    3   13     -1.04      0.00
   -7    3   13     -1.12      0.00
   -6    3   13     -1.30      0.00
   -5    3   13     -1.46      0.00
   -4    3   13     -1.44      0.00
   -3    3   13     -1.34      0.00
   -2    3   13     -1.36      0.00
   -1    3   13     -1.43      0.00
    0    3   13     -1.43      0.00
    1    3   13     -1.34      0.00
    2    3   13     -1.20      0.00
    3    3   13     -1.21      0.00
    4    3   13     -1.35      0.00
    5    3   13     -1.32      0.00
    6    3   13     -0.99      0.00
    7    3   13     -0.53      0.00
  -13    4   13      0.35      0.00
  -12    4   13      0.26      0.00
  -11    4   13     -0.01      0.00
  -10    4   13     -0.07      0.00
   -9    4   13      0.17      0.00
   -8    4   13      0.27      0.00
   -7    4   13      0.05      0.00
   -6    4   13     -0.31      0.00
   -5    4   13     -0.56      0.00
   -4    4   13     -0.64      0.00
   -3    4   13     -0.74      0.00
   -2    4   13     -0.95      0.00
   -1    4   13     -1.02      0.00
    0    4   13     -0.97      0.00
    1    4   13     -0.97      0.00
    2    4   13     -1.05      0.00
    3    4   13     -1.19      0.00
    4    4   13     -1.35      0.00
    5    4   13     -1.34      0.00
    6    4   13     -1.09      0.00
    7    4   13     -0.69      0.00
  -13    5   13      0.35      0.00
  -12    5   13      0.40      0.00
  -11    5   13      0.40      0.00
  -10    5   13      0.60      0.00
   -9    5   13      0.92      0.00
   -8    5   13      0.97      0.00
   -7    5   13      0.73      0.00
   -6    5   13      0.52      0.00
   -5    5   13      0.52      0.00
   -4    5   13      0.60      0.00
   -3    5   13      0.49      0.00
   -2    5   13      0.27      0.00
   -1    5   13      0.27      0.00
    0    5   13      0.29      0.00
    1    5   13      0.10      0.00
    2    5   13     -0.14      0.00
    3    5   13     -0.39      0.00
    4    5   13     -0.70      0.00
    5    5   13     -0.89      0.00
  -13    6   13      0.20      0.00
  -12    6   13      0.38      0.00
  -11    6   13      0.48      0.00
  -10    6   13      0.61      0.00
   -9    6   13      0.79      0.00
   -8    6   13      0.84      0.00
   -7    6   13      0.86      0.00
   -6    6   13      1.06      0.00
   -5    6   13      1.43      0.00
   -4    6   13      1.71      0.00
   -3    6   13      1.67      0.00
   -2    6   13      1.51      0.00
   -1    6   13      1.53      0.00
    0    6   13      1.51      0.00
    1    6   13      1.25      0.00
    2    6   13      0.92      0.00
    3    6   13      0.53      0.00
    4    6   13      0.02      0.00
    5    6   13     -0.32      0.00
  -12    7   13      0.39      0.00
  -11    7   13      0.29      0.00
  -10    7   13      0.09      0.00
   -9    7   13      0.04      0.00
   -8    7   13      0.16      0.00
   -7    7   13      0.48      0.00
   -6    7   13      1.01      0.00
   -5    7   13      1.59      0.00
   -4    7   13      1.97      0.00
   -3    7   13      1.97      0.00
   -2    7   13      1.86      0.00
   -1    7   13      1.95      0.00
    0    7   13      2.01      0.00
    1    7   13      1.79      0.00
    2    7   13      1.42      0.00
    3    7   13      0.90      0.00
  -12    8   13      0.43      0.00
  -11    8   13     -0.02      0.00
  -10    8   13     -0.59      0.00
   -9    8   13     -0.83      0.00
   -8    8   13     -0.73      0.00
   -7    8   13     -0.32      0.00
   -6    8   13      0.29      0.00
   -5    8   13      0.86      0.00
   -4    8   13      1.21      0.00
   -3    8   13      1.26      0.00
   -2    8   13      1.29      0.00
   -1    8   13      1.51      0.00
    0    8   13      1.63      0.00
    1    8   13      1.44      0.00
    2    8   13      1.05      0.00
  -11    9   13     -0.35      0.00
  -10    9   13     -0.98      0.00
   -9    9   13     -1.30      0.00
   -8    9   13     -1.32      0.00
   -7    9   13     -1.03      0.00
   -6    9   13     -0.54      0.00
   -5    9   13     -0.14      0.00
   -4    9   13      0.13      0.00
   -3    9   13      0.30      0.00
   -2    9   13      0.48      0.00
   -1    9   13      0.71      0.00
    0    9   13      0.78      0.00
   -9   10   13     -1.03      0.00
   -8   10   13     -1.16      0.00
   -7   10   13     -1.03      0.00
   -6   10   13     -0.77      0.00
   -5   10   13     -0.59      0.00
    3  -16   14     -1.01      0.00
   -1  -15   14     -0.49      0.00
    0  -15   14     -0.54      0.00
    1  -15   14     -0.59      0.00
    2  -15   14     -0.74      0.00
    3  -15   14     -0.57      0.00
    4  -15   14      0.13      0.00
    5  -15   14      0.79      0.00
    6  -15   14      0.85      0.00
   -2  -14   14     -0.04      0.00
   -1  -14   14     -0.32      0.00
    0  -14   14     -0.41      0.00
    1  -14   14     -0.37      0.00
    2  -14   14     -0.25      0.00
    3  -14   14      0.18      0.00
    4  -14   14      0.91      0.00
    5  -14   14      1.42      0.00
    6  -14   14      1.38      0.00
    7  -14   14      0.97      0.00
   -5  -13   14      0.26      0.00
   -4  -13   14      0.38      0.00
   -3  -13   14      0.38      0.00
   -2  -13   14      0.11      0.00
   -1  -13   14     -0.24      0.00
    0  -13   14     -0.40      0.00
    1  -13   14     -0.37      0.00
    2  -13   14     -0.18      0.00
    3  -13   14      0.29      0.00
    4  -13   14      0.99      0.00
    5  -13   14      1.55      0.00
    6  -13   14      1.69      0.00
    7  -13   14      1.44      0.00
    8  -13   14      1.03      0.00
    9  -13   14      0.64      0.00
   -6  -12   14      0.22      0.00
   -5  -12   14      0.32      0.00
   -4  -12   14      0.31      0.00
   -3  -12   14      0.20      0.00
   -2  -12   14     -0.12      0.00
   -1  -12   14     -0.61      0.00
    0  -12   14     -0.98      0.00
    1  -12   14     -1.11      0.00
    2  -12   14     -0.97      0.00
    3  -12   14     -0.44      0.00
    4  -12   14      0.41      0.00
    5  -12   14      1.23      0.00
    6  -12   14      1.64      0.00
    7  -12   14      1.52      0.00
    8  -12   14      1.10      0.00
    9  -12   14      0.67      0.00
   10  -12   14      0.34      0.00
   -8  -11   14      0.18      0.00
   -7  -11   14      0.25      0.00
   -6  -11   14      0.20      0.00
   -5  -11   14      0.03      0.00
   -4  -11   14     -0.07      0.00
   -3  -11   14     -0.12      0.00
   -2  -11   14     -0.50      0.00
   -1  -11   14     -1.30      0.00
    0  -11   14     -2.03      0.00
    1  -11   14     -2.31      0.00
    2  -11   14     -2.05      0.00
    3  -11   14     -1.29      0.00
    4  -11   14     -0.21      0.00
    5  -11   14      0.80      0.00
    6  -11   14      1.24      0.00
    7  -11   14      0.97      0.00
    8  -11   14      0.40      0.00
    9  -11   14     -0.07      0.00
   10  -11   14     -0.32      0.00
   -9  -10   14      0.88      0.00
   -8  -10   14      0.70      0.00
   -7  -10   14      0.27      0.00
   -6  -10   14     -0.13      0.00
   -5  -10   14     -0.31      0.00
   -4  -10   14     -0.15      0.00
   -3  -10   14     -0.02      0.00
   -2  -10   14     -0.62      0.00
   -1  -10   14     -1.86      0.00
    0  -10   14     -2.87      0.00
    1  -10   14     -3.08      0.00
    2  -10   14     -2.54      0.00
    3  -10   14     -1.49      0.00
    4  -10   14     -0.27      0.00
    5  -10   14      0.62      0.00
    6  -10   14      0.69      0.00
    7  -10   14      0.01      0.00
    8  -10   14     -0.74      0.00
    9  -10   14     -1.13      0.00
   10  -10   14     -1.15      0.00
  -10   -9   14      1.23      0.00
   -9   -9   14      1.17      0.00
   -8   -9   14      0.51      0.00
   -7   -9   14     -0.16      0.00
   -6   -9   14     -0.37      0.00
   -5   -9   14     -0.05      0.00
   -4   -9   14      0.49      0.00
   -3   -9   14      0.55      0.00
   -2   -9   14     -0.42      0.00
   -1   -9   14     -1.96      0.00
    0   -9   14     -2.98      0.00
    1   -9   14     -2.94      0.00
    2   -9   14     -2.04      0.00
    3   -9   14     -0.74      0.00
    4   -9   14      0.40      0.00
    5   -9   14      0.84      0.00
    6   -9   14      0.35      0.00
    7   -9   14     -0.65      0.00
    8   -9   14     -1.39      0.00
    9   -9   14     -1.54      0.00
   10   -9   14     -1.30      0.00
   11   -9   14     -0.83      0.00
  -10   -8   14      0.97      0.00
   -9   -8   14      0.50      0.00
   -8   -8   14     -0.23      0.00
   -7   -8   14     -0.47      0.00
   -6   -8   14      0.00      0.00
   -5   -8   14      0.84      0.00
   -4   -8   14      1.42      0.00
   -3   -8   14      1.14      0.00
   -2   -8   14     -0.15      0.00
   -1   -8   14     -1.71      0.00
    0   -8   14     -2.46      0.00
    1   -8   14     -1.99      0.00
    2   -8   14     -0.66      0.00
    3   -8   14      0.75      0.00
    4   -8   14      1.52      0.00
    5   -8   14      1.36      0.00
    6   -8   14      0.48      0.00
    7   -8   14     -0.55      0.00
    8   -8   14     -1.04      0.00
    9   -8   14     -0.94      0.00
   10   -8   14     -0.63      0.00
  -11   -7   14      0.37      0.00
  -10   -7   14      0.21      0.00
   -9   -7   14     -0.34      0.00
   -8   -7   14     -0.67      0.00
   -7   -7   14     -0.28      0.00
   -6   -7   14      0.73      0.00
   -5   -7   14      1.70      0.00
   -4   -7   14      1.98      0.00
   -3   -7   14      1.27      0.00
   -2   -7   14     -0.17      0.00
   -1   -7   14     -1.46      0.00
    0   -7   14     -1.64      0.00
    1   -7   14     -0.54      0.00
    2   -7   14      1.09      0.00
    3   -7   14      2.23      0.00
    4   -7   14      2.36      0.00
    5   -7   14      1.71      0.00
    6   -7   14      0.76      0.00
    7   -7   14      0.03      0.00
    8   -7   14     -0.11      0.00
    9   -7   14      0.17      0.00
   10   -7   14      0.30      0.00
  -11   -6   14     -0.07      0.00
  -10   -6   14     -0.32      0.00
   -9   -6   14     -0.68      0.00
   -8   -6   14     -0.60      0.00
   -7   -6   14      0.16      0.00
   -6   -6   14      1.25      0.00
   -5   -6   14      1.95      0.00
   -4   -6   14      1.75      0.00
   -3   -6   14      0.69      0.00
   -2   -6   14     -0.63      0.00
   -1   -6   14     -1.28      0.00
    0   -6   14     -0.66      0.00
    1   -6   14      0.85      0.00
    2   -6   14      2.24      0.00
    3   -6   14      2.67      0.00
    4   -6   14      2.15      0.00
    5   -6   14      1.29      0.00
    6   -6   14      0.66      0.00
    7   -6   14      0.49      0.00
    8   -6   14      0.78      0.00
    9   -6   14      1.09      0.00
   10   -6   14      0.90      0.00
  -12   -5   14     -0.34      0.00
  -11   -5   14     -0.29      0.00
  -10   -5   14     -0.48      0.00
   -9   -5   14     -0.60      0.00
   -8   -5   14     -0.25      0.00
   -7   -5   14      0.56      0.00
   -6   -5   14      1.36      0.00
   -5   -5   14      1.49      0.00
   -4   -5   14      0.76      0.00
   -3   -5   14     -0.39      0.00
   -2   -5   14     -1.18      0.00
   -1   -5   14     -1.02      0.00
    0   -5   14      0.05      0.00
    1   -5   14      1.28      0.00
    2   -5   14      1.88      0.00
    3   -5   14      1.57      0.00
    4   -5   14      0.75      0.00
    5   -5   14      0.14      0.00
    6   -5   14      0.16      0.00
    7   -5   14      0.64      0.00
    8   -5   14      1.20      0.00
    9   -5   14      1.40      0.00
   10   -5   14      1.02      0.00
  -13   -4   14     -0.38      0.00
  -12   -4   14     -0.35      0.00
  -11   -4   14     -0.33      0.00
  -10   -4   14     -0.41      0.00
   -9   -4   14     -0.28      0.00
   -8   -4   14      0.25      0.00
   -7   -4   14      0.89      0.00
   -6   -4   14      1.14      0.00
   -5   -4   14      0.66      0.00
   -4   -4   14     -0.32      0.00
   -3   -4   14     -1.15      0.00
   -2   -4   14     -1.33      0.00
   -1   -4   14     -0.81      0.00
    0   -4   14     -0.05      0.00
    1   -4   14      0.37      0.00
    2   -4   14      0.20      0.00
    3   -4   14     -0.39      0.00
    4   -4   14     -0.96      0.00
    5   -4   14     -0.97      0.00
    6   -4   14     -0.33      0.00
    7   -4   14      0.47      0.00
    8   -4   14      0.98      0.00
    9   -4   14      1.07      0.00
   10   -4   14      0.81      0.00
  -13   -3   14     -0.25      0.00
  -12   -3   14     -0.30      0.00
  -11   -3   14     -0.24      0.00
  -10   -3   14     -0.12      0.00
   -9   -3   14      0.25      0.00
   -8   -3   14      0.81      0.00
   -7   -3   14      1.15      0.00
   -6   -3   14      0.93      0.00
   -5   -3   14      0.17      0.00
   -4   -3   14     -0.67      0.00
   -3   -3   14     -1.13      0.00
   -2   -3   14     -1.10      0.00
   -1   -3   14     -0.87      0.00
    0   -3   14     -0.79      0.00
    1   -3   14     -1.06      0.00
    2   -3   14     -1.50      0.00
    3   -3   14     -1.85      0.00
    4   -3   14     -1.90      0.00
    5   -3   14     -1.43      0.00
    6   -3   14     -0.65      0.00
    7   -3   14     -0.05      0.00
    8   -3   14      0.23      0.00
    9   -3   14      0.36      0.00
   10   -3   14      0.41      0.00
  -13   -2   14     -0.29      0.00
  -12   -2   14     -0.31      0.00
  -11   -2   14     -0.07      0.00
  -10   -2   14      0.28      0.00
   -9   -2   14      0.77      0.00
   -8   -2   14      1.26      0.00
   -7   -2   14      1.39      0.00
   -6   -2   14      1.01      0.00
   -5   -2   14      0.30      0.00
   -4   -2   14     -0.32      0.00
   -3   -2   14     -0.62      0.00
   -2   -2   14     -0.75      0.00
   -1   -2   14     -0.92      0.00
    0   -2   14     -1.26      0.00
    1   -2   14     -1.70      0.00
    2   -2   14     -2.01      0.00
    3   -2   14     -2.04      0.00
    4   -2   14     -1.79      0.00
    5   -2   14     -1.31      0.00
    6   -2   14     -0.86      0.00
    7   -2   14     -0.67      0.00
    8   -2   14     -0.58      0.00
    9   -2   14     -0.37      0.00
  -13   -1   14     -0.47      0.00
  -12   -1   14     -0.32      0.00
  -11   -1   14      0.09      0.00
  -10   -1   14      0.52      0.00
   -9   -1   14      1.01      0.00
   -8   -1   14      1.43      0.00
   -7   -1   14      1.49      0.00
   -6   -1   14      1.12      0.00
   -5   -1   14      0.55      0.00
   -4   -1   14      0.12      0.00
   -3   -1   14     -0.08      0.00
   -2   -1   14     -0.25      0.00
   -1   -1   14     -0.53      0.00
    0   -1   14     -0.86      0.00
    1   -1   14     -1.17      0.00
    2   -1   14     -1.32      0.00
    3   -1   14     -1.25      0.00
    4   -1   14     -1.03      0.00
    5   -1   14     -0.80      0.00
    6   -1   14     -0.80      0.00
    7   -1   14     -1.01      0.00
    8   -1   14     -1.06      0.00
    9   -1   14     -0.79      0.00
  -13    0   14     -0.47      0.00
  -12    0   14     -0.20      0.00
  -11    0   14      0.18      0.00
  -10    0   14      0.51      0.00
   -9    0   14      0.87      0.00
   -8    0   14      1.19      0.00
   -7    0   14      1.20      0.00
   -6    0   14      0.89      0.00
   -5    0   14      0.51      0.00
   -4    0   14      0.33      0.00
   -3    0   14      0.33      0.00
   -2    0   14      0.27      0.00
   -1    0   14      0.14      0.00
    0    0   14      0.02      0.00
    1    0   14     -0.09      0.00
    2    0   14     -0.14      0.00
    3    0   14     -0.09      0.00
    4    0   14      0.02      0.00
    5    0   14     -0.04      0.00
    6    0   14     -0.45      0.00
    7    0   14     -0.93      0.00
    8    0   14     -1.01      0.00
  -13    1   14     -0.18      0.00
  -12    1   14      0.06      0.00
  -11    1   14      0.24      0.00
  -10    1   14      0.31      0.00
   -9    1   14      0.47      0.00
   -8    1   14      0.63      0.00
   -7    1   14      0.59      0.00
   -6    1   14      0.37      0.00
   -5    1   14      0.19      0.00
   -4    1   14      0.22      0.00
   -3    1   14      0.37      0.00
   -2    1   14      0.47      0.00
   -1    1   14      0.56      0.00
    0    1   14      0.71      0.00
    1    1   14      0.82      0.00
    2    1   14      0.90      0.00
    3    1   14      0.98      0.00
    4    1   14      0.93      0.00
    5    1   14      0.56      0.00
    6    1   14     -0.08      0.00
    7    1   14     -0.56      0.00
  -13    2   14      0.18      0.00
  -12    2   14      0.32      0.00
  -11    2   14      0.25      0.00
  -10    2   14      0.07      0.00
   -9    2   14      0.05      0.00
   -8    2   14      0.09      0.00
   -7    2   14      0.01      0.00
   -6    2   14     -0.18      0.00
   -5    2   14     -0.32      0.00
   -4    2   14     -0.24      0.00
   -3    2   14     -0.01      0.00
   -2    2   14      0.22      0.00
   -1    2   14      0.49      0.00
    0    2   14      0.86      0.00
    1    2   14      1.22      0.00
    2    2   14      1.44      0.00
    3    2   14      1.42      0.00
    4    2   14      1.11      0.00
    5    2   14      0.60      0.00
    6    2   14      0.12      0.00
  -13    3   14      0.38      0.00
  -12    3   14      0.48      0.00
  -11    3   14      0.33      0.00
  -10    3   14      0.07      0.00
   -9    3   14     -0.02      0.00
   -8    3   14     -0.08      0.00
   -7    3   14     -0.27      0.00
   -6    3   14     -0.56      0.00
   -5    3   14     -0.79      0.00
   -4    3   14     -0.73      0.00
   -3    3   14     -0.49      0.00
   -2    3   14     -0.28      0.00
   -1    3   14      0.00      0.00
    0    3   14      0.49      0.00
    1    3   14      0.98      0.00
    2    3   14      1.19      0.00
    3    3   14      1.00      0.00
    4    3   14      0.62      0.00
    5    3   14      0.35      0.00
    6    3   14      0.24      0.00
  -13    4   14      0.45      0.00
  -12    4   14      0.73      0.00
  -11    4   14      0.75      0.00
  -10    4   14      0.57      0.00
   -9    4   14      0.41      0.00
   -8    4   14      0.22      0.00
   -7    4   14     -0.12      0.00
   -6    4   14     -0.56      0.00
   -5    4   14     -0.90      0.00
   -4    4   14     -0.92      0.00
   -3    4   14     -0.80      0.00
   -2    4   14     -0.79      0.00
   -1    4   14     -0.63      0.00
    0    4   14     -0.17      0.00
    1    4   14      0.28      0.00
    2    4   14      0.42      0.00
    3    4   14      0.30      0.00
    4    4   14      0.19      0.00
    5    4   14      0.24      0.00
  -12    5   14      1.14      0.00
  -11    5   14      1.42      0.00
  -10    5   14      1.33      0.00
   -9    5   14      1.11      0.00
   -8    5   14      0.79      0.00
   -7    5   14      0.30      0.00
   -6    5   14     -0.31      0.00
   -5    5   14     -0.78      0.00
   -4    5   14     -0.87      0.00
   -3    5   14     -0.86      0.00
   -2    5   14     -0.98      0.00
   -1    5   14     -0.94      0.00
    0    5   14     -0.63      0.00
    1    5   14     -0.32      0.00
    2    5   14     -0.12      0.00
    3    5   14      0.05      0.00
    4    5   14      0.18      0.00
  -12    6   14      1.32      0.00
  -11    6   14      1.78      0.00
  -10    6   14      1.80      0.00
   -9    6   14      1.59      0.00
   -8    6   14      1.18      0.00
   -7    6   14      0.55      0.00
   -6    6   14     -0.16      0.00
   -5    6   14     -0.62      0.00
   -4    6   14     -0.63      0.00
   -3    6   14     -0.53      0.00
   -2    6   14     -0.63      0.00
   -1    6   14     -0.69      0.00
    0    6   14     -0.59      0.00
    1    6   14     -0.40      0.00
    2    6   14     -0.09      0.00
    3    6   14      0.19      0.00
  -11    7   14      1.56      0.00
  -10    7   14      1.66      0.00
   -9    7   14      1.45      0.00
   -8    7   14      1.02      0.00
   -7    7   14      0.47      0.00
   -6    7   14     -0.04      0.00
   -5    7   14     -0.27      0.00
   -4    7   14     -0.13      0.00
   -3    7   14      0.06      0.00
   -2    7   14     -0.02      0.00
   -1    7   14     -0.20      0.00
    0    7   14     -0.27      0.00
    1    7   14     -0.15      0.00
  -11    8   14      1.01      0.00
  -10    8   14      0.99      0.00
   -9    8   14      0.78      0.00
   -8    8   14      0.57      0.00
   -7    8   14      0.41      0.00
   -6    8   14      0.27      0.00
   -5    8   14      0.20      0.00
   -4    8   14      0.31      0.00
   -3    8   14      0.42      0.00
   -2    8   14      0.29      0.00
   -1    8   14      0.06      0.00
    0    8   14     -0.04      0.00
   -9    9   14      0.13      0.00
   -8    9   14      0.25      0.00
   -7    9   14      0.44      0.00
   -6    9   14      0.50      0.00
    2  -15   15     -0.89      0.00
    3  -15   15     -1.36      0.00
    4  -15   15     -1.22      0.00
   -3  -14   15     -0.33      0.00
   -2  -14   15     -0.18      0.00
   -1  -14   15     -0.01      0.00
    0  -14   15     -0.08      0.00
    1  -14   15     -0.51      0.00
    2  -14   15     -1.12      0.00
    3  -14   15     -1.35      0.00
    4  -14   15     -0.92      0.00
    5  -14   15     -0.22      0.00
    6  -14   15      0.19      0.00
   -4  -13   15     -0.28      0.00
   -3  -13   15     -0.15      0.00
   -2  -13   15      0.16      0.00
   -1  -13   15      0.32      0.00
    0  -13   15      0.12      0.00
    1  -13   15     -0.38      0.00
    2  -13   15     -0.81      0.00
    3  -13   15     -0.73      0.00
    4  -13   15     -0.18      0.00
    5  -13   15      0.39      0.00
    6  -13   15      0.63      0.00
    7  -13   15      0.54      0.00
   -5  -12   15     -0.05      0.00
   -4  -12   15      0.01      0.00
   -3  -12   15      0.28      0.00
   -2  -12   15      0.61      0.00
   -1  -12   15      0.62      0.00
    0  -12   15      0.23      0.00
    1  -12   15     -0.32      0.00
    2  -12   15     -0.58      0.00
    3  -12   15     -0.34      0.00
    4  -12   15      0.25      0.00
    5  -12   15      0.78      0.00
    6  -12   15      0.98      0.00
    7  -12   15      0.85      0.00
    8  -12   15      0.67      0.00
   -7  -11   15      0.09      0.00
   -6  -11   15      0.16      0.00
   -5  -11   15      0.23      0.00
   -4  -11   15      0.41      0.00
   -3  -11   15      0.79      0.00
   -2  -11   15      0.99      0.00
   -1  -11   15      0.67      0.00
    0  -11   15     -0.05      0.00
    1  -11   15     -0.75      0.00
    2  -11   15     -1.01      0.00
    3  -11   15     -0.68      0.00
    4  -11   15      0.04      0.00
    5  -11   15      0.74      0.00
    6  -11   15      1.06      0.00
    7  -11   15      0.99      0.00
    8  -11   15      0.87      0.00
    9  -11   15      0.76      0.00
   -8  -10   15      0.21      0.00
   -7  -10   15      0.24      0.00
   -6  -10   15      0.28      0.00
   -5  -10   15      0.45      0.00
   -4  -10   15      0.90      0.00
   -3  -10   15      1.38      0.00
   -2  -10   15      1.29      0.00
   -1  -10   15      0.42      0.00
    0  -10   15     -0.76      0.00
    1  -10   15     -1.65      0.00
    2  -10   15     -1.88      0.00
    3  -10   15     -1.40      0.00
    4  -10   15     -0.46      0.00
    5  -10   15      0.45      0.00
    6  -10   15      0.88      0.00
    7  -10   15      0.82      0.00
    8  -10   15      0.72      0.00
    9  -10   15      0.73      0.00
   -9   -9   15      0.32      0.00
   -8   -9   15      0.32      0.00
   -7   -9   15      0.16      0.00
   -6   -9   15      0.21      0.00
   -5   -9   15      0.69      0.00
   -4   -9   15      1.47      0.00
   -3   -9   15      1.90      0.00
   -2   -9   15      1.33      0.00
   -1   -9   15     -0.10      0.00
    0   -9   15     -1.59      0.00
    1   -9   15     -2.47      0.00
    2   -9   15     -2.49      0.00
    3   -9   15     -1.79      0.00
    4   -9   15     -0.75      0.00
    5   -9   15      0.14      0.00
    6   -9   15      0.44      0.00
    7   -9   15      0.27      0.00
    8   -9   15      0.19      0.00
    9   -9   15      0.38      0.00
   10   -9   15      0.47      0.00
  -10   -8   15      0.22      0.00
   -9   -8   15      0.28      0.00
   -8   -8   15      0.04      0.00
   -7   -8   15     -0.13      0.00
   -6   -8   15      0.17      0.00
   -5   -8   15      1.02      0.00
   -4   -8   15      1.90      0.00
   -3   -8   15      2.02      0.00
   -2   -8   15      0.97      0.00
   -1   -8   15     -0.73      0.00
    0   -8   15     -2.12      0.00
    1   -8   15     -2.65      0.00
    2   -8   15     -2.29      0.00
    3   -8   15     -1.44      0.00
    4   -8   15     -0.58      0.00
    5   -8   15     -0.07      0.00
    6   -8   15     -0.08      0.00
    7   -8   15     -0.41      0.00
    8   -8   15     -0.48      0.00
    9   -8   15     -0.17      0.00
   10   -8   15      0.09      0.00
  -11   -7   15      0.01      0.00
  -10   -7   15      0.04      0.00
   -9   -7   15     -0.14      0.00
   -8   -7   15     -0.37      0.00
   -7   -7   15     -0.29      0.00
   -6   -7   15      0.36      0.00
   -5   -7   15      1.33      0.00
   -4   -7   15      1.96      0.00
   -3   -7   15      1.63      0.00
   -2   -7   15      0.34      0.00
   -1   -7   15     -1.18      0.00
    0   -7   15     -2.07      0.00
    1   -7   15     -1.99      0.00
    2   -7   15     -1.23      0.00
    3   -7   15     -0.41      0.00
    4   -7   15      0.01      0.00
    5   -7   15     -0.01      0.00
    6   -7   15     -0.36      0.00
    7   -7   15     -0.82      0.00
    8   -7   15     -0.92      0.00
    9   -7   15     -0.58      0.00
   10   -7   15     -0.20      0.00
  -11   -6   15     -0.14      0.00
  -10   -6   15     -0.28      0.00
   -9   -6   15     -0.53      0.00
   -8   -6   15     -0.60      0.00
   -7   -6   15     -0.22      0.00
   -6   -6   15      0.61      0.00
   -5   -6   15      1.40      0.00
   -4   -6   15      1.56      0.00
   -3   -6   15      0.86      0.00
   -2   -6   15     -0.35      0.00
   -1   -6   15     -1.32      0.00
    0   -6   15     -1.45      0.00
    1   -6   15     -0.74      0.00
    2   -6   15      0.26      0.00
    3   -6   15      0.83      0.00
    4   -6   15      0.72      0.00
    5   -6   15      0.26      0.00
    6   -6   15     -0.23      0.00
    7   -6   15     -0.64      0.00
    8   -6   15     -0.75      0.00
    9   -6   15     -0.48      0.00
  -11   -5   15     -0.35      0.00
  -10   -5   15     -0.58      0.00
   -9   -5   15     -0.80      0.00
   -8   -5   15     -0.67      0.00
   -7   -5   15     -0.10      0.00
   -6   -5   15      0.62      0.00
   -5   -5   15      0.98      0.00
   -4   -5   15      0.62      0.00
   -3   -5   15     -0.22      0.00
   -2   -5   15     -1.02      0.00
   -1   -5   15     -1.20      0.00
    0   -5   15     -0.57      0.00
    1   -5   15      0.51      0.00
    2   -5   15      1.38      0.00
    3   -5   15      1.53      0.00
    4   -5   15      1.05      0.00
    5   -5   15      0.51      0.00
    6   -5   15      0.22      0.00
    7   -5   15      0.04      0.00
    8   -5   15     -0.07      0.00
    9   -5   15     -0.05      0.00
  -12   -4   15     -0.40      0.00
  -11   -4   15     -0.59      0.00
  -10   -4   15     -0.84      0.00
   -9   -4   15     -0.93      0.00
   -8   -4   15     -0.64      0.00
   -7   -4   15     -0.11      0.00
   -6   -4   15      0.20      0.00
   -5   -4   15     -0.01      0.00
   -4   -4   15     -0.68      0.00
   -3   -4   15     -1.34      0.00
   -2   -4   15     -1.49      0.00
   -1   -4   15     -0.92      0.00
    0   -4   15      0.10      0.00
    1   -4   15      1.03      0.00
    2   -4   15      1.45      0.00
    3   -4   15      1.28      0.00
    4   -4   15      0.81      0.00
    5   -4   15      0.56      0.00
    6   -4   15      0.65      0.00
    7   -4   15      0.68      0.00
    8   -4   15      0.46      0.00
    9   -4   15      0.22      0.00
  -12   -3   15     -0.44      0.00
  -11   -3   15     -0.64      0.00
  -10   -3   15     -0.77      0.00
   -9   -3   15     -0.72      0.00
   -8   -3   15     -0.47      0.00
   -7   -3   15     -0.30      0.00
   -6   -3   15     -0.49      0.00
   -5   -3   15     -1.06      0.00
   -4   -3   15     -1.69      0.00
   -3   -3   15     -1.92      0.00
   -2   -3   15     -1.50      0.00
   -1   -3   15     -0.63      0.00
    0   -3   15      0.17      0.00
    1   -3   15      0.57      0.00
    2   -3   15      0.61      0.00
    3   -3   15      0.44      0.00
    4   -3   15      0.26      0.00
    5   -3   15      0.35      0.00
    6   -3   15      0.64      0.00
    7   -3   15      0.69      0.00
    8   -3   15      0.40      0.00
    9   -3   15      0.12      0.00
  -12   -2   15     -0.26      0.00
  -11   -2   15     -0.29      0.00
  -10   -2   15     -0.27      0.00
   -9   -2   15     -0.26      0.00
   -8   -2   15     -0.27      0.00
   -7   -2   15     -0.45      0.00
   -6   -2   15     -0.87      0.00
   -5   -2   15     -1.41      0.00
   -4   -2   15     -1.75      0.00
   -3   -2   15     -1.60      0.00
   -2   -2   15     -1.05      0.00
   -1   -2   15     -0.50      0.00
    0   -2   15     -0.24      0.00
    1   -2   15     -0.23      0.00
    2   -2   15     -0.27      0.00
    3   -2   15     -0.28      0.00
    4   -2   15     -0.25      0.00
    5   -2   15     -0.05      0.00
    6   -2   15      0.19      0.00
    7   -2   15      0.17      0.00
    8   -2   15     -0.03      0.00
  -12   -1   15      0.02      0.00
  -11   -1   15      0.13      0.00
  -10   -1   15      0.15      0.00
   -9   -1   15      0.08      0.00
   -8   -1   15     -0.02      0.00
   -7   -1   15     -0.23      0.00
   -6   -1   15     -0.56      0.00
   -5   -1   15     -0.86      0.00
   -4   -1   15     -0.91      0.00
   -3   -1   15     -0.67      0.00
   -2   -1   15     -0.42      0.00
   -1   -1   15     -0.35      0.00
    0   -1   15     -0.43      0.00
    1   -1   15     -0.50      0.00
    2   -1   15     -0.51      0.00
    3   -1   15     -0.50      0.00
    4   -1   15     -0.47      0.00
    5   -1   15     -0.33      0.00
    6   -1   15     -0.24      0.00
    7   -1   15     -0.33      0.00
    8   -1   15     -0.37      0.00
  -12    0   15      0.09      0.00
  -11    0   15      0.17      0.00
  -10    0   15      0.16      0.00
   -9    0   15      0.17      0.00
   -8    0   15      0.24      0.00
   -7    0   15      0.22      0.00
   -6    0   15      0.12      0.00
   -5    0   15      0.09      0.00
   -4    0   15      0.20      0.00
   -3    0   15      0.34      0.00
   -2    0   15      0.29      0.00
   -1    0   15      0.10      0.00
    0    0   15     -0.06      0.00
    1    0   15     -0.15      0.00
    2    0   15     -0.22      0.00
    3    0   15     -0.25      0.00
    4    0   15     -0.23      0.00
    5    0   15     -0.21      0.00
    6    0   15     -0.33      0.00
    7    0   15     -0.50      0.00
  -12    1   15     -0.05      0.00
  -11    1   15     -0.06      0.00
  -10    1   15     -0.07      0.00
   -9    1   15      0.06      0.00
   -8    1   15      0.30      0.00
   -7    1   15      0.49      0.00
   -6    1   15      0.65      0.00
   -5    1   15      0.85      0.00
   -4    1   15      1.04      0.00
   -3    1   15      1.07      0.00
   -2    1   15      0.87      0.00
   -1    1   15      0.59      0.00
    0    1   15      0.39      0.00
    1    1   15      0.29      0.00
    2    1   15      0.30      0.00
    3    1   15      0.39      0.00
    4    1   15      0.40      0.00
    5    1   15      0.21      0.00
    6    1   15     -0.15      0.00
  -12    2   15     -0.16      0.00
  -11    2   15     -0.27      0.00
  -10    2   15     -0.35      0.00
   -9    2   15     -0.22      0.00
   -8    2   15      0.10      0.00
   -7    2   15      0.45      0.00
   -6    2   15      0.79      0.00
   -5    2   15      1.06      0.00
   -4    2   15      1.21      0.00
   -3    2   15      1.16      0.00
   -2    2   15      0.89      0.00
   -1    2   15      0.59      0.00
    0    2   15      0.46      0.00
    1    2   15      0.58      0.00
    2    2   15      0.87      0.00
    3    2   15      1.08      0.00
    4    2   15      0.95      0.00
    5    2   15      0.51      0.00
  -12    3   15     -0.26      0.00
  -11    3   15     -0.50      0.00
  -10    3   15     -0.66      0.00
   -9    3   15     -0.52      0.00
   -8    3   15     -0.17      0.00
   -7    3   15      0.20      0.00
   -6    3   15      0.48      0.00
   -5    3   15      0.61      0.00
   -4    3   15      0.63      0.00
   -3    3   15      0.57      0.00
   -2    3   15      0.35      0.00
   -1    3   15      0.19      0.00
    0    3   15      0.34      0.00
    1    3   15      0.76      0.00
    2    3   15      1.16      0.00
    3    3   15      1.24      0.00
    4    3   15      0.93      0.00
    5    3   15      0.48      0.00
  -12    4   15     -0.49      0.00
  -11    4   15     -0.76      0.00
  -10    4   15     -0.85      0.00
   -9    4   15     -0.65      0.00
   -8    4   15     -0.32      0.00
   -7    4   15     -0.08      0.00
   -6    4   15     -0.02      0.00
   -5    4   15     -0.10      0.00
   -4    4   15     -0.13      0.00
   -3    4   15     -0.11      0.00
   -2    4   15     -0.18      0.00
   -1    4   15     -0.15      0.00
    0    4   15      0.18      0.00
    1    4   15      0.61      0.00
    2    4   15      0.82      0.00
    3    4   15      0.74      0.00
    4    4   15      0.49      0.00
  -12    5   15     -0.65      0.00
  -11    5   15     -0.77      0.00
  -10    5   15     -0.71      0.00
   -9    5   15     -0.48      0.00
   -8    5   15     -0.24      0.00
   -7    5   15     -0.17      0.00
   -6    5   15     -0.30      0.00
   -5    5   15     -0.48      0.00
   -4    5   15     -0.48      0.00
   -3    5   15     -0.39      0.00
   -2    5   15     -0.44      0.00
   -1    5   15     -0.42      0.00
    0    5   15     -0.16      0.00
    1    5   15      0.07      0.00
    2    5   15      0.14      0.00
    3    5   15      0.14      0.00
  -11    6   15     -0.41      0.00
  -10    6   15     -0.25      0.00
   -9    6   15     -0.07      0.00
   -8    6   15      0.01      0.00
   -7    6   15     -0.06      0.00
   -6    6   15     -0.26      0.00
   -5    6   15     -0.43      0.00
   -4    6   15     -0.43      0.00
   -3    6   15     -0.41      0.00
   -2    6   15     -0.55      0.00
   -1    6   15     -0.60      0.00
    0    6   15     -0.47      0.00
    1    6   15     -0.35      0.00
  -10    7   15      0.21      0.00
   -9    7   15      0.27      0.00
   -8    7   15      0.18      0.00
   -7    7   15      0.03      0.00
   -6    7   15     -0.12      0.00
   -5    7   15     -0.23      0.00
   -4    7   15     -0.28      0.00
   -3    7   15     -0.33      0.00
   -2    7   15     -0.44      0.00
   -1    7   15     -0.47      0.00
    0    7   15     -0.40      0.00
    4  -14   16     -0.62      0.00
   -3  -13   16     -0.10      0.00
   -2  -13   16     -0.12      0.00
   -1  -13   16     -0.02      0.00
    0  -13   16     -0.03      0.00
    1  -13   16     -0.31      0.00
    2  -13   16     -0.73      0.00
    3  -13   16     -0.96      0.00
    4  -13   16     -0.82      0.00
    5  -13   16     -0.45      0.00
    6  -13   16     -0.10      0.00
   -5  -12   16      0.07      0.00
   -4  -12   16      0.03      0.00
   -3  -12   16      0.05      0.00
   -2  -12   16      0.23      0.00
   -1  -12   16      0.38      0.00
    0  -12   16      0.20      0.00
    1  -12   16     -0.34      0.00
    2  -12   16     -0.89      0.00
    3  -12   16     -1.05      0.00
    4  -12   16     -0.76      0.00
    5  -12   16     -0.22      0.00
    6  -12   16      0.23      0.00
   -6  -11   16     -0.08      0.00
   -5  -11   16     -0.11      0.00
   -4  -11   16      0.00      0.00
   -3  -11   16      0.39      0.00
   -2  -11   16      0.85      0.00
   -1  -11   16      0.97      0.00
    0  -11   16      0.58      0.00
    1  -11   16     -0.17      0.00
    2  -11   16     -0.79      0.00
    3  -11   16     -0.88      0.00
    4  -11   16     -0.42      0.00
    5  -11   16      0.30      0.00
    6  -11   16      0.76      0.00
    7  -11   16      0.66      0.00
   -7  -10   16     -0.13      0.00
   -6  -10   16     -0.41      0.00
   -5  -10   16     -0.41      0.00
   -4  -10   16      0.07      0.00
   -3  -10   16      0.87      0.00
   -2  -10   16      1.44      0.00
   -1  -10   16      1.42      0.00
    0  -10   16      0.84      0.00
    1  -10   16     -0.01      0.00
    2  -10   16     -0.66      0.00
    3  -10   16     -0.66      0.00
    4  -10   16     -0.04      0.00
    5  -10   16      0.74      0.00
    6  -10   16      1.05      0.00
    7  -10   16      0.71      0.00
   -8   -9   16      0.13      0.00
   -7   -9   16     -0.43      0.00
   -6   -9   16     -0.83      0.00
   -5   -9   16     -0.60      0.00
   -4   -9   16      0.29      0.00
   -3   -9   16      1.29      0.00
   -2   -9   16      1.75      0.00
   -1   -9   16      1.47      0.00
    0   -9   16      0.67      0.00
    1   -9   16     -0.27      0.00
    2   -9   16     -0.83      0.00
    3   -9   16     -0.64      0.00
    4   -9   16      0.08      0.00
    5   -9   16      0.73      0.00
    6   -9   16      0.82      0.00
    7   -9   16      0.35      0.00
    8   -9   16     -0.07      0.00
   -9   -8   16      0.40      0.00
   -8   -8   16     -0.11      0.00
   -7   -8   16     -0.82      0.00
   -6   -8   16     -1.11      0.00
   -5   -8   16     -0.58      0.00
   -4   -8   16      0.56      0.00
   -3   -8   16      1.52      0.00
   -2   -8   16      1.63      0.00
   -1   -8   16      0.93      0.00
    0   -8   16     -0.13      0.00
    1   -8   16     -1.01      0.00
    2   -8   16     -1.24      0.00
    3   -8   16     -0.79      0.00
    4   -8   16     -0.11      0.00
    5   -8   16      0.30      0.00
    6   -8   16      0.20      0.00
    7   -8   16     -0.25      0.00
    8   -8   16     -0.50      0.00
  -10   -7   16      0.31      0.00
   -9   -7   16      0.01      0.00
   -8   -7   16     -0.52      0.00
   -7   -7   16     -1.02      0.00
   -6   -7   16     -1.00      0.00
   -5   -7   16     -0.20      0.00
   -4   -7   16      0.96      0.00
   -3   -7   16      1.56      0.00
   -2   -7   16      1.10      0.00
   -1   -7   16     -0.03      0.00
    0   -7   16     -1.11      0.00
    1   -7   16     -1.62      0.00
    2   -7   16     -1.42      0.00
    3   -7   16     -0.82      0.00
    4   -7   16     -0.35      0.00
    5   -7   16     -0.25      0.00
    6   -7   16     -0.45      0.00
    7   -7   16     -0.75      0.00
    8   -7   16     -0.75      0.00
  -10   -6   16     -0.05      0.00
   -9   -6   16     -0.34      0.00
   -8   -6   16     -0.63      0.00
   -7   -6   16     -0.69      0.00
   -6   -6   16     -0.27      0.00
   -5   -6   16      0.62      0.00
   -4   -6   16      1.41      0.00
   -3   -6   16      1.36      0.00
   -2   -6   16      0.42      0.00
   -1   -6   16     -0.75      0.00
    0   -6   16     -1.45      0.00
    1   -6   16     -1.48      0.00
    2   -6   16     -1.02      0.00
    3   -6   16     -0.53      0.00
    4   -6   16     -0.40      0.00
    5   -6   16     -0.57      0.00
    6   -6   16     -0.74      0.00
    7   -6   16     -0.78      0.00
    8   -6   16     -0.61      0.00
  -11   -5   16      0.11      0.00
  -10   -5   16     -0.02      0.00
   -9   -5   16     -0.26      0.00
   -8   -5   16     -0.28      0.00
   -7   -5   16      0.09      0.00
   -6   -5   16      0.73      0.00
   -5   -5   16      1.33      0.00
   -4   -5   16      1.48      0.00
   -3   -5   16      0.95      0.00
   -2   -5   16      0.02      0.00
   -1   -5   16     -0.72      0.00
    0   -5   16     -0.92      0.00
    1   -5   16     -0.68      0.00
    2   -5   16     -0.29      0.00
    3   -5   16     -0.08      0.00
    4   -5   16     -0.24      0.00
    5   -5   16     -0.48      0.00
    6   -5   16     -0.48      0.00
    7   -5   16     -0.32      0.00
    8   -5   16     -0.22      0.00
  -11   -4   16      0.32      0.00
  -10   -4   16      0.13      0.00
   -9   -4   16     -0.06      0.00
   -8   -4   16      0.17      0.00
   -7   -4   16      0.77      0.00
   -6   -4   16      1.25      0.00
   -5   -4   16      1.33      0.00
   -4   -4   16      1.03      0.00
   -3   -4   16      0.49      0.00
   -2   -4   16     -0.02      0.00
   -1   -4   16     -0.24      0.00
    0   -4   16     -0.13      0.00
    1   -4   16      0.09      0.00
    2   -4   16      0.26      0.00
    3   -4   16      0.26      0.00
    4   -4   16      0.08      0.00
    5   -4   16      0.00      0.00
    6   -4   16      0.19      0.00
    7   -4   16      0.34      0.00
  -11   -3   16      0.20      0.00
  -10   -3   16      0.06      0.00
   -9   -3   16      0.03      0.00
   -8   -3   16      0.42      0.00
   -7   -3   16      0.95      0.00
   -6   -3   16      1.10      0.00
   -5   -3   16      0.81      0.00
   -4   -3   16      0.36      0.00
   -3   -3   16      0.02      0.00
   -2   -3   16     -0.08      0.00
   -1   -3   16      0.04      0.00
    0   -3   16      0.23      0.00
    1   -3   16      0.32      0.00
    2   -3   16      0.37      0.00
    3   -3   16      0.42      0.00
    4   -3   16      0.45      0.00
    5   -3   16      0.60      0.00
    6   -3   16      0.86      0.00
    7   -3   16      0.89      0.00
  -12   -2   16     -0.02      0.00
  -11   -2   16      0.07      0.00
  -10   -2   16      0.12      0.00
   -9   -2   16      0.22      0.00
   -8   -2   16      0.54      0.00
   -7   -2   16      0.84      0.00
   -6   -2   16      0.74      0.00
   -5   -2   16      0.25      0.00
   -4   -2   16     -0.25      0.00
   -3   -2   16     -0.44      0.00
   -2   -2   16     -0.32      0.00
   -1   -2   16     -0.10      0.00
    0   -2   16      0.00      0.00
    1   -2   16      0.02      0.00
    2   -2   16      0.15      0.00
    3   -2   16      0.41      0.00
    4   -2   16      0.65      0.00
    5   -2   16      0.93      0.00
    6   -2   16      1.17      0.00
    7   -2   16      1.04      0.00
  -12   -1   16      0.12      0.00
  -11   -1   16      0.44      0.00
  -10   -1   16      0.60      0.00
   -9   -1   16      0.61      0.00
   -8   -1   16      0.68      0.00
   -7   -1   16      0.73      0.00
   -6   -1   16      0.43      0.00
   -5   -1   16     -0.19      0.00
   -4   -1   16     -0.70      0.00
   -3   -1   16     -0.80      0.00
   -2   -1   16     -0.65      0.00
   -1   -1   16     -0.57      0.00
    0   -1   16     -0.60      0.00
    1   -1   16     -0.53      0.00
    2   -1   16     -0.23      0.00
    3   -1   16      0.16      0.00
    4   -1   16      0.50      0.00
    5   -1   16      0.81      0.00
    6   -1   16      0.93      0.00
  -12    0   16      0.62      0.00
  -11    0   16      1.03      0.00
  -10    0   16      1.11      0.00
   -9    0   16      0.92      0.00
   -8    0   16      0.77      0.00
   -7    0   16      0.58      0.00
   -6    0   16      0.14      0.00
   -5    0   16     -0.46      0.00
   -4    0   16     -0.85      0.00
   -3    0   16     -0.92      0.00
   -2    0   16     -0.93      0.00
   -1    0   16     -1.07      0.00
    0    0   16     -1.16      0.00
    1    0   16     -1.03      0.00
    2    0   16     -0.65      0.00
    3    0   16     -0.23      0.00
    4    0   16      0.14      0.00
    5    0   16      0.37      0.00
    6    0   16      0.34      0.00
  -12    1   16      0.88      0.00
  -11    1   16      1.21      0.00
  -10    1   16      1.14      0.00
   -9    1   16      0.87      0.00
   -8    1   16      0.64      0.00
   -7    1   16      0.39      0.00
   -6    1   16      0.02      0.00
   -5    1   16     -0.37      0.00
   -4    1   16     -0.64      0.00
   -3    1   16     -0.76      0.00
   -2    1   16     -0.91      0.00
   -1    1   16     -1.13      0.00
    0    1   16     -1.30      0.00
    1    1   16     -1.23      0.00
    2    1   16     -0.89      0.00
    3    1   16     -0.44      0.00
    4    1   16     -0.12      0.00
    5    1   16     -0.04      0.00
  -12    2   16      0.68      0.00
  -11    2   16      0.82      0.00
  -10    2   16      0.68      0.00
   -9    2   16      0.49      0.00
   -8    2   16      0.41      0.00
   -7    2   16      0.35      0.00
   -6    2   16      0.22      0.00
   -5    2   16      0.02      0.00
   -4    2   16     -0.19      0.00
   -3    2   16     -0.31      0.00
   -2    2   16     -0.43      0.00
   -1    2   16     -0.67      0.00
    0    2   16     -0.95      0.00
    1    2   16     -1.02      0.00
    2    2   16     -0.74      0.00
    3    2   16     -0.33      0.00
    4    2   16     -0.14      0.00
  -11    3   16      0.19      0.00
  -10    3   16      0.08      0.00
   -9    3   16      0.08      0.00
   -8    3   16      0.24      0.00
   -7    3   16      0.41      0.00
   -6    3   16      0.43      0.00
   -5    3   16      0.27      0.00
   -4    3   16      0.10      0.00
   -3    3   16      0.12      0.00
   -2    3   16      0.14      0.00
   -1    3   16     -0.06      0.00
    0    3   16     -0.36      0.00
    1    3   16     -0.48      0.00
    2    3   16     -0.33      0.00
    3    3   16     -0.11      0.00
  -11    4   16     -0.26      0.00
  -10    4   16     -0.30      0.00
   -9    4   16     -0.18      0.00
   -8    4   16      0.07      0.00
   -7    4   16      0.27      0.00
   -6    4   16      0.26      0.00
   -5    4   16      0.06      0.00
   -4    4   16     -0.04      0.00
   -3    4   16      0.14      0.00
   -2    4   16      0.34      0.00
   -1    4   16      0.31      0.00
    0    4   16      0.16      0.00
    1    4   16      0.01      0.00
    2    4   16     -0.04      0.00
    3    4   16      0.00      0.00
  -10    5   16     -0.40      0.00
   -9    5   16     -0.33      0.00
   -8    5   16     -0.16      0.00
   -7    5   16     -0.06      0.00
   -6    5   16     -0.15      0.00
   -5    5   16     -0.37      0.00
   -4    5   16     -0.38      0.00
   -3    5   16     -0.09      0.00
   -2    5   16      0.21      0.00
   -1    5   16      0.33      0.00
    0    5   16      0.29      0.00
   -8    6   16     -0.25      0.00
   -7    6   16     -0.23      0.00
   -6    6   16     -0.34      0.00
   -5    6   16     -0.50      0.00
   -4    6   16     -0.46      0.00
   -3    6   16     -0.23      0.00
   -2    6   16     -0.03      0.00
   -1    6   16      0.06      0.00
    3  -13   17     -0.58      0.00
    4  -13   17     -0.70      0.00
   -2  -12   17      0.26      0.00
   -1  -12   17      0.49      0.00
    0  -12   17      0.50      0.00
    1  -12   17      0.13      0.00
    2  -12   17     -0.50      0.00
    3  -12   17     -1.00      0.00
    4  -12   17     -1.11      0.00
    5  -12   17     -0.80      0.00
   -4  -11   17     -0.44      0.00
   -3  -11   17     -0.10      0.00
   -2  -11   17      0.47      0.00
   -1  -11   17      0.80      0.00
    0  -11   17      0.64      0.00
    1  -11   17      0.05      0.00
    2  -11   17     -0.65      0.00
    3  -11   17     -1.10      0.00
    4  -11   17     -1.09      0.00
    5  -11   17     -0.67      0.00
   -6  -10   17     -0.35      0.00
   -5  -10   17     -0.74      0.00
   -4  -10   17     -0.70      0.00
   -3  -10   17     -0.07      0.00
   -2  -10   17      0.64      0.00
   -1  -10   17      0.85      0.00
    0  -10   17      0.55      0.00
    1  -10   17     -0.03      0.00
    2  -10   17     -0.57      0.00
    3  -10   17     -0.78      0.00
    4  -10   17     -0.53      0.00
    5  -10   17      0.03      0.00
    6  -10   17      0.49      0.00
   -7   -9   17     -0.18      0.00
   -6   -9   17     -0.60      0.00
   -5   -9   17     -0.88      0.00
   -4   -9   17     -0.61      0.00
   -3   -9   17      0.13      0.00
   -2   -9   17      0.70      0.00
   -1   -9   17      0.75      0.00
    0   -9   17      0.40      0.00
    1   -9   17     -0.08      0.00
    2   -9   17     -0.38      0.00
    3   -9   17     -0.22      0.00
    4   -9   17      0.33      0.00
    5   -9   17      0.92      0.00
    6   -9   17      1.14      0.00
   -7   -8   17     -0.27      0.00
   -6   -8   17     -0.61      0.00
   -5   -8   17     -0.67      0.00
   -4   -8   17     -0.22      0.00
   -3   -8   17      0.46      0.00
   -2   -8   17      0.83      0.00
   -1   -8   17      0.69      0.00
    0   -8   17      0.23      0.00
    1   -8   17     -0.22      0.00
    2   -8   17     -0.26      0.00
    3   -8   17      0.26      0.00
    4   -8   17      0.95      0.00
    5   -8   17      1.36      0.00
    6   -8   17      1.32      0.00
    7   -8   17      0.86      0.00
   -8   -7   17     -0.08      0.00
   -7   -7   17     -0.34      0.00
   -6   -7   17     -0.51      0.00
   -5   -7   17     -0.33      0.00
   -4   -7   17      0.24      0.00
   -3   -7   17      0.81      0.00
   -2   -7   17      0.92      0.00
   -1   -7   17      0.53      0.00
    0   -7   17     -0.04      0.00
    1   -7   17     -0.38      0.00
    2   -7   17     -0.18      0.00
    3   -7   17      0.44      0.00
    4   -7   17      0.94      0.00
    5   -7   17      1.03      0.00
    6   -7   17      0.81      0.00
    7   -7   17      0.45      0.00
   -9   -6   17     -0.11      0.00
   -8   -6   17     -0.32      0.00
   -7   -6   17     -0.42      0.00
   -6   -6   17     -0.30      0.00
   -5   -6   17      0.09      0.00
   -4   -6   17      0.62      0.00
   -3   -6   17      0.92      0.00
   -2   -6   17      0.72      0.00
   -1   -6   17      0.24      0.00
    0   -6   17     -0.16      0.00
    1   -6   17     -0.27      0.00
    2   -6   17     -0.04      0.00
    3   -6   17      0.30      0.00
    4   -6   17      0.39      0.00
    5   -6   17      0.18      0.00
    6   -6   17     -0.05      0.00
   -9   -5   17     -0.44      0.00
   -8   -5   17     -0.50      0.00
   -7   -5   17     -0.23      0.00
   -6   -5   17      0.18      0.00
   -5   -5   17      0.56      0.00
   -4   -5   17      0.78      0.00
   -3   -5   17      0.74      0.00
   -2   -5   17      0.45      0.00
   -1   -5   17      0.20      0.00
    0   -5   17      0.14      0.00
    1   -5   17      0.12      0.00
    2   -5   17      0.07      0.00
    3   -5   17     -0.03      0.00
    4   -5   17     -0.29      0.00
    5   -5   17     -0.63      0.00
    6   -5   17     -0.72      0.00
  -10   -4   17     -0.46      0.00
   -9   -4   17     -0.64      0.00
   -8   -4   17     -0.42      0.00
   -7   -4   17      0.17      0.00
   -6   -4   17      0.66      0.00
   -5   -4   17      0.81      0.00
   -4   -4   17      0.75      0.00
   -3   -4   17      0.63      0.00
   -2   -4   17      0.53      0.00
   -1   -4   17      0.56      0.00
    0   -4   17      0.62      0.00
    1   -4   17      0.44      0.00
    2   -4   17      0.04      0.00
    3   -4   17     -0.38      0.00
    4   -4   17     -0.79      0.00
    5   -4   17     -1.08      0.00
    6   -4   17     -1.01      0.00
  -10   -3   17     -0.69      0.00
   -9   -3   17     -0.76      0.00
   -8   -3   17     -0.36      0.00
   -7   -3   17      0.30      0.00
   -6   -3   17      0.74      0.00
   -5   -3   17      0.80      0.00
   -4   -3   17      0.76      0.00
   -3   -3   17      0.78      0.00
   -2   -3   17      0.86      0.00
   -1   -3   17      0.94      0.00
    0   -3   17      0.86      0.00
    1   -3   17      0.43      0.00
    2   -3   17     -0.17      0.00
    3   -3   17     -0.68      0.00
    4   -3   17     -1.03      0.00
    5   -3   17     -1.16      0.00
    6   -3   17     -0.94      0.00
  -11   -2   17     -0.69      0.00
  -10   -2   17     -0.92      0.00
   -9   -2   17     -0.93      0.00
   -8   -2   17     -0.55      0.00
   -7   -2   17      0.09      0.00
   -6   -2   17      0.58      0.00
   -5   -2   17      0.76      0.00
   -4   -2   17      0.81      0.00
   -3   -2   17      0.89      0.00
   -2   -2   17      0.98      0.00
   -1   -2   17      0.95      0.00
    0   -2   17      0.67      0.00
    1   -2   17      0.11      0.00
    2   -2   17     -0.47      0.00
    3   -2   17     -0.85      0.00
    4   -2   17     -1.00      0.00
    5   -2   17     -0.88      0.00
    6   -2   17     -0.52      0.00
  -11   -1   17     -0.76      0.00
  -10   -1   17     -0.93      0.00
   -9   -1   17     -0.98      0.00
   -8   -1   17     -0.67      0.00
   -7   -1   17     -0.04      0.00
   -6   -1   17      0.49      0.00
   -5   -1   17      0.66      0.00
   -4   -1   17      0.64      0.00
   -3   -1   17      0.68      0.00
   -2   -1   17      0.72      0.00
   -1   -1   17      0.55      0.00
    0   -1   17      0.12      0.00
    1   -1   17     -0.40      0.00
    2   -1   17     -0.75      0.00
    3   -1   17     -0.84      0.00
    4   -1   17     -0.70      0.00
    5   -1   17     -0.35      0.00
  -10    0   17     -0.65      0.00
   -9    0   17     -0.76      0.00
   -8    0   17     -0.51      0.00
   -7    0   17      0.03      0.00
   -6    0   17      0.40      0.00
   -5    0   17      0.38      0.00
   -4    0   17      0.23      0.00
   -3    0   17      0.20      0.00
   -2    0   17      0.17      0.00
   -1    0   17     -0.11      0.00
    0    0   17     -0.54      0.00
    1    0   17     -0.86      0.00
    2    0   17     -0.90      0.00
    3    0   17     -0.71      0.00
    4    0   17     -0.36      0.00
  -10    1   17     -0.34      0.00
   -9    1   17     -0.42      0.00
   -8    1   17     -0.20      0.00
   -7    1   17      0.14      0.00
   -6    1   17      0.26      0.00
   -5    1   17      0.08      0.00
   -4    1   17     -0.15      0.00
   -3    1   17     -0.25      0.00
   -2    1   17     -0.35      0.00
   -1    1   17     -0.62      0.00
    0    1   17     -0.93      0.00
    1    1   17     -1.04      0.00
    2    1   17     -0.85      0.00
    3    1   17     -0.49      0.00
    4    1   17     -0.14      0.00
  -10    2   17     -0.14      0.00
   -9    2   17     -0.12      0.00
   -8    2   17      0.09      0.00
   -7    2   17      0.28      0.00
   -6    2   17      0.26      0.00
   -5    2   17      0.03      0.00
   -4    2   17     -0.23      0.00
   -3    2   17     -0.36      0.00
   -2    2   17     -0.43      0.00
   -1    2   17     -0.61      0.00
    0    2   17     -0.81      0.00
    1    2   17     -0.81      0.00
    2    2   17     -0.52      0.00
    3    2   17     -0.18      0.00
   -9    3   17      0.12      0.00
   -8    3   17      0.32      0.00
   -7    3   17      0.46      0.00
   -6    3   17      0.46      0.00
   -5    3   17      0.26      0.00
   -4    3   17      0.03      0.00
   -3    3   17     -0.02      0.00
   -2    3   17      0.00      0.00
   -1    3   17     -0.15      0.00
    0    3   17     -0.34      0.00
    1    3   17     -0.32      0.00
    2    3   17     -0.09      0.00
   -8    4   17      0.43      0.00
   -7    4   17      0.61      0.00
   -6    4   17      0.64      0.00
   -5    4   17      0.48      0.00
   -4    4   17      0.33      0.00
   -3    4   17      0.38      0.00
   -2    4   17      0.43      0.00
   -1    4   17      0.26      0.00
    0    4   17      0.06      0.00
   -7    5   17      0.56      0.00
   -2    5   17      0.45      0.00
    0  -11   18      0.95      0.00
    1  -11   18      1.21      0.00
    2  -11   18      0.94      0.00
   -4  -10   18     -0.42      0.00
   -3  -10   18     -0.22      0.00
   -2  -10   18      0.31      0.00
   -1  -10   18      0.80      0.00
    0  -10   18      1.08      0.00
    1  -10   18      0.98      0.00
    2  -10   18      0.42      0.00
    3  -10   18     -0.25      0.00
    4  -10   18     -0.60      0.00
   -4   -9   18     -0.28      0.00
   -3   -9   18      0.07      0.00
   -2   -9   18      0.54      0.00
   -1   -9   18      0.78      0.00
    0   -9   18      0.70      0.00
    1   -9   18      0.30      0.00
    2   -9   18     -0.33      0.00
    3   -9   18     -0.83      0.00
    4   -9   18     -0.86      0.00
   -5   -8   18     -0.08      0.00
   -4   -8   18     -0.07      0.00
   -3   -8   18      0.24      0.00
   -2   -8   18      0.54      0.00
   -1   -8   18      0.52      0.00
    0   -8   18      0.24      0.00
    1   -8   18     -0.20      0.00
    2   -8   18     -0.62      0.00
    3   -8   18     -0.71      0.00
    4   -8   18     -0.38      0.00
    5   -8   18      0.13      0.00
   -6   -7   18     -0.04      0.00
   -5   -7   18     -0.09      0.00
   -4   -7   18      0.02      0.00
   -3   -7   18      0.27      0.00
   -2   -7   18      0.36      0.00
   -1   -7   18      0.16      0.00
    0   -7   18     -0.15      0.00
    1   -7   18     -0.38      0.00
    2   -7   18     -0.38      0.00
    3   -7   18     -0.05      0.00
    4   -7   18      0.44      0.00
    5   -7   18      0.77      0.00
    6   -7   18      0.78      0.00
   -8   -6   18     -0.23      0.00
   -7   -6   18     -0.34      0.00
   -6   -6   18     -0.27      0.00
   -5   -6   18     -0.11      0.00
   -4   -6   18      0.06      0.00
   -3   -6   18      0.14      0.00
   -2   -6   18     -0.03      0.00
   -1   -6   18     -0.36      0.00
    0   -6   18     -0.53      0.00
    1   -6   18     -0.40      0.00
    2   -6   18     -0.04      0.00
    3   -6   18      0.42      0.00
    4   -6   18      0.76      0.00
    5   -6   18      0.77      0.00
   -7   -5   18     -0.55      0.00
   -6   -5   18     -0.21      0.00
   -5   -5   18      0.05      0.00
   -4   -5   18      0.08      0.00
   -3   -5   18     -0.13      0.00
   -2   -5   18     -0.52      0.00
   -1   -5   18     -0.80      0.00
    0   -5   18     -0.68      0.00
    1   -5   18     -0.27      0.00
    2   -5   18      0.10      0.00
    3   -5   18      0.33      0.00
    4   -5   18      0.38      0.00
   -8   -4   18     -0.54      0.00
   -7   -4   18     -0.26      0.00
   -6   -4   18      0.14      0.00
   -5   -4   18      0.21      0.00
   -4   -4   18     -0.03      0.00
   -3   -4   18     -0.37      0.00
   -2   -4   18     -0.67      0.00
   -1   -4   18     -0.67      0.00
    0   -4   18     -0.32      0.00
    1   -4   18      0.03      0.00
    2   -4   18      0.10      0.00
    3   -4   18      0.01      0.00
    4   -4   18     -0.08      0.00
   -8   -3   18     -0.12      0.00
   -7   -3   18      0.09      0.00
   -6   -3   18      0.20      0.00
   -5   -3   18      0.02      0.00
   -4   -3   18     -0.25      0.00
   -3   -3   18     -0.37      0.00
   -2   -3   18     -0.32      0.00
   -1   -3   18     -0.05      0.00
    0   -3   18      0.29      0.00
    1   -3   18      0.36      0.00
    2   -3   18      0.13      0.00
    3   -3   18     -0.11      0.00
    4   -3   18     -0.22      0.00
   -8   -2   18      0.02      0.00
   -7   -2   18     -0.10      0.00
   -6   -2   18     -0.24      0.00
   -5   -2   18     -0.40      0.00
   -4   -2   18     -0.40      0.00
   -3   -2   18     -0.17      0.00
   -2   -2   18      0.21      0.00
   -1   -2   18      0.58      0.00
    0   -2   18      0.75      0.00
    1   -2   18      0.59      0.00
    2   -2   18      0.24      0.00
    3   -2   18     -0.06      0.00
    4   -2   18     -0.21      0.00
   -8   -1   18     -0.31      0.00
   -7   -1   18     -0.55      0.00
   -6   -1   18     -0.63      0.00
   -5   -1   18     -0.57      0.00
   -4   -1   18     -0.34      0.00
   -3   -1   18      0.09      0.00
   -2   -1   18      0.60      0.00
   -1   -1   18      0.96      0.00
    0   -1   18      0.99      0.00
    1   -1   18      0.69      0.00
    2   -1   18      0.26      0.00
    3   -1   18     -0.07      0.00
   -8    0   18     -0.58      0.00
   -7    0   18     -0.68      0.00
   -6    0   18     -0.57      0.00
   -5    0   18     -0.38      0.00
   -4    0   18     -0.12      0.00
   -3    0   18      0.32      0.00
   -2    0   18      0.81      0.00
   -1    0   18      1.11      0.00
    0    0   18      1.02      0.00
    1    0   18      0.61      0.00
    2    0   18      0.16      0.00
   -7    1   18     -0.45      0.00
   -6    1   18     -0.24      0.00
   -5    1   18     -0.06      0.00
   -4    1   18      0.12      0.00
   -3    1   18      0.40      0.00
   -2    1   18      0.75      0.00
   -1    1   18      0.93      0.00
    0    1   18      0.77      0.00
    1    1   18      0.38      0.00
    2    1   18      0.03      0.00
   -7    2   18     -0.11      0.00
   -6    2   18      0.10      0.00
   -5    2   18      0.21      0.00
   -4    2   18      0.19      0.00
   -3    2   18      0.19      0.00
   -2    2   18      0.31      0.00
   -1    2   18      0.41      0.00
   -6    3   18      0.40      0.00
   -5    3   18      0.35      0.00
   -3    3   18     -0.18      0.00
   -2    3   18     -0.16      0.00
   -6    4   18      0.52      0.00
   -4   -9   19     -0.08      0.00
   -3   -9   19      0.05      0.00
   -2   -9   19      0.21      0.00
    1   -9   19      0.35      0.00
    2   -9   19      0.24      0.00
   -4   -8   19     -0.04      0.00
   -3   -8   19      0.20      0.00
   -2   -8   19      0.42      0.00
   -1   -8   19      0.40      0.00
    0   -8   19      0.27      0.00
    1   -8   19      0.13      0.00
    2   -8   19     -0.03      0.00
   -4   -7   19      0.29      0.00
   -3   -7   19      0.51      0.00
   -2   -7   19      0.56      0.00
   -1   -7   19      0.32      0.00
    0   -7   19      0.02      0.00
    1   -7   19     -0.13      0.00
    2   -7   19     -0.17      0.00
    3   -7   19     -0.19      0.00
   -4   -6   19      0.66      0.00
   -3   -6   19      0.68      0.00
   -2   -6   19      0.48      0.00
   -1   -6   19      0.11      0.00
    0   -6   19     -0.16      0.00
    1   -6   19     -0.16      0.00
    2   -6   19     -0.07      0.00
    3   -6   19     -0.01      0.00
   -5   -5   19      0.60      0.00
   -4   -5   19      0.57      0.00
   -3   -5   19      0.44      0.00
   -2   -5   19      0.23      0.00
   -1   -5   19     -0.06      0.00
    0   -5   19     -0.21      0.00
    1   -5   19     -0.12      0.00
    2   -5   19      0.04      0.00
    3   -5   19      0.11      0.00
   -5   -4   19      0.24      0.00
   -4   -4   19      0.11      0.00
   -3   -4   19      0.06      0.00
   -2   -4   19      0.00      0.00
   -1   -4   19     -0.17      0.00
    0   -4   19     -0.26      0.00
    1   -4   19     -0.16      0.00
    2   -4   19     -0.02      0.00
   -5   -3   19     -0.13      0.00
   -4   -3   19     -0.20      0.00
   -3   -3   19     -0.12      0.00
   -2   -3   19     -0.08      0.00
   -1   -3   19     -0.19      0.00
    0   -3   19     -0.28      0.00
    1   -3   19     -0.27      0.00
   -5   -2   19     -0.17      0.00
   -4   -2   19     -0.15      0.00
   -3   -2   19     -0.04      0.00
   -2   -2   19      0.03      0.00
   -1   -2   19     -0.04      0.00
    0   -2   19     -0.19      0.00
    1   -2   19     -0.29      0.00
   -5   -1   19      0.02      0.00
   -4   -1   19      0.08      0.00
   -3   -1   19      0.15      0.00
   -2   -1   19      0.21      0.00
   -1   -1   19      0.15      0.00
    0   -1   19     -0.01      0.00
    1   -1   19     -0.15      0.00
   -5    0   19      0.22      0.00
   -4    0   19      0.25      0.00
   -3    0   19      0.23      0.00
   -2    0   19      0.24      0.00
   -5    1   19      0.27      0.00
   -4    1   19      0.20      0.00
   -3    1   19      0.08      0.00
   -4   -5   20      0.06      0.00
   -3   -5   20     -0.03      0.00
   -3   -4   20     -0.27      0.00
   -3   -3   20     -0.41      0.00
    0    0    0      0.00      0.00
loop_
  _platon_squeeze_void_nr
  _platon_squeeze_void_average_x
  _platon_squeeze_void_average_y
  _platon_squeeze_void_average_z
  _platon_squeeze_void_volume
  _platon_squeeze_void_count_electrons
  _platon_squeeze_void_content
   1  0.000  0.000  0.003       381       109 ' '
_platon_squeeze_void_probe_radius                  1.20
_platon_squeeze_details
)
TITL GMF16021_0m in P-1
CELL   11.7176   12.3793   13.4720    104.21     96.74    106.48
SPGR P-1
C101 0.015 0.880 0.217 !      16.83 eA-3
C102 0.998 0.110 0.279 !      10.85 eA-3
C103 0.876 0.923 0.065 !       6.58 eA-3
C104 0.903 0.963 0.093 !       5.43 eA-3
C105 0.922 0.972 0.213 !       5.21 eA-3
C106 0.949 0.962 0.407 !       3.72 eA-3
Q107 0.358 0.368 0.270 !       1.92 eA-3
Q108 0.298 0.129 0.193 !       1.75 eA-3
Q109 0.371 0.380 0.204 !       1.70 eA-3
C110 0.982 0.934 0.240 !       1.40 eA-3
C111 0.012 0.036 0.503 !       1.23 eA-3
C112 0.964 0.936 0.327 !       1.22 eA-3
C113 0.994 0.029 0.277 !       1.15 eA-3
Q114 0.859 0.251-0.007 !       1.07 eA-3
Q115 0.575 0.249 0.120 !       1.04 eA-3
Q116 0.190 0.809 0.419 !       1.01 eA-3
Q117 0.704 0.638 0.143 !       0.99 eA-3
Q118 0.672 0.325 0.302 !       0.97 eA-3
Q119 0.513 0.595 0.389 !       0.95 eA-3
Q120 0.402 0.734 0.395 !       0.94 eA-3
Q121 0.298 0.513 0.067 !       0.93 eA-3
C122 0.852 0.918 0.234 !       0.91 eA-3
Q123 0.185 0.580 0.018 !       0.88 eA-3
Q124 0.762 0.469 0.473 !       0.87 eA-3
Q125 0.127 0.379 0.236 !       0.85 eA-3
Q126 0.547 0.387 0.278 !       0.84 eA-3
Q127 0.371 0.495 0.095 !       0.84 eA-3
C128 0.014 0.794 0.221 !       0.82 eA-3
Q129 0.266 0.647 0.165 !       0.82 eA-3
Q130 0.467 0.385 0.084 !       0.81 eA-3
Q131 0.524 0.972 0.203 !       0.80 eA-3
C132 0.971 0.171 0.294 !       0.79 eA-3
Q133 0.629 0.335 0.233 !       0.79 eA-3
Q134 0.427 0.557 0.277 !       0.79 eA-3
Q135 0.707 0.588 0.060 !       0.71 eA-3
Q136 0.670 0.432 0.391 !       0.71 eA-3
Q137 0.565 0.937 0.284 !       0.70 eA-3
Q138 0.589 0.672 0.084 !       0.69 eA-3
Q139 0.481 0.706 0.420 !       0.68 eA-3
Q140 0.466 0.698 0.457 !       0.68 eA-3
Q141 0.582 0.569 0.419 !       0.68 eA-3
Q142 0.240 0.356 0.234 !       0.68 eA-3
Q143 0.548 0.819 0.104 !       0.67 eA-3
Q144 0.764 0.510 0.083 !       0.67 eA-3
Q145 0.364 0.688 0.327 !       0.66 eA-3
Q146 0.099 0.677 0.016 !       0.66 eA-3
Q147 0.738 0.282 0.299 !       0.66 eA-3
Q148 0.489 0.291 0.033 !       0.65 eA-3
Q149 0.811 0.453 0.069 !       0.65 eA-3
Q150 0.271 0.610 0.118 !       0.65 eA-3
Q151 0.894 0.523 0.198 !       0.65 eA-3
Q152 0.516 0.829 0.047 !       0.64 eA-3
Q153 0.485 0.939 0.138 !       0.63 eA-3
Q154 0.595 0.751 0.127 !       0.62 eA-3
Q155 0.587 0.827 0.246 !       0.62 eA-3
Q156 0.347 0.171 0.447 !       0.62 eA-3
Q157 0.473 0.658 0.407 !       0.60 eA-3
Q158 0.676 0.601 0.086 !       0.60 eA-3
Q159 0.622 0.907 0.247 !       0.59 eA-3
Q160 0.486 0.238 0.481 !       0.59 eA-3
Q161 0.314 0.623 0.260 !       0.59 eA-3
Q162 0.111 0.329 0.200 !       0.59 eA-3
Q163 0.376 0.606 0.280 !       0.59 eA-3
Q164 0.708 0.516 0.037 !       0.57 eA-3
Q165 0.593 0.452 0.343 !       0.57 eA-3
Q166 0.583 0.281 0.166 !       0.56 eA-3
Q167 0.697 0.354 0.348 !       0.55 eA-3
Q168 0.499 0.881 0.075 !       0.55 eA-3
Q169 0.419 0.191 0.435 !       0.55 eA-3
C170 0.044 0.059 0.077 !       0.54 eA-3
Q171 0.017 0.189 0.261 !       0.54 eA-3
Q172 0.479 0.390 0.255 !       0.54 eA-3
Q173 0.902 0.579 0.478 !       0.53 eA-3
Q174 0.313 0.265 0.203 !       0.53 eA-3
Q175 0.258 0.809 0.433 !       0.52 eA-3
Q176 0.267 0.092 0.119 !       0.51 eA-3
Q177 0.517 0.425 0.246 !       0.51 eA-3
)
;
_shelx_fab_checksum              12694
loop_
_symmetry_equiv_pos_as_xyz
'x, y, z'
'-x, -y, -z'
loop_
_atom_site_label
_atom_site_fract_x
_atom_site_fract_y
_atom_site_fract_z
_atom_site_U_iso_or_equiv
_atom_site_adp_type
_atom_site_calc_flag
_atom_site_occupancy
_atom_site_type_symbol
Rh1 0.35463(2) 0.37935(2) 0.23306(2) 0.01198(2) Uani d 1 Rh
C21 0.46018(9) 0.34153(9) 0.02509(8) 0.01431(17) Uani d 1 C
N22 0.53923(8) 0.39900(7) 0.26147(6) 0.01301(15) Uani d 1 N
N23 0.40957(8) 0.56335(8) 0.28729(6) 0.01349(15) Uani d 1 N
N24 0.31032(9) 0.50148(8) 0.05202(7) 0.01543(16) Uani d 1 N
C25 0.31185(10) 0.21565(10) 0.18999(9) 0.0197(2) Uani d 1 C
O26 0.28419(9) 0.11576(8) 0.16522(9) 0.0343(2) Uani d 1 O
C27 0.19188(10) 0.36639(9) 0.22286(8) 0.01719(19) Uani d 1 C
O28 0.09194(8) 0.35621(9) 0.22042(7) 0.02696(18) Uani d 1 O
C1 0.39681(10) 0.31725(9) -0.07734(8) 0.01475(17) Uani d 1 C
C2 0.41783(9) 0.21135(9) -0.13991(8) 0.01487(17) Uani d 1 C
C2A 0.38294(10) 0.15221(10) -0.24623(8) 0.01865(19) Uani d 1 C
H2A 0.338 0.1794 -0.2923 0.022 Uiso calc 1 H
C2B 0.41553(11) 0.05171(10) -0.28387(8) 0.0212(2) Uani d 1 C
H2B 0.3922 0.0102 -0.3563 0.025 Uiso calc 1 H
C3 0.48630(9) 0.17148(9) -0.07193(8) 0.01447(17) Uani d 1 C
C3A 0.51760(10) 0.07102(9) -0.10975(8) 0.01754(19) Uani d 1 C
H3A 0.5624 0.0433 -0.064 0.021 Uiso calc 1 H
C3B 0.48158(11) 0.01163(10) -0.21682(8) 0.0204(2) Uani d 1 C
H3B 0.5025 -0.057 -0.2441 0.024 Uiso calc 1 H
C4 0.51241(9) 0.25392(9) 0.03389(8) 0.01396(17) Uani d 1 C
C5 0.57834(9) 0.24667(9) 0.12382(8) 0.01420(17) Uani d 1 C
H5 0.6129 0.185 0.1147 0.017 Uiso calc 1 H
C6 0.59940(9) 0.32044(9) 0.22635(8) 0.01334(17) Uani d 1 C
C7 0.69795(9) 0.33440(9) 0.30890(8) 0.01412(17) Uani d 1 C
C7A 0.78654(10) 0.26791(10) 0.29846(9) 0.01849(19) Uani d 1 C
H7A1 0.8367 0.2909 0.249 0.028 Uiso calc 1 H
H7A2 0.7422 0.1832 0.2727 0.028 Uiso calc 1 H
H7A3 0.8387 0.2861 0.3668 0.028 Uiso calc 1 H
C8 0.69938(9) 0.42543(9) 0.39235(8) 0.01370(17) Uani d 1 C
C8A 0.78849(10) 0.48142(10) 0.49444(8) 0.01720(19) Uani d 1 C
H8A1 0.8256 0.4234 0.51 0.021 Uiso calc 1 H
H8A2 0.7446 0.5029 0.5507 0.021 Uiso calc 1 H
C8B 0.88901(11) 0.59133(11) 0.49445(10) 0.0271(2) Uani d 1 C
H8B1 0.9445 0.6242 0.5628 0.041 Uiso calc 1 H
H8B2 0.9341 0.5704 0.44 0.041 Uiso calc 1 H
H8B3 0.853 0.6499 0.4807 0.041 Uiso calc 1 H
C9 0.60050(9) 0.46518(9) 0.36124(7) 0.01284(16) Uani d 1 C
C10 0.57101(9) 0.55983(9) 0.42001(7) 0.01387(17) Uani d 1 C
H10 0.6122 0.5939 0.491 0.017 Uiso calc 1 H
C11 0.48699(9) 0.60893(9) 0.38438(7) 0.01362(17) Uani d 1 C
C12 0.47078(10) 0.71669(9) 0.44148(8) 0.01472(17) Uani d 1 C
C12A 0.54179(11) 0.79212(10) 0.54825(8) 0.01864(19) Uani d 1 C
H12A 0.5427 0.7413 0.5945 0.022 Uiso calc 1 H
H12B 0.5 0.8482 0.5774 0.022 Uiso calc 1 H
C12B 0.67261(12) 0.86136(10) 0.54887(9) 0.0243(2) Uani d 1 C
H12C 0.7138 0.9086 0.6205 0.036 Uiso calc 1 H
H12D 0.7153 0.8064 0.5218 0.036 Uiso calc 1 H
H12E 0.6726 0.9135 0.5046 0.036 Uiso calc 1 H
C13 0.38416(10) 0.73683(9) 0.37762(8) 0.01496(17) Uani d 1 C
C13A 0.33742(10) 0.83967(9) 0.39884(8) 0.01790(19) Uani d 1 C
H13A 0.3291 0.8649 0.3349 0.021 Uiso calc 1 H
H13B 0.3975 0.9063 0.4545 0.021 Uiso calc 1 H
C13B 0.21501(13) 0.81117(11) 0.43249(11) 0.0289(3) Uani d 1 C
H13C 0.1888 0.881 0.4453 0.043 Uiso calc 1 H
H13D 0.1546 0.7465 0.3771 0.043 Uiso calc 1 H
H13E 0.223 0.7878 0.4967 0.043 Uiso calc 1 H
C14 0.34708(9) 0.64154(9) 0.28101(8) 0.01434(17) Uani d 1 C
C15 0.26738(10) 0.64013(9) 0.19406(8) 0.01553(18) Uani d 1 C
H15 0.2187 0.6895 0.2087 0.019 Uiso calc 1 H
C16 0.24930(9) 0.57680(9) 0.08955(8) 0.01460(17) Uani d 1 C
C17 0.16876(9) 0.57816(9) 0.00101(8) 0.01492(17) Uani d 1 C
C17A 0.08546(10) 0.65062(10) 0.00719(9) 0.01840(19) Uani d 1 C
H17A 0.0546 0.6545 0.0729 0.022 Uiso calc 1 H
H17B 0.0149 0.6114 -0.0519 0.022 Uiso calc 1 H
C17B 0.14753(13) 0.77574(11) 0.00389(12) 0.0291(3) Uani d 1 C
H17C 0.0893 0.8192 0.0082 0.044 Uiso calc 1 H
H17D 0.2164 0.8157 0.0631 0.044 Uiso calc 1 H
H17E 0.1767 0.7726 -0.0617 0.044 Uiso calc 1 H
C18 0.18451(10) 0.50273(9) -0.08665(8) 0.01533(18) Uani d 1 C
C18A 0.11736(11) 0.46951(10) -0.19706(8) 0.0209(2) Uani d 1 C
H18A 0.0613 0.5146 -0.2008 0.031 Uiso calc 1 H
H18B 0.0714 0.3851 -0.2204 0.031 Uiso calc 1 H
H18C 0.1755 0.487 -0.2423 0.031 Uiso calc 1 H
C19 0.27535(10) 0.45408(9) -0.05461(8) 0.01488(17) Uani d 1 C
C20 0.31799(10) 0.37153(9) -0.11496(8) 0.01598(18) Uani d 1 C
H20 0.2913 0.3498 -0.1886 0.019 Uiso calc 1 H
H21 0.4781(12) 0.4090(12) 0.0790(11) 0.018(3) Uiso d 1 H
H24 0.3585(13) 0.4910(14) 0.0889(14) 0.031(4) Uiso d 1 H
loop_
_atom_site_aniso_label
_atom_site_aniso_U_11
_atom_site_aniso_U_22
_atom_site_aniso_U_33
_atom_site_aniso_U_12
_atom_site_aniso_U_13
_atom_site_aniso_U_23
Rh1 0.01213(4) 0.01320(4) 0.00982(4) 0.00478(3) 0.00083(2) 0.00181(2)
C21 0.0165(4) 0.0143(4) 0.0105(4) 0.0048(3) 0.0028(3) 0.0009(3)
N22 0.0131(4) 0.0145(4) 0.0100(3) 0.0055(3) 0.0007(3) 0.0007(3)
N23 0.0160(4) 0.0143(4) 0.0096(3) 0.0067(3) 0.0011(3) 0.0012(3)
N24 0.0188(4) 0.0189(4) 0.0098(4) 0.0091(3) 0.0010(3) 0.0037(3)
C25 0.0157(5) 0.0200(5) 0.0231(5) 0.0062(4) 0.0035(4) 0.0055(4)
O26 0.0305(5) 0.0168(4) 0.0522(6) 0.0059(4) 0.0094(4) 0.0056(4)
C27 0.0184(5) 0.0185(5) 0.0143(4) 0.0068(4) 0.0013(4) 0.0042(4)
O28 0.0168(4) 0.0351(5) 0.0307(5) 0.0102(3) 0.0033(3) 0.0115(4)
C1 0.0178(5) 0.0145(4) 0.0105(4) 0.0036(3) 0.0034(3) 0.0025(3)
C2 0.0173(4) 0.0147(4) 0.0109(4) 0.0038(3) 0.0040(3) 0.0017(3)
C2A 0.0233(5) 0.0197(5) 0.0110(4) 0.0059(4) 0.0029(4) 0.0026(4)
C2B 0.0290(6) 0.0204(5) 0.0109(4) 0.0072(4) 0.0047(4) -0.0006(4)
C3 0.0160(4) 0.0148(4) 0.0106(4) 0.0038(3) 0.0034(3) 0.0012(3)
C3A 0.0206(5) 0.0172(4) 0.0142(4) 0.0065(4) 0.0049(4) 0.0023(4)
C3B 0.0279(6) 0.0176(5) 0.0144(4) 0.0087(4) 0.0063(4) -0.0001(4)
C4 0.0143(4) 0.0145(4) 0.0108(4) 0.0037(3) 0.0029(3) 0.0008(3)
C5 0.0143(4) 0.0147(4) 0.0130(4) 0.0060(3) 0.0029(3) 0.0015(3)
C6 0.0130(4) 0.0144(4) 0.0120(4) 0.0051(3) 0.0019(3) 0.0023(3)
C7 0.0134(4) 0.0159(4) 0.0129(4) 0.0055(3) 0.0017(3) 0.0035(3)
C7A 0.0163(5) 0.0213(5) 0.0183(5) 0.0098(4) 0.0013(4) 0.0032(4)
C8 0.0131(4) 0.0154(4) 0.0117(4) 0.0047(3) 0.0007(3) 0.0031(3)
C8A 0.0170(5) 0.0203(5) 0.0125(4) 0.0069(4) -0.0012(3) 0.0024(4)
C8B 0.0206(5) 0.0277(6) 0.0234(5) -0.0001(4) -0.0042(4) 0.0038(5)
C9 0.0137(4) 0.0141(4) 0.0097(4) 0.0044(3) 0.0011(3) 0.0023(3)
C10 0.0159(4) 0.0148(4) 0.0095(4) 0.0049(3) 0.0014(3) 0.0017(3)
C11 0.0163(4) 0.0146(4) 0.0095(4) 0.0055(3) 0.0023(3) 0.0022(3)
C12 0.0183(5) 0.0152(4) 0.0101(4) 0.0066(4) 0.0028(3) 0.0015(3)
C12A 0.0254(5) 0.0175(5) 0.0105(4) 0.0085(4) 0.0002(4) -0.0007(3)
C12B 0.0277(6) 0.0165(5) 0.0218(5) 0.0038(4) -0.0025(4) 0.0012(4)
C13 0.0191(5) 0.0146(4) 0.0117(4) 0.0073(4) 0.0037(3) 0.0025(3)
C13A 0.0234(5) 0.0156(4) 0.0159(4) 0.0096(4) 0.0043(4) 0.0029(4)
C13B 0.0317(6) 0.0239(6) 0.0385(7) 0.0160(5) 0.0169(5) 0.0093(5)
C14 0.0164(4) 0.0154(4) 0.0116(4) 0.0070(3) 0.0030(3) 0.0026(3)
C15 0.0171(4) 0.0176(4) 0.0136(4) 0.0086(4) 0.0029(3) 0.0042(3)
C16 0.0157(4) 0.0161(4) 0.0122(4) 0.0056(3) 0.0017(3) 0.0044(3)
C17 0.0151(4) 0.0156(4) 0.0139(4) 0.0043(3) 0.0012(3) 0.0058(3)
C17A 0.0175(5) 0.0222(5) 0.0178(5) 0.0086(4) 0.0022(4) 0.0078(4)
C17B 0.0319(7) 0.0242(6) 0.0396(7) 0.0144(5) 0.0130(5) 0.0156(5)
C18 0.0168(4) 0.0155(4) 0.0124(4) 0.0031(3) 0.0004(3) 0.0054(3)
C18A 0.0251(5) 0.0224(5) 0.0132(4) 0.0072(4) -0.0019(4) 0.0051(4)
C19 0.0185(5) 0.0152(4) 0.0101(4) 0.0043(4) 0.0016(3) 0.0044(3)
C20 0.0208(5) 0.0160(4) 0.0098(4) 0.0047(4) 0.0022(3) 0.0032(3)
loop_
_atom_type_symbol
_atom_type_description
_atom_type_scat_dispersion_real
_atom_type_scat_dispersion_imag
_atom_type_scat_source
C C 0.0033 0.0016 'International Tables Vol C Tables 4.2.6.8 and 6.1.1.4'
H H 0 0 'International Tables Vol C Tables 4.2.6.8 and 6.1.1.4'
N N 0.0061 0.0033 'International Tables Vol C Tables 4.2.6.8 and 6.1.1.4'
O O 0.0106 0.006 'International Tables Vol C Tables 4.2.6.8 and 6.1.1.4'
Rh Rh -1.1178 0.9187 'International Tables Vol C Tables 4.2.6.8 and 6.1.1.4'
loop_
_geom_angle_atom_site_label_1
_geom_angle_atom_site_label_2
_geom_angle_atom_site_label_3
_geom_angle
C27 Rh1 C25 89.79(5)
C27 Rh1 N22 173.99(4)
C25 Rh1 N22 91.86(4)
C27 Rh1 N23 92.25(4)
C25 Rh1 N23 177.11(4)
N22 Rh1 N23 85.90(3)
C1 C21 C4 111.24(9)
C1 C21 H21 127.5(8)
C4 C21 H21 120.6(8)
C9 N22 C6 106.74(8)
C9 N22 Rh1 114.38(6)
C6 N22 Rh1 130.33(7)
C14 N23 C11 106.33(8)
C14 N23 Rh1 131.39(7)
C11 N23 Rh1 112.86(6)
C16 N24 C19 111.42(9)
C16 N24 H24 120.8(11)
C19 N24 H24 127.7(11)
O26 C25 Rh1 178.55(11)
O28 C27 Rh1 176.78(10)
C20 C1 C21 129.03(9)
C20 C1 C2 124.45(9)
C21 C1 C2 106.21(9)
C2A C2 C3 120.55(10)
C2A C2 C1 131.28(10)
C3 C2 C1 108.17(8)
C2 C2A C2B 118.49(10)
C2 C2A H2A 120.8
C2B C2A H2A 120.8
C3B C2B C2A 120.98(10)
C3B C2B H2B 119.5
C2A C2B H2B 119.5
C3A C3 C2 120.65(9)
C3A C3 C4 131.64(10)
C2 C3 C4 107.70(9)
C3 C3A C3B 118.43(10)
C3 C3A H3A 120.8
C3B C3A H3A 120.8
C2B C3B C3A 120.90(10)
C2B C3B H3B 119.6
C3A C3B H3B 119.6
C5 C4 C21 127.41(9)
C5 C4 C3 126.08(9)
C21 C4 C3 106.50(9)
C4 C5 C6 127.25(9)
C4 C5 H5 116.4
C6 C5 H5 116.4
N22 C6 C5 126.20(9)
N22 C6 C7 109.34(8)
C5 C6 C7 124.13(9)
C8 C7 C6 107.06(9)
C8 C7 C7A 127.95(9)
C6 C7 C7A 124.76(9)
C7 C7A H7A1 109.5
C7 C7A H7A2 109.5
H7A1 C7A H7A2 109.5
C7 C7A H7A3 109.5
H7A1 C7A H7A3 109.5
H7A2 C7A H7A3 109.5
C7 C8 C9 106.59(8)
C7 C8 C8A 128.86(9)
C9 C8 C8A 124.43(9)
C8 C8A C8B 112.86(9)
C8 C8A H8A1 109
C8B C8A H8A1 109
C8 C8A H8A2 109
C8B C8A H8A2 109
H8A1 C8A H8A2 107.8
C8A C8B H8B1 109.5
C8A C8B H8B2 109.5
H8B1 C8B H8B2 109.5
C8A C8B H8B3 109.5
H8B1 C8B H8B3 109.5
H8B2 C8B H8B3 109.5
N22 C9 C10 123.39(9)
N22 C9 C8 110.18(8)
C10 C9 C8 126.38(9)
C11 C10 C9 126.20(9)
C11 C10 H10 116.9
C9 C10 H10 116.9
N23 C11 C10 124.84(9)
N23 C11 C12 110.06(9)
C10 C11 C12 125.06(9)
C13 C12 C11 106.72(9)
C13 C12 C12A 128.32(9)
C11 C12 C12A 124.91(9)
C12 C12A C12B 113.53(9)
C12 C12A H12A 108.9
C12B C12A H12A 108.9
C12 C12A H12B 108.9
C12B C12A H12B 108.9
H12A C12A H12B 107.7
C12A C12B H12C 109.5
C12A C12B H12D 109.5
H12C C12B H12D 109.5
C12A C12B H12E 109.5
H12C C12B H12E 109.5
H12D C12B H12E 109.5
C12 C13 C14 107.28(9)
C12 C13 C13A 127.86(9)
C14 C13 C13A 124.81(9)
C13 C13A C13B 112.82(9)
C13 C13A H13A 109
C13B C13A H13A 109
C13 C13A H13B 109
C13B C13A H13B 109
H13A C13A H13B 107.8
C13A C13B H13C 109.5
C13A C13B H13D 109.5
H13C C13B H13D 109.5
C13A C13B H13E 109.5
H13C C13B H13E 109.5
H13D C13B H13E 109.5
N23 C14 C15 127.76(9)
N23 C14 C13 109.59(8)
C15 C14 C13 122.42(9)
C16 C15 C14 129.33(10)
C16 C15 H15 115.3
C14 C15 H15 115.3
N24 C16 C15 124.62(9)
N24 C16 C17 106.78(9)
C15 C16 C17 128.58(10)
C18 C17 C16 107.40(9)
C18 C17 C17A 128.21(9)
C16 C17 C17A 124.39(9)
C17 C17A C17B 112.77(9)
C17 C17A H17A 109
C17B C17A H17A 109
C17 C17A H17B 109
C17B C17A H17B 109
H17A C17A H17B 107.8
C17A C17B H17C 109.5
C17A C17B H17D 109.5
H17C C17B H17D 109.5
C17A C17B H17E 109.5
H17C C17B H17E 109.5
H17D C17B H17E 109.5
C17 C18 C19 108.36(9)
C17 C18 C18A 127.93(10)
C19 C18 C18A 123.66(10)
C18 C18A H18A 109.5
C18 C18A H18B 109.5
H18A C18A H18B 109.5
C18 C18A H18C 109.5
H18A C18A H18C 109.5
H18B C18A H18C 109.5
N24 C19 C20 124.98(9)
N24 C19 C18 106.04(9)
C20 C19 C18 128.91(9)
C19 C20 C1 126.13(9)
C19 C20 H20 116.9
C1 C20 H20 116.9
loop_
_geom_bond_atom_site_label_1
_geom_bond_atom_site_label_2
_geom_bond_distance
Rh1 C27 1.8536(11)
Rh1 C25 1.8635(11)
Rh1 N22 2.0846(9)
Rh1 N23 2.0920(9)
C21 C1 1.4053(14)
C21 C4 1.4098(14)
C21 H21 0.914(14)
N22 C9 1.3756(12)
N22 C6 1.3814(13)
N23 C14 1.3814(13)
N23 C11 1.3859(12)
N24 C16 1.3666(13)
N24 C19 1.3738(12)
N24 H24 0.768(14)
C25 O26 1.1358(14)
C27 O28 1.1372(14)
C1 C20 1.4038(15)
C1 C2 1.4762(14)
C2 C2A 1.3900(14)
C2 C3 1.4143(14)
C2A C2B 1.3986(16)
C2A H2A 0.95
C2B C3B 1.3910(16)
C2B H2B 0.95
C3 C3A 1.3901(14)
C3 C4 1.4743(13)
C3A C3B 1.3998(14)
C3A H3A 0.95
C3B H3B 0.95
C4 C5 1.3948(14)
C5 C6 1.4055(13)
C5 H5 0.95
C6 C7 1.4460(13)
C7 C8 1.3772(14)
C7 C7A 1.4957(14)
C7A H7A1 0.98
C7A H7A2 0.98
C7A H7A3 0.98
C8 C9 1.4389(14)
C8 C8A 1.4988(14)
C8A C8B 1.5262(17)
C8A H8A1 0.99
C8A H8A2 0.99
C8B H8B1 0.98
C8B H8B2 0.98
C8B H8B3 0.98
C9 C10 1.3991(14)
C10 C11 1.3931(14)
C10 H10 0.95
C11 C12 1.4427(14)
C12 C13 1.3698(14)
C12 C12A 1.5007(14)
C12A C12B 1.5273(17)
C12A H12A 0.99
C12A H12B 0.99
C12B H12C 0.98
C12B H12D 0.98
C12B H12E 0.98
C13 C14 1.4480(14)
C13 C13A 1.5020(14)
C13A C13B 1.5270(17)
C13A H13A 0.99
C13A H13B 0.99
C13B H13C 0.98
C13B H13D 0.98
C13B H13E 0.98
C14 C15 1.4029(14)
C15 C16 1.3912(14)
C15 H15 0.95
C16 C17 1.4382(14)
C17 C18 1.3813(14)
C17 C17A 1.4977(15)
C17A C17B 1.5271(17)
C17A H17A 0.99
C17A H17B 0.99
C17B H17C 0.98
C17B H17D 0.98
C17B H17E 0.98
C18 C19 1.4371(14)
C18 C18A 1.4973(14)
C18A H18A 0.98
C18A H18B 0.98
C18A H18C 0.98
C19 C20 1.3899(14)
C20 H20 0.95
loop_
_geom_hbond_atom_site_label_D
_geom_hbond_atom_site_label_H
_geom_hbond_atom_site_label_A
_geom_hbond_distance_DH
_geom_hbond_distance_HA
_geom_hbond_distance_DA
_geom_hbond_angle_DHA
N24 H24 N23 0.768(14) 2.539(17) 3.0695(12) 127.7(12)
loop_
_geom_torsion_atom_site_label_1
_geom_torsion_atom_site_label_2
_geom_torsion_atom_site_label_3
_geom_torsion_atom_site_label_4
_geom_torsion
C4 C21 C1 C20 169.43(10)
C4 C21 C1 C2 -4.38(12)
C20 C1 C2 C2A 9.77(18)
C21 C1 C2 C2A -176.06(11)
C20 C1 C2 C3 -170.51(10)
C21 C1 C2 C3 3.66(11)
C3 C2 C2A C2B 0.94(16)
C1 C2 C2A C2B -179.37(11)
C2 C2A C2B C3B -0.14(17)
C2A C2 C3 C3A -1.44(16)
C1 C2 C3 C3A 178.80(9)
C2A C2 C3 C4 178.09(9)
C1 C2 C3 C4 -1.66(11)
C2 C3 C3A C3B 1.10(16)
C4 C3 C3A C3B -178.31(11)
C2A C2B C3B C3A -0.18(18)
C3 C3A C3B C2B -0.30(17)
C1 C21 C4 C5 -177.90(10)
C1 C21 C4 C3 3.39(12)
C3A C3 C4 C5 -0.22(18)
C2 C3 C4 C5 -179.69(10)
C3A C3 C4 C21 178.51(11)
C2 C3 C4 C21 -0.95(11)
C21 C4 C5 C6 4.98(18)
C3 C4 C5 C6 -176.55(10)
C9 N22 C6 C5 -170.87(10)
Rh1 N22 C6 C5 43.97(15)
C9 N22 C6 C7 2.83(11)
Rh1 N22 C6 C7 -142.34(8)
C4 C5 C6 N22 14.08(17)
C4 C5 C6 C7 -158.73(10)
N22 C6 C7 C8 -2.45(12)
C5 C6 C7 C8 171.40(10)
N22 C6 C7 C7A -177.34(10)
C5 C6 C7 C7A -3.49(16)
C6 C7 C8 C9 1.06(11)
C7A C7 C8 C9 175.74(10)
C6 C7 C8 C8A -175.14(10)
C7A C7 C8 C8A -0.47(18)
C7 C8 C8A C8B 94.82(13)
C9 C8 C8A C8B -80.77(13)
C6 N22 C9 C10 175.56(9)
Rh1 N22 C9 C10 -33.00(12)
C6 N22 C9 C8 -2.17(11)
Rh1 N22 C9 C8 149.26(7)
C7 C8 C9 N22 0.66(12)
C8A C8 C9 N22 177.08(9)
C7 C8 C9 C10 -176.99(10)
C8A C8 C9 C10 -0.57(16)
N22 C9 C10 C11 -7.39(17)
C8 C9 C10 C11 169.97(10)
C14 N23 C11 C10 -176.56(10)
Rh1 N23 C11 C10 32.83(12)
C14 N23 C11 C12 1.42(11)
Rh1 N23 C11 C12 -149.19(7)
C9 C10 C11 N23 7.19(17)
C9 C10 C11 C12 -170.49(10)
N23 C11 C12 C13 -0.82(12)
C10 C11 C12 C13 177.16(10)
N23 C11 C12 C12A -178.21(10)
C10 C11 C12 C12A -0.24(17)
C13 C12 C12A C12B -103.72(13)
C11 C12 C12A C12B 73.10(13)
C11 C12 C13 C14 -0.10(12)
C12A C12 C13 C14 177.17(10)
C11 C12 C13 C13A -177.79(10)
C12A C12 C13 C13A -0.51(19)
C12 C13 C13A C13B -100.86(14)
C14 C13 C13A C13B 81.82(13)
C11 N23 C14 C15 173.06(10)
Rh1 N23 C14 C15 -44.01(15)
C11 N23 C14 C13 -1.47(11)
Rh1 N23 C14 C13 141.46(8)
C12 C13 C14 N23 0.99(12)
C13A C13 C14 N23 178.77(10)
C12 C13 C14 C15 -173.89(10)
C13A C13 C14 C15 3.89(16)
N23 C14 C15 C16 -14.06(19)
C13 C14 C15 C16 159.84(11)
C19 N24 C16 C15 -178.44(10)
C19 N24 C16 C17 0.15(12)
C14 C15 C16 N24 -0.39(18)
C14 C15 C16 C17 -178.66(11)
N24 C16 C17 C18 0.22(12)
C15 C16 C17 C18 178.73(11)
N24 C16 C17 C17A -179.40(10)
C15 C16 C17 C17A -0.88(17)
C18 C17 C17A C17B -93.83(14)
C16 C17 C17A C17B 85.70(13)
C16 C17 C18 C19 -0.48(12)
C17A C17 C18 C19 179.11(10)
C16 C17 C18 C18A 176.85(10)
C17A C17 C18 C18A -3.55(18)
C16 N24 C19 C20 -177.67(10)
C16 N24 C19 C18 -0.44(12)
C17 C18 C19 N24 0.57(12)
C18A C18 C19 N24 -176.91(10)
C17 C18 C19 C20 177.65(10)
C18A C18 C19 C20 0.18(17)
N24 C19 C20 C1 4.46(17)
C18 C19 C20 C1 -172.12(10)
C21 C1 C20 C19 -7.69(18)
C2 C1 C20 C19 165.10(10)
