#------------------------------------------------------------------------------
#$Date: 2018-10-12 17:09:45 +0300 (Fri, 12 Oct 2018) $
#$Revision: 211413 $
#$URL: file:///home/coder/svn-repositories/cod/cif/7/04/05/7040586.cif $
#------------------------------------------------------------------------------
#
# This file is available in the Crystallography Open Database (COD),
# http://www.crystallography.net/
#
# All data on this site have been placed in the public domain by the
# contributors.
#
data_7040586
loop_
_publ_author_name
'Chahal, Mandeep K.'
'Sankar, Muniappan'
_publ_section_title
;
 Switching between porphyrin, porphodimethene and porphyrinogen using
 cyanide and fluoride ions mimicking volatile molecular memory and the
 'NOR' logic gate.
;
_journal_issue                   41
_journal_name_full
'Dalton transactions (Cambridge, England : 2003)'
_journal_page_first              16404
_journal_page_last               16412
_journal_paper_doi               10.1039/c6dt02506d
_journal_volume                  45
_journal_year                    2016
_chemical_formula_moiety         'C77 H91 Cu N4 O5, C6 H14'
_chemical_formula_sum            'C83 H105 Cu N4 O5'
_chemical_formula_weight         1302.24
_chemical_name_common
'Cu(II) Complex of 2-Formyl-meso-tetrakis(3,5-ditertbutyl-4-hydroxyphenyl)porphyrin'
_chemical_name_systematic
'2-Formyl-meso-tetrakis(3,5-ditertbutyl-4-hydroxyphenyl)porphyrinatocopper(II)'
_chemical_properties_physical    ', Heat-sensitive'
_space_group_crystal_system      triclinic
_space_group_IT_number           2
_space_group_name_Hall           '-P 1'
_space_group_name_H-M_alt        'P -1'
_symmetry_space_group_name_Hall  '-P 1'
_symmetry_space_group_name_H-M   'P -1'
_atom_sites_solution_hydrogens   mixed
_atom_sites_solution_primary     direct
_atom_sites_solution_secondary   difmap
_audit_block_doi                 10.5517/cc1kqmb7
_audit_creation_method           SHELXL-2014/7
_audit_update_record
;
2016-08-25 deposited with the CCDC.
2016-09-05 downloaded from the CCDC.
;
_cell_angle_alpha                70.078(2)
_cell_angle_beta                 76.389(2)
_cell_angle_gamma                68.533(2)
_cell_formula_units_Z            1
_cell_length_a                   10.8479(4)
_cell_length_b                   14.6207(5)
_cell_length_c                   15.9745(5)
_cell_measurement_reflns_used    25
_cell_measurement_temperature    200(2)
_cell_measurement_theta_max      28.4
_cell_measurement_theta_min      1.4
_cell_volume                     2198.96(14)
_computing_data_collection       'Collect, Enraf-Nonius'
_computing_structure_refinement  'SHELXL-2014/7 (Sheldrick, 2015)'
_diffrn_ambient_temperature      200(2)
_diffrn_measured_fraction_theta_full 0.995
_diffrn_measured_fraction_theta_max 0.990
_diffrn_measurement_device_type  'Nonius KappaCCD'
_diffrn_radiation_type           MoK\a
_diffrn_radiation_wavelength     0.71073
_diffrn_reflns_av_R_equivalents  0.0401
_diffrn_reflns_av_unetI/netI     0.0651
_diffrn_reflns_Laue_measured_fraction_full 0.995
_diffrn_reflns_Laue_measured_fraction_max 0.990
_diffrn_reflns_limit_h_max       14
_diffrn_reflns_limit_h_min       -8
_diffrn_reflns_limit_k_max       19
_diffrn_reflns_limit_k_min       -19
_diffrn_reflns_limit_l_max       21
_diffrn_reflns_limit_l_min       -21
_diffrn_reflns_number            36424
_diffrn_reflns_point_group_measured_fraction_full 0.995
_diffrn_reflns_point_group_measured_fraction_max 0.990
_diffrn_reflns_theta_full        25.242
_diffrn_reflns_theta_max         28.385
_diffrn_reflns_theta_min         2.133
_diffrn_source                   'sealed tube'
_exptl_absorpt_coefficient_mu    0.293
_exptl_absorpt_correction_T_max  0.941
_exptl_absorpt_correction_T_min  0.933
_exptl_absorpt_correction_type   psi-scan
_exptl_absorpt_process_details   'Enraf-Nonius software'
_exptl_crystal_colour            red
_exptl_crystal_density_diffrn    0.983
_exptl_crystal_density_method    'not measured'
_exptl_crystal_description       needle
_exptl_crystal_F_000             700
_exptl_crystal_size_max          0.240
_exptl_crystal_size_mid          0.230
_exptl_crystal_size_min          0.210
_platon_squeeze_details
;
Disordered molecule of n-haxane
;
_refine_diff_density_max         0.482
_refine_diff_density_min         -0.403
_refine_diff_density_rms         0.050
_refine_ls_extinction_method     none
_refine_ls_goodness_of_fit_ref   1.016
_refine_ls_hydrogen_treatment    constr
_refine_ls_matrix_type           full
_refine_ls_number_parameters     403
_refine_ls_number_reflns         10936
_refine_ls_number_restraints     0
_refine_ls_restrained_S_all      1.016
_refine_ls_R_factor_all          0.1049
_refine_ls_R_factor_gt           0.0568
_refine_ls_shift/su_max          0.000
_refine_ls_shift/su_mean         0.000
_refine_ls_structure_factor_coef Fsqd
_refine_ls_weighting_details
'w=1/[\s^2^(Fo^2^)+(0.1000P)^2^] where P=(Fo^2^+2Fc^2^)/3'
_refine_ls_weighting_scheme      calc
_refine_ls_wR_factor_gt          0.1609
_refine_ls_wR_factor_ref         0.1840
_reflns_Friedel_coverage         0.000
_reflns_number_gt                6457
_reflns_number_total             10936
_reflns_threshold_expression     'I > 2\s(I)'
_cod_data_source_file            c6dt02506d2.cif
_cod_data_source_block           sanc-sq
_cod_depositor_comments          'Adding full bibliography for 7040586.cif.'
_cod_original_cell_volume        2198.97(14)
_cod_database_code               7040586
_shelx_shelxl_version_number     2014/7
_shelx_space_group_comment
;
The symmetry employed for this shelxl refinement is uniquely defined
by the following loop, which should always be used as a source of
symmetry information in preference to the above space-group names.
They are only intended as comments.
;
_shelx_estimated_absorpt_t_min   0.933
_shelx_estimated_absorpt_t_max   0.941
_platon_squeeze_void_probe_radius 1.20
_shelx_res_file
;

    sanc_sq.res created by SHELXL-2014/7


TITL UPS2591MS_MK_Cu_CHO_0m in P1     New: P-1
CELL  0.71073   10.8479   14.6207   15.9745    70.078    76.389    68.533
ZERR        1    0.0004    0.0005    0.0005     0.002     0.002     0.002
LATT   1
SFAC  C  H Cu  N  O
UNIT    83 105  1 4 5
TEMP -200
L.S. 5 0  101
FMAP 2
PLAN -20
ACTA
BOND $H
omit 1 1 2
omit 1 0 2
omit 0 -1 1
omit 0 0 1
omit 0 1 1
omit 1 2 0
omit 4 3 3
omit 0 1 2
omit 0 2 1
ABIN
WGHT    0.100000
FVAR       0.16976
CU1   3    0.500000    0.500000    0.500000    10.50000    0.04372    0.03698 =
         0.04360   -0.00133   -0.01004   -0.01981
O1    5    0.261144    0.395070    1.101180    11.00000    0.17514    0.11172 =
         0.03957   -0.00625    0.00150   -0.02623
AFIX   3
H1    2    0.293125    0.357838    1.149678    11.00000   -1.20000
AFIX   0
O2    5    0.062358    0.076949    0.498251    11.00000    0.07822    0.06758 =
         0.09814   -0.01218   -0.02891   -0.04647
AFIX   3
H2    2   -0.006411    0.090524    0.474534    11.00000   -1.50000
AFIX   0
N1    4    0.395371    0.417629    0.595137    11.00000    0.04808    0.03949 =
         0.04266   -0.00303   -0.00990   -0.02093
N2    4    0.521671    0.557596    0.590739    11.00000    0.04701    0.03726 =
         0.04364   -0.00021   -0.01145   -0.01986
C1    1    0.332629    0.356971    0.583866    11.00000    0.04775    0.03918 =
         0.04780   -0.00035   -0.01020   -0.02352
C2    1    0.254986    0.320057    0.666744    11.00000    0.06276    0.05410 =
         0.05740   -0.00384   -0.00609   -0.03622
AFIX  43
H4    2    0.201095    0.277894    0.676338    11.00000   -1.20000
AFIX   0
C3    1    0.273276    0.356546    0.727757    11.00000    0.06781    0.05843 =
         0.04859   -0.00684   -0.00021   -0.03783
AFIX  43
H3    2    0.234994    0.344508    0.788886    11.00000   -1.20000
AFIX   0
C4    1    0.360723    0.416824    0.684331    11.00000    0.04920    0.04391 =
         0.04387   -0.00362   -0.00607   -0.02260
C5    1    0.400719    0.468490    0.726591    11.00000    0.05099    0.03945 =
         0.04478   -0.00230   -0.01000   -0.01829
C6    1    0.362520    0.450880    0.825949    11.00000    0.05734    0.05164 =
         0.04285   -0.00646   -0.00581   -0.02536
C7    1    0.404521    0.352441    0.883243    11.00000    0.06804    0.04974 =
         0.05260   -0.00787   -0.00728   -0.02229
AFIX  43
H7    2    0.458176    0.298084    0.857991    11.00000   -1.20000
AFIX   0
C8    1    0.371480    0.330364    0.975392    11.00000    0.08172    0.05658 =
         0.04778   -0.00105   -0.01108   -0.02407
C9    1    0.413816    0.218907    1.034764    11.00000    0.12851    0.06818 =
         0.05671    0.00993   -0.01593   -0.02984
C10   1    0.493643    0.144552    0.979623    11.00000    0.19762    0.05256 =
         0.09852    0.01162   -0.01674   -0.01042
AFIX   3
H10A  2    0.572026    0.164073    0.944839    11.00000   -1.50000
H10B  2    0.437616    0.146500    0.938652    11.00000   -1.50000
H10C  2    0.522688    0.075094    1.019895    11.00000   -1.50000
AFIX   0
C11   1    0.286764    0.188414    1.082632    11.00000    0.19121    0.09570 =
         0.11628    0.02757    0.01267   -0.07367
AFIX   3
H11A  2    0.312596    0.118918    1.123298    11.00000   -1.50000
H11B  2    0.237049    0.190601    1.037722    11.00000   -1.50000
H11C  2    0.230352    0.236426    1.117079    11.00000   -1.50000
AFIX   0
C12   1    0.503429    0.204085    1.101037    11.00000    0.21679    0.10686 =
         0.12350    0.02258   -0.10103   -0.03304
AFIX   3
H12A  2    0.518018    0.135214    1.142893    11.00000   -1.50000
H12B  2    0.460773    0.255162    1.134506    11.00000   -1.50000
H12C  2    0.589374    0.212083    1.068859    11.00000   -1.50000
AFIX   0
C13   1    0.298272    0.412111    1.009266    11.00000    0.09037    0.08157 =
         0.04099   -0.00823   -0.00439   -0.03011
C14   1    0.254296    0.514164    0.955190    11.00000    0.07277    0.06741 =
         0.05027   -0.01319   -0.00535   -0.02476
C15   1    0.286598    0.529222    0.862849    11.00000    0.06228    0.05079 =
         0.04958   -0.00701   -0.01029   -0.02140
AFIX  43
H15   2    0.254865    0.596222    0.824015    11.00000   -1.20000
AFIX   0
C16   1    0.177048    0.605226    0.995749    11.00000    0.11106    0.07920 =
         0.06842   -0.02965   -0.00417   -0.01934
C17   1    0.041354    0.594189    1.050164    11.00000    0.12139    0.12160 =
         0.12176   -0.05456    0.02615   -0.02353
AFIX   3
H17A  2    0.057590    0.532889    1.101615    11.00000   -1.50000
H17B  2   -0.011755    0.588243    1.011551    11.00000   -1.50000
H17C  2   -0.007310    0.654812    1.071574    11.00000   -1.50000
AFIX   0
C18   1    0.260833    0.613162    1.055862    11.00000    0.17747    0.13003 =
         0.09974   -0.05638   -0.04287   -0.04181
AFIX   3
H18A  2    0.351353    0.608273    1.024652    11.00000   -1.50000
H18B  2    0.264850    0.557281    1.111688    11.00000   -1.50000
H18C  2    0.220276    0.679036    1.069782    11.00000   -1.50000
AFIX   0
C19   1    0.145221    0.707906    0.920574    11.00000    0.15927    0.06882 =
         0.09265   -0.03300   -0.02470   -0.00738
AFIX   3
H19A  2    0.087706    0.706736    0.882196    11.00000   -1.50000
H19B  2    0.228463    0.717437    0.884398    11.00000   -1.50000
H19C  2    0.099187    0.764491    0.947634    11.00000   -1.50000
AFIX   0
C20   1    0.474882    0.535562    0.681868    11.00000    0.04792    0.04105 =
         0.04451   -0.00250   -0.01349   -0.01608
C21   1    0.514046    0.591110    0.723247    11.00000    0.05967    0.05281 =
         0.04789   -0.00892   -0.01427   -0.02575
AFIX  43
H21   2    0.496443    0.587651    0.785201    11.00000   -1.20000
AFIX   0
C22   1    0.580742    0.649591    0.658454    11.00000    0.05896    0.04634 =
         0.05440   -0.01129   -0.01347   -0.02350
C23   1    0.588285    0.627231    0.576509    11.00000    0.04499    0.03535 =
         0.04956   -0.00424   -0.01271   -0.01647
C24   1    0.340614    0.333586    0.505312    11.00000    0.04472    0.03393 =
         0.05378   -0.00087   -0.01657   -0.01716
C25   1    0.265046    0.265565    0.505511    11.00000    0.05091    0.04175 =
         0.05222   -0.00329   -0.01143   -0.02559
C26   1    0.164614    0.302646    0.451463    11.00000    0.05747    0.04479 =
         0.05952    0.00128   -0.01941   -0.02514
AFIX  43
H26   2    0.141065    0.372640    0.417488    11.00000   -1.20000
AFIX   0
C27   1    0.097046    0.241442    0.445039    11.00000    0.05208    0.05414 =
         0.05656   -0.00367   -0.01814   -0.02545
C28   1   -0.005575    0.284809    0.376513    11.00000    0.07595    0.06608 =
         0.07496    0.00343   -0.03676   -0.03509
C29   1   -0.146896    0.286528    0.426192    11.00000    0.06782    0.10246 =
         0.14524   -0.00453   -0.05006   -0.03149
AFIX   3
H29A  2   -0.211103    0.316485    0.382540    11.00000   -1.50000
H29B  2   -0.171952    0.327926    0.468174    11.00000   -1.50000
H29C  2   -0.147176    0.216536    0.459431    11.00000   -1.50000
AFIX   0
C30   1   -0.015788    0.395760    0.322947    11.00000    0.12086    0.07978 =
         0.11850    0.02794   -0.08251   -0.04636
AFIX   3
H30A  2    0.071843    0.399140    0.290432    11.00000   -1.50000
H30B  2   -0.045604    0.438431    0.364205    11.00000   -1.50000
H30C  2   -0.080257    0.420795    0.280029    11.00000   -1.50000
AFIX   0
C31   1    0.037914    0.220657    0.310835    11.00000    0.14870    0.10741 =
         0.08488   -0.01455   -0.05518   -0.04974
AFIX   3
H31A  2   -0.023813    0.250654    0.265569    11.00000   -1.50000
H31B  2    0.037299    0.150558    0.343267    11.00000   -1.50000
H31C  2    0.128308    0.219563    0.281291    11.00000   -1.50000
AFIX   0
C32   1    0.129868    0.140754    0.499019    11.00000    0.05576    0.05061 =
         0.05850   -0.00725   -0.01206   -0.02963
C33   1    0.230086    0.098975    0.556136    11.00000    0.05564    0.04236 =
         0.05475   -0.00460   -0.00974   -0.02645
C34   1    0.268035   -0.012719    0.612999    11.00000    0.08146    0.04918 =
         0.07478    0.00545   -0.02907   -0.03510
C35   1    0.382822   -0.038436    0.666845    11.00000    0.12915    0.05689 =
         0.12525    0.03058   -0.07880   -0.04238
AFIX   3
H35A  2    0.463106   -0.030645    0.625342    11.00000   -1.50000
H35B  2    0.401213   -0.109189    0.705255    11.00000   -1.50000
H35C  2    0.357113    0.008263    0.704216    11.00000   -1.50000
AFIX   0
C36   1    0.147422   -0.032655    0.681757    11.00000    0.13315    0.08621 =
         0.08306    0.01827   -0.01479   -0.06972
AFIX   3
H36A  2    0.115323    0.016846    0.716890    11.00000   -1.50000
H36B  2    0.174768   -0.102269    0.722028    11.00000   -1.50000
H36C  2    0.075706   -0.025174    0.649991    11.00000   -1.50000
AFIX   0
C37   1    0.318190   -0.085791    0.552868    11.00000    0.10117    0.04973 =
         0.13092   -0.01959   -0.03768   -0.01919
AFIX   3
H37A  2    0.344629   -0.156910    0.590367    11.00000   -1.50000
H37B  2    0.395177   -0.071876    0.510579    11.00000   -1.50000
H37C  2    0.246550   -0.074857    0.519463    11.00000   -1.50000
AFIX   0
C38   1    0.296874    0.164787    0.556111    11.00000    0.05288    0.04758 =
         0.05027   -0.00449   -0.01402   -0.02417
AFIX  43
H38   2    0.366815    0.138836    0.592422    11.00000   -1.20000
AFIX   0
O5    5    0.363415    0.273809    0.259884    10.50000    0.21022    0.19598 =
         0.10947   -0.05623   -0.04009   -0.07962
C61   1    0.383786    0.275450    0.332941    10.50000    0.10100    0.12856 =
         0.05908   -0.02196   -0.01358   -0.04143
AFIX  43
H61   2    0.373749    0.221171    0.384906    10.50000   -1.20000
AFIX   0
HKLF 4

REM  UPS2591MS_MK_Cu_CHO_0m in P1     New: P-1
REM R1 =  0.0568 for    6457 Fo > 4sig(Fo)  and  0.1049 for all   10936 data
REM    403 parameters refined using      0 restraints

END

WGHT      0.1052      0.0000

REM Highest difference peak  0.482,  deepest hole -0.403,  1-sigma level  0.050
Q1    1   0.5403  0.6235  0.8350  11.00000  0.05    0.48
Q2    1   0.1949  0.3356  0.8109  11.00000  0.05    0.46
Q3    1   0.5214  0.5644  0.8094  11.00000  0.05    0.38
Q4    1   0.1678  0.2922  0.8317  11.00000  0.05    0.30
Q5    1   0.2744  0.4142  1.0352  11.00000  0.05    0.24
Q6    1   0.0591  0.2535  0.4161  11.00000  0.05    0.22
Q7    1   0.1112  0.1507  0.3290  11.00000  0.05    0.22
Q8    1   0.0490  0.2620  0.4337  11.00000  0.05    0.21
Q9    1   0.1375  0.2878  0.6938  11.00000  0.05    0.21
Q10   1  -0.0344  0.2624  0.4181  11.00000  0.05    0.21
Q11   1   0.1010  0.3743  0.2805  11.00000  0.05    0.21
Q12   1   0.0244  0.3497  0.3118  11.00000  0.05    0.20
Q13   1   0.4873  0.0690  1.0318  11.00000  0.05    0.20
Q14   1   0.1558  0.6666  0.9460  11.00000  0.05    0.20
Q15   1   0.3178  0.3614  0.4900  11.00000  0.05    0.20
Q16   1   0.4430  0.1064  0.9975  11.00000  0.05    0.20
Q17   1   0.3001  0.2935  0.5017  11.00000  0.05    0.19
Q18   1   0.1760  0.5810  0.9982  11.00000  0.05    0.19
Q19   1   0.4988  0.4577  0.3711  11.00000  0.05    0.19
Q20   1   0.4387  0.4151  0.4187  11.00000  0.05    0.19
;
_shelx_res_checksum              72195
_shelx_fab_file
;
    2    0    0    -25.53      0.00
    3    0    0     -9.67      0.00
    4    0    0     -5.23      0.00
    5    0    0     -1.15      0.00
    6    0    0     -2.02      0.00
    7    0    0     -0.22      0.00
    8    0    0      1.75      0.00
    9    0    0      0.70      0.00
   10    0    0     -0.92      0.00
   11    0    0     -0.75      0.00
   12    0    0     -1.53      0.00
  -12    1    0     -0.15      0.00
  -11    1    0      0.32      0.00
  -10    1    0     -0.93      0.00
   -9    1    0     -1.14      0.00
   -8    1    0      0.29      0.00
   -7    1    0      1.40      0.00
   -6    1    0      1.24      0.00
   -5    1    0      0.81      0.00
   -4    1    0      1.25      0.00
   -3    1    0     10.35      0.00
   -2    1    0     -5.74      0.00
   -1    1    0    -25.83      0.00
    1    1    0     64.73      0.00
    2    1    0     -4.92      0.00
    5    1    0      4.52      0.00
    6    1    0      0.48      0.00
    8    1    0     -0.90      0.00
    9    1    0      0.52      0.00
   10    1    0     -0.56      0.00
   11    1    0      0.21      0.00
   12    1    0     -0.71      0.00
  -12    2    0      0.01      0.00
  -11    2    0      0.77      0.00
  -10    2    0      0.44      0.00
   -9    2    0     -0.82      0.00
   -8    2    0     -0.48      0.00
   -7    2    0      0.13      0.00
   -6    2    0     -0.04      0.00
   -5    2    0     -1.97      0.00
   -4    2    0     -4.18      0.00
   -3    2    0      9.14      0.00
   -2    2    0     39.37      0.00
   -1    2    0     11.13      0.00
    0    2    0     18.44      0.00
    1    2    0     13.53      0.00
    2    2    0    -18.85      0.00
    3    2    0     -4.46      0.00
    4    2    0     -3.27      0.00
    5    2    0      2.05      0.00
   10    2    0     -1.63      0.00
   11    2    0      0.24      0.00
   12    2    0     -0.23      0.00
   13    2    0     -0.29      0.00
  -12    3    0      0.55      0.00
  -11    3    0     -0.40      0.00
  -10    3    0     -0.21      0.00
   -9    3    0      0.19      0.00
   -8    3    0     -0.09      0.00
   -7    3    0      0.28      0.00
   -6    3    0      0.76      0.00
   -5    3    0      0.04      0.00
   -4    3    0     -2.51      0.00
   -3    3    0     -7.87      0.00
   -2    3    0     11.62      0.00
   -1    3    0     17.27      0.00
    0    3    0     11.99      0.00
    1    3    0     14.34      0.00
    2    3    0     -1.92      0.00
    3    3    0      3.27      0.00
    4    3    0     -1.16      0.00
    5    3    0     -5.69      0.00
    6    3    0     -1.67      0.00
    7    3    0      0.06      0.00
    8    3    0      0.55      0.00
    9    3    0      0.36      0.00
   11    3    0     -0.23      0.00
   12    3    0      0.23      0.00
   13    3    0     -0.25      0.00
  -12    4    0      0.66      0.00
  -11    4    0      0.06      0.00
  -10    4    0     -0.36      0.00
   -9    4    0      0.44      0.00
   -8    4    0      0.33      0.00
   -7    4    0      0.27      0.00
   -6    4    0     -0.03      0.00
   -5    4    0     -1.21      0.00
   -4    4    0      1.70      0.00
   -3    4    0      1.43      0.00
   -2    4    0      3.50      0.00
   -1    4    0      4.21      0.00
    0    4    0     -3.69      0.00
    1    4    0      0.93      0.00
    2    4    0     -0.62      0.00
    3    4    0      1.66      0.00
    4    4    0      3.64      0.00
    5    4    0      1.19      0.00
    6    4    0     -0.07      0.00
    7    4    0     -1.05      0.00
    8    4    0     -0.59      0.00
    9    4    0     -0.11      0.00
   10    4    0     -0.14      0.00
   11    4    0     -0.13      0.00
   13    4    0      0.75      0.00
  -11    5    0      0.01      0.00
  -10    5    0      0.39      0.00
   -9    5    0      0.63      0.00
   -8    5    0     -0.33      0.00
   -7    5    0      0.48      0.00
   -6    5    0      1.39      0.00
   -5    5    0     -0.66      0.00
   -4    5    0     -2.38      0.00
   -3    5    0     -0.39      0.00
   -2    5    0      2.20      0.00
   -1    5    0      4.80      0.00
    0    5    0      1.87      0.00
    1    5    0      1.78      0.00
    2    5    0      2.67      0.00
    3    5    0     -0.42      0.00
    4    5    0     -2.68      0.00
    5    5    0     -1.31      0.00
    6    5    0      1.73      0.00
    7    5    0      0.63      0.00
    8    5    0      0.17      0.00
    9    5    0     -0.30      0.00
   10    5    0     -0.53      0.00
   11    5    0     -0.08      0.00
  -11    6    0      0.06      0.00
  -10    6    0     -0.02      0.00
   -9    6    0      0.94      0.00
   -8    6    0     -0.28      0.00
   -7    6    0     -1.14      0.00
   -6    6    0      0.71      0.00
   -5    6    0      1.93      0.00
   -4    6    0      1.44      0.00
   -3    6    0      1.19      0.00
   -2    6    0     -1.02      0.00
   -1    6    0     -2.64      0.00
    0    6    0     -1.66      0.00
    1    6    0     -1.11      0.00
    2    6    0      1.38      0.00
    3    6    0      4.09      0.00
    4    6    0      1.66      0.00
    5    6    0     -1.86      0.00
    6    6    0      0.00      0.00
    7    6    0     -0.47      0.00
    8    6    0     -0.31      0.00
    9    6    0     -0.13      0.00
   10    6    0     -1.09      0.00
   11    6    0     -0.06      0.00
   12    6    0     -0.75      0.00
   13    6    0     -0.37      0.00
   14    6    0     -0.17      0.00
  -10    7    0     -0.08      0.00
   -9    7    0     -0.12      0.00
   -8    7    0      1.48      0.00
   -7    7    0     -0.50      0.00
   -6    7    0     -0.87      0.00
   -5    7    0     -0.45      0.00
   -4    7    0      0.43      0.00
   -3    7    0      1.99      0.00
   -2    7    0      2.13      0.00
   -1    7    0      0.11      0.00
    0    7    0      1.69      0.00
    1    7    0      2.48      0.00
    2    7    0     -2.04      0.00
    3    7    0     -3.09      0.00
    4    7    0     -0.78      0.00
    5    7    0     -1.32      0.00
    6    7    0      0.66      0.00
    7    7    0     -0.43      0.00
    8    7    0     -0.19      0.00
    9    7    0      0.26      0.00
   10    7    0     -0.65      0.00
   11    7    0     -0.27      0.00
   12    7    0      0.12      0.00
   13    7    0      0.24      0.00
   14    7    0      0.68      0.00
  -10    8    0      1.18      0.00
   -9    8    0     -0.38      0.00
   -8    8    0      1.06      0.00
   -7    8    0      0.62      0.00
   -6    8    0      0.31      0.00
   -5    8    0      0.03      0.00
   -4    8    0     -0.46      0.00
   -3    8    0     -0.91      0.00
   -2    8    0     -0.35      0.00
   -1    8    0     -1.26      0.00
    0    8    0      0.15      0.00
    1    8    0      3.95      0.00
    2    8    0      2.04      0.00
    3    8    0     -2.11      0.00
    4    8    0     -0.60      0.00
    5    8    0     -1.14      0.00
    6    8    0      0.63      0.00
    7    8    0     -1.17      0.00
    8    8    0     -1.71      0.00
    9    8    0     -0.01      0.00
   10    8    0      0.30      0.00
   11    8    0     -0.06      0.00
   12    8    0      0.17      0.00
   13    8    0     -0.04      0.00
   -9    9    0      0.28      0.00
   -8    9    0      0.39      0.00
   -7    9    0     -0.58      0.00
   -6    9    0     -0.53      0.00
   -5    9    0      0.28      0.00
   -4    9    0      0.68      0.00
   -3    9    0      0.29      0.00
   -2    9    0      1.41      0.00
   -1    9    0      0.85      0.00
    0    9    0     -1.15      0.00
    1    9    0     -1.84      0.00
    2    9    0     -1.36      0.00
    3    9    0     -2.01      0.00
    4    9    0      1.48      0.00
    5    9    0      1.14      0.00
    6    9    0      1.73      0.00
    7    9    0      1.18      0.00
    8    9    0     -1.60      0.00
    9    9    0     -0.93      0.00
   10    9    0      0.17      0.00
   11    9    0     -0.25      0.00
   12    9    0      0.18      0.00
   13    9    0      0.38      0.00
   -8   10    0      0.19      0.00
   -7   10    0     -0.35      0.00
   -6   10    0     -0.14      0.00
   -5   10    0     -0.44      0.00
   -4   10    0     -0.06      0.00
   -3   10    0     -0.69      0.00
   -2   10    0      0.64      0.00
   -1   10    0      1.58      0.00
    0   10    0      0.69      0.00
    1   10    0     -0.57      0.00
    2   10    0     -0.30      0.00
    3   10    0     -1.36      0.00
    4   10    0     -0.14      0.00
    5   10    0     -0.79      0.00
    6   10    0     -1.24      0.00
    7   10    0      1.54      0.00
    8   10    0      0.79      0.00
    9   10    0      0.01      0.00
   10   10    0      0.16      0.00
   11   10    0     -0.58      0.00
   12   10    0     -0.41      0.00
   13   10    0     -0.04      0.00
   -8   11    0     -0.49      0.00
   -7   11    0     -1.10      0.00
   -6   11    0      0.15      0.00
   -5   11    0     -0.26      0.00
   -4   11    0      0.35      0.00
   -3   11    0     -0.50      0.00
   -2   11    0     -0.98      0.00
   -1   11    0     -0.19      0.00
    0   11    0     -0.57      0.00
    1   11    0     -0.84      0.00
    2   11    0      0.70      0.00
    3   11    0      0.65      0.00
    4   11    0      0.98      0.00
    5   11    0      0.46      0.00
    6   11    0     -1.95      0.00
    7   11    0     -0.39      0.00
    8   11    0      0.81      0.00
    9   11    0      0.72      0.00
   10   11    0      0.25      0.00
   11   11    0     -0.44      0.00
   12   11    0     -0.18      0.00
   13   11    0      0.35      0.00
   -7   12    0     -0.62      0.00
   -6   12    0      0.18      0.00
   -5   12    0     -0.48      0.00
   -4   12    0      0.15      0.00
   -3   12    0      0.42      0.00
   -2   12    0      0.03      0.00
   -1   12    0      0.27      0.00
    0   12    0     -0.07      0.00
    1   12    0     -0.91      0.00
    2   12    0     -0.60      0.00
    3   12    0     -0.55      0.00
    4   12    0      0.27      0.00
    5   12    0      1.42      0.00
    6   12    0     -0.51      0.00
    7   12    0     -0.89      0.00
    8   12    0     -0.36      0.00
    9   12    0      0.17      0.00
   10   12    0      0.05      0.00
   11   12    0     -0.47      0.00
   12   12    0     -1.03      0.00
   13   12    0      0.15      0.00
   -6   13    0      0.22      0.00
   -5   13    0     -0.11      0.00
   -4   13    0      0.45      0.00
   -3   13    0     -0.20      0.00
   -2   13    0      0.07      0.00
   -1   13    0      0.72      0.00
    0   13    0      0.20      0.00
    1   13    0     -0.50      0.00
    2   13    0     -0.71      0.00
    3   13    0     -0.97      0.00
    4   13    0     -0.62      0.00
    5   13    0      0.52      0.00
    6   13    0     -0.55      0.00
    7   13    0     -0.48      0.00
    8   13    0     -0.05      0.00
    9   13    0     -0.10      0.00
   10   13    0     -0.19      0.00
   11   13    0      0.03      0.00
   12   13    0     -0.95      0.00
   -5   14    0     -0.56      0.00
   -4   14    0      0.91      0.00
   -3   14    0      0.38      0.00
   -2   14    0      0.07      0.00
   -1   14    0      0.72      0.00
    0   14    0      0.23      0.00
    1   14    0     -0.58      0.00
    2   14    0     -0.35      0.00
    3   14    0      0.14      0.00
    4   14    0     -0.23      0.00
    5   14    0     -0.09      0.00
    6   14    0     -0.57      0.00
    7   14    0      0.21      0.00
    8   14    0      0.71      0.00
    9   14    0      0.41      0.00
   10   14    0     -0.57      0.00
   11   14    0      0.06      0.00
   12   14    0     -0.16      0.00
   -4   15    0      0.51      0.00
   -3   15    0      0.36      0.00
   -2   15    0     -0.09      0.00
   -1   15    0      0.25      0.00
    0   15    0      0.41      0.00
    1   15    0      0.01      0.00
    2   15    0     -1.13      0.00
    3   15    0     -0.79      0.00
    4   15    0     -0.40      0.00
    5   15    0      0.42      0.00
    6   15    0      0.44      0.00
    7   15    0      1.60      0.00
    8   15    0      0.44      0.00
    9   15    0      0.14      0.00
   10   15    0     -0.91      0.00
   11   15    0     -0.53      0.00
   -2   16    0     -0.89      0.00
   -1   16    0     -0.51      0.00
    0   16    0     -0.67      0.00
    1   16    0     -0.34      0.00
    2   16    0     -1.12      0.00
    3   16    0     -0.29      0.00
    4   16    0     -0.97      0.00
    5   16    0     -0.58      0.00
    6   16    0     -0.69      0.00
    7   16    0      1.12      0.00
    8   16    0      0.22      0.00
    9   16    0     -0.19      0.00
   10   16    0     -0.25      0.00
    0   17    0      0.03      0.00
    1   17    0     -0.01      0.00
    2   17    0     -1.81      0.00
    3   17    0      0.42      0.00
    4   17    0      0.89      0.00
    5   17    0      0.19      0.00
    6   17    0     -0.78      0.00
    7   17    0     -0.40      0.00
    8   17    0     -0.15      0.00
    9   17    0     -0.32      0.00
    2   18    0     -0.75      0.00
    3   18    0      0.14      0.00
    4   18    0      0.66      0.00
    5   18    0      0.12      0.00
    6   18    0      0.14      0.00
   -5  -18    1     -0.29      0.00
   -4  -18    1      0.17      0.00
   -8  -17    1      0.15      0.00
   -7  -17    1     -1.14      0.00
   -6  -17    1      0.45      0.00
   -5  -17    1      0.84      0.00
   -4  -17    1      0.85      0.00
   -3  -17    1     -0.18      0.00
   -2  -17    1      0.06      0.00
   -1  -17    1      0.06      0.00
    0  -17    1     -0.65      0.00
   -9  -16    1     -0.19      0.00
   -8  -16    1      0.00      0.00
   -7  -16    1     -1.73      0.00
   -6  -16    1     -1.18      0.00
   -5  -16    1      0.40      0.00
   -4  -16    1      1.08      0.00
   -3  -16    1     -0.09      0.00
   -2  -16    1     -0.91      0.00
   -1  -16    1     -0.26      0.00
    0  -16    1      0.18      0.00
    1  -16    1     -0.30      0.00
    2  -16    1     -1.25      0.00
  -10  -15    1      0.28      0.00
   -9  -15    1      0.13      0.00
   -8  -15    1      0.22      0.00
   -7  -15    1      0.10      0.00
   -6  -15    1     -1.05      0.00
   -5  -15    1     -0.78      0.00
   -4  -15    1     -0.43      0.00
   -3  -15    1     -0.75      0.00
   -2  -15    1     -0.40      0.00
   -1  -15    1     -0.04      0.00
    0  -15    1      0.11      0.00
    1  -15    1     -0.19      0.00
    2  -15    1     -1.03      0.00
    3  -15    1      0.10      0.00
  -11  -14    1     -0.59      0.00
  -10  -14    1     -0.24      0.00
   -9  -14    1      0.69      0.00
   -8  -14    1      0.44      0.00
   -7  -14    1      0.48      0.00
   -6  -14    1     -0.22      0.00
   -5  -14    1     -0.41      0.00
   -4  -14    1      0.13      0.00
   -3  -14    1     -0.13      0.00
   -2  -14    1     -0.39      0.00
   -1  -14    1     -0.02      0.00
    0  -14    1      1.28      0.00
    1  -14    1      0.58      0.00
    2  -14    1     -0.05      0.00
    3  -14    1      0.72      0.00
    4  -14    1      0.53      0.00
    5  -14    1     -0.03      0.00
  -12  -13    1      0.00      0.00
  -11  -13    1      0.28      0.00
  -10  -13    1     -0.20      0.00
   -9  -13    1      0.32      0.00
   -8  -13    1      0.27      0.00
   -7  -13    1     -0.53      0.00
   -6  -13    1     -0.78      0.00
   -5  -13    1     -0.62      0.00
   -4  -13    1     -0.18      0.00
   -3  -13    1      0.39      0.00
   -2  -13    1     -0.06      0.00
   -1  -13    1     -0.89      0.00
    0  -13    1      0.58      0.00
    1  -13    1      0.17      0.00
    2  -13    1     -0.58      0.00
    3  -13    1      0.21      0.00
    4  -13    1      0.26      0.00
    5  -13    1     -0.40      0.00
    6  -13    1     -0.04      0.00
  -12  -12    1     -0.31      0.00
  -11  -12    1      0.62      0.00
  -10  -12    1     -0.37      0.00
   -9  -12    1     -0.47      0.00
   -8  -12    1     -0.43      0.00
   -7  -12    1     -0.50      0.00
   -6  -12    1     -0.15      0.00
   -5  -12    1     -0.28      0.00
   -4  -12    1     -0.89      0.00
   -3  -12    1     -0.38      0.00
   -2  -12    1     -0.09      0.00
   -1  -12    1     -0.62      0.00
    0  -12    1      0.18      0.00
    1  -12    1     -0.29      0.00
    2  -12    1     -0.56      0.00
    3  -12    1     -0.22      0.00
    4  -12    1     -0.70      0.00
    5  -12    1     -0.52      0.00
    6  -12    1      0.78      0.00
    7  -12    1      0.16      0.00
  -13  -11    1      0.06      0.00
  -12  -11    1      0.00      0.00
  -11  -11    1      0.81      0.00
  -10  -11    1     -0.20      0.00
   -9  -11    1      0.16      0.00
   -8  -11    1     -0.36      0.00
   -7  -11    1     -0.79      0.00
   -6  -11    1      0.43      0.00
   -5  -11    1      1.06      0.00
   -4  -11    1     -0.15      0.00
   -3  -11    1     -0.34      0.00
   -2  -11    1     -0.40      0.00
   -1  -11    1     -1.00      0.00
    0  -11    1      0.04      0.00
    1  -11    1     -0.71      0.00
    2  -11    1     -0.43      0.00
    3  -11    1      0.88      0.00
    4  -11    1     -0.37      0.00
    5  -11    1     -0.95      0.00
    6  -11    1      0.35      0.00
    7  -11    1     -0.21      0.00
  -13  -10    1     -0.18      0.00
  -12  -10    1      0.22      0.00
  -11  -10    1      0.78      0.00
  -10  -10    1     -0.21      0.00
   -9  -10    1      0.83      0.00
   -8  -10    1      1.12      0.00
   -7  -10    1     -1.04      0.00
   -6  -10    1     -2.13      0.00
   -5  -10    1      0.28      0.00
   -4  -10    1      0.71      0.00
   -3  -10    1      1.29      0.00
   -2  -10    1      0.72      0.00
   -1  -10    1     -1.20      0.00
    0  -10    1     -0.05      0.00
    1  -10    1     -0.77      0.00
    2  -10    1     -1.11      0.00
    3  -10    1      0.12      0.00
    4  -10    1      0.09      0.00
    5  -10    1     -0.42      0.00
    6  -10    1      0.54      0.00
    7  -10    1     -0.73      0.00
    8  -10    1     -0.06      0.00
  -13   -9    1     -0.12      0.00
  -12   -9    1     -0.17      0.00
  -11   -9    1      0.18      0.00
  -10   -9    1     -0.32      0.00
   -9   -9    1     -0.09      0.00
   -8   -9    1      1.28      0.00
   -7   -9    1      1.39      0.00
   -6   -9    1     -1.94      0.00
   -5   -9    1     -0.02      0.00
   -4   -9    1     -0.72      0.00
   -3   -9    1     -1.40      0.00
   -2   -9    1     -0.90      0.00
   -1   -9    1     -1.49      0.00
    0   -9    1      2.40      0.00
    1   -9    1      2.08      0.00
    2   -9    1      0.43      0.00
    3   -9    1      0.17      0.00
    4   -9    1      0.56      0.00
    5   -9    1     -0.63      0.00
    6   -9    1     -0.33      0.00
    7   -9    1     -0.41      0.00
    8   -9    1      0.65      0.00
    9   -9    1      0.46      0.00
  -13   -8    1      0.10      0.00
  -12   -8    1      0.42      0.00
  -11   -8    1      0.27      0.00
  -10   -8    1      0.00      0.00
   -9   -8    1     -0.87      0.00
   -8   -8    1     -0.85      0.00
   -7   -8    1      1.84      0.00
   -6   -8    1      0.42      0.00
   -5   -8    1      1.79      0.00
   -4   -8    1      0.64      0.00
   -3   -8    1     -1.60      0.00
   -2   -8    1     -0.28      0.00
   -1   -8    1     -3.20      0.00
    0   -8    1     -0.13      0.00
    1   -8    1      1.47      0.00
    2   -8    1      0.60      0.00
    3   -8    1      0.38      0.00
    4   -8    1      1.86      0.00
    5   -8    1      0.98      0.00
    6   -8    1     -0.45      0.00
    7   -8    1     -0.70      0.00
    8   -8    1      0.14      0.00
    9   -8    1      0.86      0.00
   10   -8    1      0.77      0.00
  -13   -7    1     -0.15      0.00
  -12   -7    1      0.27      0.00
  -11   -7    1      0.07      0.00
  -10   -7    1      0.45      0.00
   -9   -7    1     -0.45      0.00
   -8   -7    1     -1.44      0.00
   -7   -7    1      0.04      0.00
   -6   -7    1     -0.25      0.00
   -5   -7    1     -0.13      0.00
   -4   -7    1     -1.40      0.00
   -3   -7    1     -2.84      0.00
   -2   -7    1      3.81      0.00
   -1   -7    1      2.97      0.00
    0   -7    1      0.98      0.00
    1   -7    1      0.06      0.00
    2   -7    1     -1.02      0.00
    3   -7    1     -1.53      0.00
    4   -7    1     -0.09      0.00
    5   -7    1      0.17      0.00
    6   -7    1     -0.11      0.00
    7   -7    1      0.63      0.00
    8   -7    1      0.95      0.00
    9   -7    1     -0.33      0.00
   10   -7    1      1.73      0.00
  -13   -6    1     -0.28      0.00
  -12   -6    1      0.51      0.00
  -11   -6    1     -0.11      0.00
  -10   -6    1      0.27      0.00
   -9   -6    1      0.04      0.00
   -8   -6    1     -1.15      0.00
   -7   -6    1     -0.28      0.00
   -6   -6    1     -0.31      0.00
   -5   -6    1      0.44      0.00
   -4   -6    1      0.65      0.00
   -3   -6    1     -3.57      0.00
   -2   -6    1     -0.99      0.00
   -1   -6    1      0.63      0.00
    0   -6    1      0.60      0.00
    1   -6    1      0.57      0.00
    2   -6    1      1.73      0.00
    3   -6    1      1.65      0.00
    4   -6    1      0.95      0.00
    5   -6    1     -0.42      0.00
    6   -6    1     -1.59      0.00
    7   -6    1     -0.95      0.00
    8   -6    1      1.45      0.00
    9   -6    1     -0.04      0.00
   10   -6    1      0.96      0.00
   11   -6    1      1.31      0.00
  -11   -5    1     -0.07      0.00
  -10   -5    1     -0.35      0.00
   -9   -5    1      0.26      0.00
   -8   -5    1     -0.72      0.00
   -7   -5    1      0.01      0.00
   -6   -5    1     -0.69      0.00
   -5   -5    1     -1.58      0.00
   -4   -5    1      1.07      0.00
   -3   -5    1      2.11      0.00
   -2   -5    1      2.82      0.00
   -1   -5    1     -0.79      0.00
    0   -5    1     -1.01      0.00
    1   -5    1     -2.13      0.00
    2   -5    1     -1.63      0.00
    3   -5    1     -0.03      0.00
    4   -5    1      0.35      0.00
    5   -5    1      1.74      0.00
    6   -5    1      0.23      0.00
    7   -5    1     -1.24      0.00
    8   -5    1      0.12      0.00
    9   -5    1      0.52      0.00
   10   -5    1      0.47      0.00
   11   -5    1      0.61      0.00
  -13   -4    1     -0.11      0.00
  -11   -4    1      0.08      0.00
  -10   -4    1      0.27      0.00
   -9   -4    1      0.29      0.00
   -8   -4    1      0.17      0.00
   -7   -4    1      1.37      0.00
   -6   -4    1      1.90      0.00
   -5   -4    1     -0.10      0.00
   -4   -4    1     -3.40      0.00
   -3   -4    1     -4.23      0.00
   -2   -4    1      2.96      0.00
   -1   -4    1     -0.35      0.00
    0   -4    1      1.86      0.00
    1   -4    1      6.09      0.00
    2   -4    1      2.63      0.00
    3   -4    1      2.52      0.00
    4   -4    1     -3.03      0.00
    5   -4    1     -1.53      0.00
    6   -4    1      0.83      0.00
    7   -4    1      0.18      0.00
    8   -4    1      0.25      0.00
    9   -4    1      0.63      0.00
   10   -4    1      0.34      0.00
   11   -4    1     -0.29      0.00
   12   -4    1      0.37      0.00
  -13   -3    1      0.42      0.00
  -12   -3    1      0.15      0.00
  -11   -3    1     -0.19      0.00
  -10   -3    1      0.51      0.00
   -9   -3    1      0.50      0.00
   -8   -3    1     -0.14      0.00
   -7   -3    1     -0.67      0.00
   -6   -3    1     -1.74      0.00
   -5   -3    1      0.65      0.00
   -4   -3    1      4.00      0.00
   -3   -3    1      0.95      0.00
   -2   -3    1      7.03      0.00
   -1   -3    1      0.55      0.00
    0   -3    1     -3.03      0.00
    1   -3    1      9.87      0.00
    2   -3    1     -3.59      0.00
    3   -3    1      2.81      0.00
    4   -3    1      3.27      0.00
    5   -3    1     -1.13      0.00
    6   -3    1      0.66      0.00
    7   -3    1      0.49      0.00
    8   -3    1      0.41      0.00
    9   -3    1      0.71      0.00
   10   -3    1     -0.01      0.00
   11   -3    1     -0.37      0.00
   12   -3    1      0.94      0.00
  -13   -2    1     -0.47      0.00
  -12   -2    1      0.13      0.00
  -11   -2    1     -0.43      0.00
  -10   -2    1     -0.94      0.00
   -9   -2    1      0.44      0.00
   -8   -2    1      0.99      0.00
   -7   -2    1      1.60      0.00
   -6   -2    1     -2.57      0.00
   -5   -2    1     -5.98      0.00
   -4   -2    1     -0.53      0.00
   -3   -2    1     -1.96      0.00
   -2   -2    1      4.99      0.00
   -1   -2    1      9.91      0.00
    0   -2    1      8.97      0.00
    1   -2    1     49.52      0.00
    2   -2    1     11.92      0.00
    3   -2    1    -13.19      0.00
    4   -2    1     -2.51      0.00
    5   -2    1     -1.73      0.00
    6   -2    1      0.94      0.00
    7   -2    1      1.01      0.00
    8   -2    1     -0.11      0.00
    9   -2    1      0.54      0.00
   10   -2    1      0.32      0.00
   11   -2    1     -0.91      0.00
   12   -2    1      0.50      0.00
  -13   -1    1     -0.30      0.00
  -12   -1    1     -0.07      0.00
  -11   -1    1      0.14      0.00
  -10   -1    1     -1.27      0.00
   -9   -1    1     -0.53      0.00
   -8   -1    1     -1.06      0.00
   -6   -1    1      4.51      0.00
   -5   -1    1      1.07      0.00
   -4   -1    1      1.94      0.00
   -2   -1    1     -4.09      0.00
   -1   -1    1     12.52      0.00
    0   -1    1    -19.50      0.00
    1   -1    1     40.88      0.00
    2   -1    1     54.73      0.00
    3   -1    1      2.47      0.00
    4   -1    1     -2.74      0.00
    5   -1    1     -3.11      0.00
    6   -1    1     -0.13      0.00
    7   -1    1      0.27      0.00
    8   -1    1     -1.30      0.00
    9   -1    1     -0.42      0.00
   10   -1    1      1.12      0.00
   11   -1    1      0.05      0.00
   12   -1    1      0.21      0.00
   13   -1    1     -0.09      0.00
  -13    0    1     -1.03      0.00
  -12    0    1     -0.73      0.00
  -11    0    1      0.32      0.00
  -10    0    1      0.05      0.00
   -9    0    1      1.14      0.00
   -8    0    1     -1.92      0.00
   -7    0    1     -2.21      0.00
   -6    0    1      0.75      0.00
   -5    0    1      1.13      0.00
   -4    0    1      2.51      0.00
   -3    0    1     -3.57      0.00
   -2    0    1      8.76      0.00
   -1    0    1     90.09      0.00
    0    0    1     42.24      0.00
    1    0    1    -17.16      0.00
    2    0    1     15.04      0.00
    3    0    1     -1.61      0.00
    4    0    1      0.46      0.00
    5    0    1     -0.46      0.00
    6    0    1      1.68      0.00
    7    0    1      2.99      0.00
    8    0    1     -0.60      0.00
    9    0    1     -1.27      0.00
   10    0    1      0.25      0.00
   11    0    1     -0.03      0.00
   12    0    1      0.08      0.00
  -12    1    1     -1.18      0.00
  -11    1    1     -0.69      0.00
  -10    1    1     -0.94      0.00
   -9    1    1      1.85      0.00
   -8    1    1      0.68      0.00
   -7    1    1     -0.07      0.00
   -6    1    1      0.14      0.00
   -5    1    1     -1.48      0.00
   -4    1    1     -1.98      0.00
   -3    1    1    -11.97      0.00
   -2    1    1    -29.42      0.00
   -1    1    1     74.52      0.00
    0    1    1    134.95      0.00
    1    1    1     29.34      0.00
    2    1    1      2.19      0.00
    3    1    1    -13.41      0.00
    4    1    1     -5.24      0.00
    5    1    1     -2.26      0.00
    6    1    1     -4.01      0.00
    7    1    1      0.96      0.00
    8    1    1      1.37      0.00
    9    1    1      0.04      0.00
   10    1    1     -0.08      0.00
   11    1    1     -0.54      0.00
   12    1    1     -0.29      0.00
  -12    2    1      0.44      0.00
  -11    2    1      1.27      0.00
  -10    2    1     -1.32      0.00
   -9    2    1     -0.18      0.00
   -8    2    1      0.28      0.00
   -7    2    1      0.28      0.00
   -6    2    1      1.47      0.00
   -5    2    1      0.32      0.00
   -4    2    1      2.31      0.00
   -3    2    1     10.78      0.00
   -2    2    1    -17.01      0.00
   -1    2    1     -3.77      0.00
    0    2    1     64.85      0.00
    1    2    1     17.80      0.00
    2    2    1      3.92      0.00
    3    2    1     -0.46      0.00
    4    2    1      1.04      0.00
    5    2    1      6.56      0.00
    6    2    1     -0.97      0.00
    7    2    1     -2.74      0.00
    8    2    1     -0.57      0.00
    9    2    1     -0.14      0.00
   10    2    1      0.00      0.00
   11    2    1     -0.06      0.00
   12    2    1      0.09      0.00
  -12    3    1     -0.11      0.00
  -11    3    1      1.25      0.00
  -10    3    1     -0.06      0.00
   -9    3    1     -0.62      0.00
   -8    3    1     -0.07      0.00
   -7    3    1     -0.26      0.00
   -6    3    1      0.73      0.00
   -5    3    1     -0.79      0.00
   -4    3    1     -4.89      0.00
   -3    3    1      8.69      0.00
   -2    3    1     18.13      0.00
   -1    3    1      8.17      0.00
    0    3    1     25.32      0.00
    1    3    1     -5.40      0.00
    2    3    1    -11.39      0.00
    3    3    1     -1.78      0.00
    4    3    1     -5.14      0.00
    5    3    1      2.36      0.00
    6    3    1      3.39      0.00
    7    3    1      1.07      0.00
    8    3    1      0.59      0.00
    9    3    1     -0.43      0.00
   10    3    1     -0.75      0.00
   11    3    1      0.12      0.00
   12    3    1     -0.09      0.00
  -12    4    1      0.32      0.00
  -11    4    1     -0.22      0.00
  -10    4    1     -0.68      0.00
   -9    4    1     -0.07      0.00
   -8    4    1      0.22      0.00
   -7    4    1     -0.39      0.00
   -6    4    1      0.36      0.00
   -5    4    1      2.02      0.00
   -4    4    1     -2.01      0.00
   -3    4    1     -3.74      0.00
   -2    4    1      5.54      0.00
   -1    4    1      4.96      0.00
    0    4    1     11.95      0.00
    1    4    1      3.13      0.00
    2    4    1     -0.60      0.00
    3    4    1      7.65      0.00
    4    4    1      0.10      0.00
    5    4    1     -3.24      0.00
    6    4    1     -2.90      0.00
    7    4    1     -1.06      0.00
    8    4    1      0.39      0.00
    9    4    1      0.20      0.00
   10    4    1     -0.12      0.00
   11    4    1      0.22      0.00
   12    4    1      0.07      0.00
   13    4    1     -0.13      0.00
  -11    5    1      0.02      0.00
  -10    5    1     -0.48      0.00
   -9    5    1     -0.12      0.00
   -8    5    1      0.53      0.00
   -7    5    1      0.66      0.00
   -6    5    1     -0.71      0.00
   -5    5    1     -0.06      0.00
   -4    5    1      1.30      0.00
   -3    5    1      1.59      0.00
   -2    5    1      5.32      0.00
   -1    5    1      3.25      0.00
    0    5    1      0.37      0.00
    1    5    1     -1.91      0.00
    2    5    1     -2.85      0.00
    3    5    1      1.52      0.00
    4    5    1      1.86      0.00
    5    5    1      2.26      0.00
    6    5    1     -0.21      0.00
    7    5    1     -0.99      0.00
    8    5    1     -0.56      0.00
    9    5    1     -0.69      0.00
   10    5    1      0.48      0.00
   11    5    1      0.27      0.00
   12    5    1      0.14      0.00
   13    5    1      0.40      0.00
   14    5    1      0.10      0.00
  -11    6    1     -0.06      0.00
  -10    6    1      0.95      0.00
   -9    6    1      0.53      0.00
   -8    6    1     -0.74      0.00
   -7    6    1      1.45      0.00
   -6    6    1      0.98      0.00
   -5    6    1      0.32      0.00
   -4    6    1     -0.53      0.00
   -3    6    1     -0.58      0.00
   -2    6    1      1.26      0.00
   -1    6    1      3.07      0.00
    0    6    1      2.33      0.00
    1    6    1      1.65      0.00
    2    6    1      3.27      0.00
    3    6    1      1.48      0.00
    4    6    1     -3.37      0.00
    5    6    1     -0.93      0.00
    6    6    1      0.35      0.00
    7    6    1      0.30      0.00
    8    6    1      0.63      0.00
    9    6    1     -0.77      0.00
   10    6    1     -0.12      0.00
   11    6    1     -0.19      0.00
   12    6    1     -0.76      0.00
   13    6    1      0.10      0.00
   14    6    1     -0.30      0.00
  -10    7    1      0.15      0.00
   -9    7    1      1.41      0.00
   -8    7    1     -0.79      0.00
   -7    7    1      0.16      0.00
   -6    7    1      0.29      0.00
   -5    7    1      1.27      0.00
   -4    7    1      1.89      0.00
   -3    7    1      2.04      0.00
   -2    7    1     -0.79      0.00
   -1    7    1     -2.49      0.00
    0    7    1     -1.83      0.00
    1    7    1     -2.44      0.00
    2    7    1      0.68      0.00
    3    7    1      3.94      0.00
    4    7    1     -0.53      0.00
    5    7    1     -0.31      0.00
    6    7    1      0.38      0.00
    7    7    1      0.05      0.00
    8    7    1      0.76      0.00
    9    7    1     -0.87      0.00
   10    7    1     -1.04      0.00
   11    7    1     -0.25      0.00
   12    7    1     -0.45      0.00
   13    7    1      0.14      0.00
   14    7    1     -0.64      0.00
  -10    8    1     -0.22      0.00
   -9    8    1      0.59      0.00
   -8    8    1      0.38      0.00
   -7    8    1      0.56      0.00
   -6    8    1     -0.80      0.00
   -5    8    1     -1.06      0.00
   -4    8    1     -0.30      0.00
   -3    8    1      1.41      0.00
   -2    8    1      1.02      0.00
   -1    8    1     -0.03      0.00
    0    8    1      2.48      0.00
    1    8    1      1.61      0.00
    2    8    1     -2.37      0.00
    3    8    1     -1.71      0.00
    4    8    1     -3.21      0.00
    5    8    1     -0.81      0.00
    6    8    1      0.62      0.00
    7    8    1     -0.47      0.00
    8    8    1      1.28      0.00
    9    8    1      0.13      0.00
   10    8    1     -1.09      0.00
   11    8    1     -0.60      0.00
   12    8    1     -0.11      0.00
   13    8    1      0.52      0.00
   14    8    1      0.40      0.00
   -9    9    1      0.43      0.00
   -8    9    1      0.27      0.00
   -7    9    1      0.52      0.00
   -6    9    1      0.00      0.00
   -5    9    1     -0.42      0.00
   -4    9    1     -0.83      0.00
   -3    9    1     -0.67      0.00
   -2    9    1     -0.74      0.00
   -1    9    1     -1.87      0.00
    0    9    1      0.36      0.00
    1    9    1      2.51      0.00
    2    9    1      0.08      0.00
    3    9    1      0.41      0.00
    4    9    1     -0.40      0.00
    5    9    1      0.20      0.00
    6    9    1      0.55      0.00
    7    9    1     -2.92      0.00
    8    9    1     -1.57      0.00
    9    9    1      0.00      0.00
   10    9    1      0.05      0.00
   11    9    1     -0.05      0.00
   12    9    1      0.19      0.00
   13    9    1      0.32      0.00
   14    9    1      0.43      0.00
   -8   10    1      0.13      0.00
   -7   10    1     -0.44      0.00
   -6   10    1     -0.82      0.00
   -5   10    1     -0.04      0.00
   -4   10    1      0.09      0.00
   -3   10    1      0.32      0.00
   -2   10    1      1.30      0.00
   -1   10    1     -0.12      0.00
    0   10    1     -1.18      0.00
    1   10    1     -1.12      0.00
    2   10    1     -2.44      0.00
    3   10    1     -0.57      0.00
    4   10    1      1.13      0.00
    5   10    1      1.41      0.00
    6   10    1      2.35      0.00
    7   10    1     -0.53      0.00
    8   10    1     -1.75      0.00
    9   10    1     -0.61      0.00
   10   10    1      0.01      0.00
   11   10    1     -0.32      0.00
   12   10    1      0.19      0.00
   13   10    1      0.38      0.00
   -8   11    1     -0.01      0.00
   -7   11    1     -0.12      0.00
   -6   11    1     -0.44      0.00
   -5   11    1     -0.09      0.00
   -4   11    1      0.06      0.00
   -3   11    1     -0.69      0.00
   -2   11    1      0.53      0.00
   -1   11    1      0.79      0.00
    0   11    1     -0.04      0.00
    1   11    1      0.29      0.00
    2   11    1     -0.51      0.00
    3   11    1     -0.37      0.00
    4   11    1     -0.30      0.00
    5   11    1     -1.18      0.00
    6   11    1      0.05      0.00
    7   11    1      0.88      0.00
    8   11    1      0.18      0.00
    9   11    1      0.48      0.00
   10   11    1      0.53      0.00
   11   11    1     -0.51      0.00
   12   11    1      0.31      0.00
   13   11    1      0.25      0.00
   -7   12    1     -0.57      0.00
   -6   12    1     -0.16      0.00
   -5   12    1     -0.16      0.00
   -4   12    1      0.46      0.00
   -3   12    1     -0.05      0.00
   -2   12    1     -0.60      0.00
   -1   12    1     -0.40      0.00
    0   12    1     -0.68      0.00
    1   12    1     -0.18      0.00
    2   12    1      0.17      0.00
    3   12    1      0.44      0.00
    4   12    1      0.51      0.00
    5   12    1     -0.29      0.00
    6   12    1     -1.08      0.00
    7   12    1      0.14      0.00
    8   12    1      0.23      0.00
    9   12    1      0.46      0.00
   10   12    1      0.22      0.00
   11   12    1     -0.92      0.00
   12   12    1      0.39      0.00
   13   12    1      0.74      0.00
   -6   13    1      0.25      0.00
   -5   13    1      0.19      0.00
   -4   13    1      0.14      0.00
   -3   13    1      0.43      0.00
   -2   13    1      0.60      0.00
   -1   13    1      0.32      0.00
    0   13    1     -0.01      0.00
    1   13    1     -0.83      0.00
    2   13    1     -1.18      0.00
    3   13    1     -0.61      0.00
    4   13    1      0.55      0.00
    5   13    1      1.12      0.00
    6   13    1     -0.65      0.00
    7   13    1     -0.58      0.00
    8   13    1     -0.42      0.00
    9   13    1      0.01      0.00
   10   13    1     -0.05      0.00
   11   13    1     -1.17      0.00
   12   13    1     -0.81      0.00
   -5   14    1      0.30      0.00
   -4   14    1      0.80      0.00
   -3   14    1     -0.13      0.00
   -2   14    1      0.12      0.00
   -1   14    1      0.27      0.00
    0   14    1      0.34      0.00
    1   14    1     -0.28      0.00
    2   14    1     -0.61      0.00
    3   14    1     -0.75      0.00
    4   14    1     -0.20      0.00
    5   14    1      0.56      0.00
    6   14    1     -0.28      0.00
    7   14    1     -0.13      0.00
    8   14    1      0.50      0.00
    9   14    1      0.02      0.00
   10   14    1     -0.29      0.00
   11   14    1     -0.17      0.00
   12   14    1     -0.41      0.00
   -4   15    1      0.85      0.00
   -3   15    1      0.50      0.00
   -2   15    1     -0.14      0.00
   -1   15    1     -0.17      0.00
    0   15    1      0.14      0.00
    1   15    1     -0.45      0.00
    2   15    1     -0.20      0.00
    3   15    1      0.04      0.00
    4   15    1      0.70      0.00
    5   15    1      0.66      0.00
    6   15    1      0.02      0.00
    7   15    1      0.06      0.00
    8   15    1      0.76      0.00
    9   15    1      0.22      0.00
   10   15    1     -0.82      0.00
   11   15    1      0.15      0.00
   -2   16    1     -0.68      0.00
   -1   16    1     -0.97      0.00
    0   16    1     -0.16      0.00
    1   16    1     -0.14      0.00
    2   16    1     -0.44      0.00
    3   16    1     -1.52      0.00
    4   16    1     -0.81      0.00
    5   16    1      1.19      0.00
    6   16    1      0.92      0.00
    7   16    1      0.95      0.00
    8   16    1      0.26      0.00
    9   16    1     -0.36      0.00
   10   16    1     -1.34      0.00
   -1   17    1     -1.22      0.00
    0   17    1     -1.00      0.00
    1   17    1     -0.84      0.00
    2   17    1     -0.29      0.00
    3   17    1     -0.12      0.00
    4   17    1     -1.50      0.00
    5   17    1      0.22      0.00
    6   17    1      0.02      0.00
    7   17    1      0.51      0.00
    8   17    1      0.04      0.00
    9   17    1      0.10      0.00
    1   18    1     -0.41      0.00
    2   18    1     -0.91      0.00
    3   18    1      0.40      0.00
    4   18    1     -0.41      0.00
    5   18    1      0.20      0.00
    6   18    1     -0.19      0.00
    7   18    1      0.14      0.00
   -7  -17    2     -0.54      0.00
   -6  -17    2     -0.43      0.00
   -5  -17    2     -1.06      0.00
   -4  -17    2     -0.24      0.00
   -3  -17    2      0.27      0.00
   -2  -17    2     -0.14      0.00
   -1  -17    2     -1.78      0.00
   -9  -16    2      0.69      0.00
   -8  -16    2     -0.13      0.00
   -7  -16    2     -1.12      0.00
   -6  -16    2      0.64      0.00
   -5  -16    2      0.48      0.00
   -4  -16    2      0.49      0.00
   -3  -16    2     -0.01      0.00
   -2  -16    2     -0.12      0.00
   -1  -16    2     -0.32      0.00
    0  -16    2     -0.28      0.00
    1  -16    2     -1.24      0.00
  -10  -15    2      0.03      0.00
   -9  -15    2     -0.45      0.00
   -8  -15    2     -0.51      0.00
   -7  -15    2     -1.48      0.00
   -6  -15    2     -0.62      0.00
   -5  -15    2     -0.15      0.00
   -4  -15    2      0.32      0.00
   -3  -15    2     -0.19      0.00
   -2  -15    2     -0.71      0.00
   -1  -15    2     -0.55      0.00
    0  -15    2      0.09      0.00
    1  -15    2     -0.60      0.00
    2  -15    2     -0.60      0.00
    3  -15    2      0.14      0.00
  -11  -14    2     -0.42      0.00
  -10  -14    2      0.70      0.00
   -9  -14    2      0.33      0.00
   -8  -14    2     -0.21      0.00
   -7  -14    2      0.11      0.00
   -6  -14    2     -0.48      0.00
   -5  -14    2     -0.84      0.00
   -4  -14    2     -0.16      0.00
   -3  -14    2     -0.46      0.00
   -2  -14    2      0.07      0.00
   -1  -14    2      0.22      0.00
    0  -14    2      0.21      0.00
    1  -14    2     -0.36      0.00
    2  -14    2      0.03      0.00
    3  -14    2      0.20      0.00
    4  -14    2      0.15      0.00
  -11  -13    2     -0.66      0.00
  -10  -13    2      0.36      0.00
   -9  -13    2      0.86      0.00
   -8  -13    2      0.10      0.00
   -7  -13    2      0.64      0.00
   -6  -13    2      0.15      0.00
   -5  -13    2     -0.51      0.00
   -4  -13    2      0.54      0.00
   -3  -13    2     -0.19      0.00
   -2  -13    2     -0.07      0.00
   -1  -13    2      0.12      0.00
    0  -13    2      0.91      0.00
    1  -13    2     -0.11      0.00
    2  -13    2      0.70      0.00
    3  -13    2      0.69      0.00
    4  -13    2     -0.03      0.00
    5  -13    2      0.04      0.00
  -12  -12    2      0.10      0.00
  -11  -12    2     -0.02      0.00
  -10  -12    2      0.17      0.00
   -9  -12    2      0.20      0.00
   -8  -12    2      0.06      0.00
   -7  -12    2      0.04      0.00
   -6  -12    2     -0.30      0.00
   -5  -12    2     -0.60      0.00
   -4  -12    2      0.73      0.00
   -3  -12    2      0.41      0.00
   -2  -12    2     -0.34      0.00
   -1  -12    2     -0.88      0.00
    0  -12    2      0.02      0.00
    1  -12    2     -0.83      0.00
    2  -12    2     -0.68      0.00
    3  -12    2     -0.23      0.00
    4  -12    2     -0.21      0.00
    5  -12    2     -0.04      0.00
    6  -12    2     -0.30      0.00
  -12  -11    2      0.17      0.00
  -11  -11    2      0.31      0.00
  -10  -11    2     -0.29      0.00
   -9  -11    2     -0.82      0.00
   -8  -11    2     -0.16      0.00
   -7  -11    2      0.70      0.00
   -6  -11    2      0.45      0.00
   -5  -11    2     -1.10      0.00
   -4  -11    2     -0.98      0.00
   -3  -11    2     -0.24      0.00
   -2  -11    2     -0.09      0.00
   -1  -11    2     -0.15      0.00
    0  -11    2     -0.11      0.00
    1  -11    2     -0.58      0.00
    2  -11    2     -0.23      0.00
    3  -11    2     -0.44      0.00
    4  -11    2     -0.96      0.00
    5  -11    2      0.03      0.00
    6  -11    2      0.75      0.00
    7  -11    2      0.87      0.00
  -13  -10    2      0.83      0.00
  -12  -10    2      0.77      0.00
  -11  -10    2      0.86      0.00
  -10  -10    2     -0.22      0.00
   -9  -10    2     -0.30      0.00
   -8  -10    2     -0.39      0.00
   -7  -10    2     -0.28      0.00
   -6  -10    2      0.89      0.00
   -5  -10    2      0.09      0.00
   -4  -10    2      0.08      0.00
   -3  -10    2      0.30      0.00
   -2  -10    2     -0.90      0.00
   -1  -10    2     -0.81      0.00
    0  -10    2     -0.38      0.00
    1  -10    2     -0.61      0.00
    2  -10    2      0.50      0.00
    3  -10    2      1.07      0.00
    4  -10    2     -0.24      0.00
    5  -10    2      0.12      0.00
    6  -10    2      0.29      0.00
    7  -10    2      0.28      0.00
    8  -10    2      0.39      0.00
  -13   -9    2      0.43      0.00
  -12   -9    2      0.30      0.00
  -11   -9    2      0.64      0.00
  -10   -9    2     -0.37      0.00
   -9   -9    2      0.25      0.00
   -8   -9    2      0.42      0.00
   -7   -9    2     -1.86      0.00
   -6   -9    2     -1.58      0.00
   -5   -9    2     -0.36      0.00
   -4   -9    2      0.82      0.00
   -3   -9    2      2.33      0.00
   -2   -9    2     -0.11      0.00
   -1   -9    2     -0.37      0.00
    0   -9    2      0.16      0.00
    1   -9    2     -0.99      0.00
    2   -9    2     -0.39      0.00
    3   -9    2      0.56      0.00
    4   -9    2     -0.40      0.00
    5   -9    2      0.10      0.00
    6   -9    2      0.64      0.00
    7   -9    2     -0.44      0.00
    8   -9    2      0.24      0.00
    9   -9    2     -0.23      0.00
  -13   -8    2      0.69      0.00
  -12   -8    2      0.11      0.00
  -11   -8    2      0.05      0.00
  -10   -8    2     -0.49      0.00
   -9   -8    2     -0.04      0.00
   -8   -8    2      0.96      0.00
   -7   -8    2      0.08      0.00
   -6   -8    2     -1.18      0.00
   -5   -8    2      0.59      0.00
   -4   -8    2     -0.49      0.00
   -3   -8    2     -0.13      0.00
   -2   -8    2     -3.03      0.00
   -1   -8    2     -1.23      0.00
    0   -8    2      2.97      0.00
    1   -8    2      1.66      0.00
    2   -8    2      0.42      0.00
    3   -8    2      0.75      0.00
    4   -8    2      0.31      0.00
    5   -8    2     -0.64      0.00
    6   -8    2     -0.59      0.00
    7   -8    2     -0.76      0.00
    8   -8    2      0.93      0.00
    9   -8    2      0.67      0.00
  -13   -7    2      0.43      0.00
  -12   -7    2      0.16      0.00
  -11   -7    2      0.09      0.00
  -10   -7    2     -0.34      0.00
   -9   -7    2     -0.46      0.00
   -8   -7    2     -0.07      0.00
   -7   -7    2      0.94      0.00
   -6   -7    2      0.34      0.00
   -5   -7    2      1.99      0.00
   -4   -7    2     -0.37      0.00
   -3   -7    2      0.18      0.00
   -2   -7    2     -1.82      0.00
   -1   -7    2     -2.78      0.00
    0   -7    2      0.46      0.00
    1   -7    2      0.19      0.00
    2   -7    2     -0.60      0.00
    3   -7    2      0.22      0.00
    4   -7    2      1.35      0.00
    5   -7    2      0.89      0.00
    6   -7    2     -0.15      0.00
    7   -7    2     -0.83      0.00
    8   -7    2     -0.17      0.00
    9   -7    2      1.26      0.00
   10   -7    2      0.10      0.00
  -13   -6    2      0.83      0.00
  -12   -6    2      0.48      0.00
  -11   -6    2     -0.07      0.00
  -10   -6    2      0.35      0.00
   -9   -6    2     -0.40      0.00
   -8   -6    2     -0.57      0.00
   -7   -6    2     -0.13      0.00
   -6   -6    2     -0.25      0.00
   -5   -6    2      0.73      0.00
   -4   -6    2     -2.64      0.00
   -3   -6    2     -1.82      0.00
   -2   -6    2      1.81      0.00
   -1   -6    2      2.51      0.00
    0   -6    2      2.12      0.00
    1   -6    2      0.14      0.00
    2   -6    2     -1.56      0.00
    3   -6    2     -1.54      0.00
    4   -6    2     -0.84      0.00
    5   -6    2     -0.75      0.00
    6   -6    2     -0.14      0.00
    7   -6    2      0.66      0.00
    8   -6    2      0.55      0.00
    9   -6    2      0.32      0.00
   10   -6    2      0.99      0.00
   11   -6    2      0.81      0.00
  -11   -5    2     -0.06      0.00
  -10   -5    2      0.39      0.00
   -9   -5    2      0.00      0.00
   -8   -5    2     -0.78      0.00
   -7   -5    2     -0.85      0.00
   -6   -5    2     -0.73      0.00
   -5   -5    2      1.43      0.00
   -4   -5    2      0.27      0.00
   -3   -5    2     -2.12      0.00
   -2   -5    2     -2.23      0.00
   -1   -5    2     -0.27      0.00
    0   -5    2      0.49      0.00
    1   -5    2      0.00      0.00
    2   -5    2      1.15      0.00
    3   -5    2      1.52      0.00
    4   -5    2      1.19      0.00
    5   -5    2     -0.98      0.00
    6   -5    2     -1.40      0.00
    7   -5    2     -0.34      0.00
    8   -5    2      1.06      0.00
    9   -5    2      0.59      0.00
   10   -5    2      0.94      0.00
   11   -5    2      1.61      0.00
  -13   -4    2     -0.24      0.00
  -11   -4    2      0.09      0.00
  -10   -4    2     -0.37      0.00
   -9   -4    2      0.03      0.00
   -8   -4    2     -0.07      0.00
   -7   -4    2      0.00      0.00
   -6   -4    2     -0.72      0.00
   -5   -4    2     -1.41      0.00
   -4   -4    2     -1.68      0.00
   -3   -4    2      1.29      0.00
   -2   -4    2      1.79      0.00
   -1   -4    2      0.71      0.00
    0   -4    2      2.00      0.00
    1   -4    2     -1.97      0.00
    2   -4    2     -0.31      0.00
    3   -4    2     -0.42      0.00
    4   -4    2     -0.50      0.00
    5   -4    2      0.88      0.00
    6   -4    2      0.03      0.00
    7   -4    2     -0.36      0.00
    8   -4    2      0.34      0.00
    9   -4    2      0.57      0.00
   10   -4    2     -0.06      0.00
   11   -4    2      0.69      0.00
   12   -4    2      0.47      0.00
  -13   -3    2      0.59      0.00
  -12   -3    2      0.36      0.00
  -11   -3    2      0.40      0.00
  -10   -3    2      0.19      0.00
   -9   -3    2     -0.35      0.00
   -8   -3    2      0.38      0.00
   -7   -3    2      0.91      0.00
   -6   -3    2      1.79      0.00
   -5   -3    2      1.22      0.00
   -4   -3    2     -4.34      0.00
   -3   -3    2     -3.23      0.00
   -2   -3    2      0.82      0.00
   -1   -3    2     -3.61      0.00
    0   -3    2      4.62      0.00
    1   -3    2      1.28      0.00
    2   -3    2      4.31      0.00
    3   -3    2      7.47      0.00
    4   -3    2     -2.53      0.00
    5   -3    2     -1.84      0.00
    6   -3    2     -0.04      0.00
    7   -3    2      0.21      0.00
    8   -3    2      0.40      0.00
    9   -3    2      0.54      0.00
   10   -3    2     -0.34      0.00
   11   -3    2     -0.22      0.00
   12   -3    2      0.17      0.00
  -13   -2    2      0.72      0.00
  -12   -2    2      1.23      0.00
  -11   -2    2      0.35      0.00
  -10   -2    2      0.90      0.00
   -9   -2    2     -0.02      0.00
   -8   -2    2      0.23      0.00
   -7   -2    2     -1.62      0.00
   -6   -2    2     -2.85      0.00
   -5   -2    2      1.34      0.00
   -4   -2    2      2.83      0.00
   -3   -2    2      4.97      0.00
   -2   -2    2      9.33      0.00
   -1   -2    2     -4.96      0.00
    0   -2    2     11.24      0.00
    1   -2    2      6.12      0.00
    2   -2    2    -14.98      0.00
    3   -2    2      6.25      0.00
    4   -2    2      3.69      0.00
    5   -2    2     -0.24      0.00
    6   -2    2      0.93      0.00
    7   -2    2      0.62      0.00
    8   -2    2      0.63      0.00
    9   -2    2      0.73      0.00
   10   -2    2     -0.48      0.00
   11   -2    2     -0.15      0.00
   12   -2    2      0.88      0.00
  -13   -1    2      0.00      0.00
  -12   -1    2      0.53      0.00
  -11   -1    2     -0.39      0.00
  -10   -1    2     -0.26      0.00
   -9   -1    2     -0.27      0.00
   -8   -1    2      1.61      0.00
   -7   -1    2      1.08      0.00
   -6   -1    2     -3.45      0.00
   -5   -1    2     -3.32      0.00
   -4   -1    2     -0.16      0.00
   -3   -1    2      0.79      0.00
   -2   -1    2      4.31      0.00
   -1   -1    2    -17.78      0.00
    0   -1    2     24.18      0.00
    1   -1    2     71.14      0.00
    2   -1    2     -1.01      0.00
    3   -1    2    -12.60      0.00
    4   -1    2     -4.42      0.00
    5   -1    2     -2.74      0.00
    6   -1    2      0.73      0.00
    7   -1    2      0.61      0.00
    8   -1    2      0.47      0.00
    9   -1    2      1.13      0.00
   10   -1    2     -0.05      0.00
   11   -1    2     -0.68      0.00
   12   -1    2      0.47      0.00
   13   -1    2     -0.20      0.00
  -13    0    2      0.55      0.00
  -12    0    2      0.21      0.00
  -11    0    2     -0.21      0.00
  -10    0    2     -0.45      0.00
   -9    0    2     -1.56      0.00
   -8    0    2     -0.90      0.00
   -7    0    2      1.88      0.00
   -6    0    2      1.81      0.00
   -5    0    2      1.50      0.00
   -4    0    2      3.19      0.00
   -3    0    2      1.26      0.00
   -2    0    2      9.85      0.00
   -1    0    2    -26.04      0.00
    0    0    2    -32.62      0.00
    1    0    2     72.25      0.00
    2    0    2     40.55      0.00
    3    0    2      1.04      0.00
    4    0    2     -2.19      0.00
    5    0    2     -3.60      0.00
    6    0    2      1.04      0.00
    7    0    2     -0.90      0.00
    8    0    2     -1.48      0.00
    9    0    2      0.91      0.00
   10    0    2      1.19      0.00
   11    0    2     -0.12      0.00
   12    0    2      0.09      0.00
   13    0    2     -0.14      0.00
  -12    1    2     -0.63      0.00
  -11    1    2     -0.41      0.00
  -10    1    2      1.05      0.00
   -9    1    2      0.53      0.00
   -8    1    2     -1.90      0.00
   -7    1    2     -0.87      0.00
   -6    1    2     -0.14      0.00
   -5    1    2      0.06      0.00
   -4    1    2      0.75      0.00
   -3    1    2     -3.79      0.00
   -2    1    2     26.39      0.00
   -1    1    2     53.28      0.00
    0    1    2     -2.47      0.00
    1    1    2     21.39      0.00
    2    1    2     13.09      0.00
    3    1    2     -7.96      0.00
    4    1    2      0.71      0.00
    5    1    2     -2.80      0.00
    6    1    2      3.94      0.00
    7    1    2      2.87      0.00
    8    1    2     -1.24      0.00
    9    1    2      0.01      0.00
   10    1    2      0.88      0.00
   11    1    2      0.28      0.00
   12    1    2      0.20      0.00
   13    1    2     -0.06      0.00
  -12    2    2     -0.14      0.00
  -11    2    2     -0.81      0.00
  -10    2    2     -0.30      0.00
   -9    2    2      1.75      0.00
   -8    2    2     -0.19      0.00
   -7    2    2      0.14      0.00
   -6    2    2      0.46      0.00
   -5    2    2     -0.68      0.00
   -4    2    2     -0.96      0.00
   -3    2    2    -13.86      0.00
   -2    2    2    -12.01      0.00
   -1    2    2     52.12      0.00
    0    2    2     53.90      0.00
    1    2    2     34.19      0.00
    2    2    2     13.41      0.00
    3    2    2    -12.80      0.00
    4    2    2     -0.30      0.00
    5    2    2     -4.87      0.00
    6    2    2     -2.95      0.00
    7    2    2      1.18      0.00
    8    2    2      0.34      0.00
    9    2    2      0.93      0.00
   10    2    2      0.37      0.00
   11    2    2     -0.24      0.00
   12    2    2      0.57      0.00
  -12    3    2      0.66      0.00
  -11    3    2      1.80      0.00
  -10    3    2     -0.77      0.00
   -9    3    2      0.17      0.00
   -8    3    2      0.19      0.00
   -7    3    2      0.03      0.00
   -6    3    2      1.00      0.00
   -5    3    2      0.05      0.00
   -4    3    2      2.73      0.00
   -3    3    2      4.98      0.00
   -2    3    2    -10.46      0.00
   -1    3    2      7.45      0.00
    0    3    2     19.54      0.00
    1    3    2      4.93      0.00
    2    3    2      8.68      0.00
    3    3    2     -3.41      0.00
    4    3    2      5.08      0.00
    5    3    2      4.78      0.00
    6    3    2     -0.46      0.00
    7    3    2     -1.29      0.00
    8    3    2     -1.14      0.00
    9    3    2      0.21      0.00
   10    3    2      0.07      0.00
   11    3    2     -0.25      0.00
   12    3    2      0.86      0.00
   13    3    2      0.69      0.00
   14    3    2     -0.07      0.00
  -11    4    2      1.43      0.00
  -10    4    2      0.05      0.00
   -9    4    2     -0.46      0.00
   -8    4    2      0.38      0.00
   -7    4    2     -0.18      0.00
   -6    4    2      1.10      0.00
   -5    4    2      0.11      0.00
   -4    4    2     -3.30      0.00
   -3    4    2      4.33      0.00
   -2    4    2      7.06      0.00
   -1    4    2     11.39      0.00
    0    4    2     13.48      0.00
    1    4    2     -6.13      0.00
    2    4    2     -1.69      0.00
    3    4    2     -2.77      0.00
    4    4    2     -2.70      0.00
    5    4    2      0.42      0.00
    6    4    2      1.17      0.00
    7    4    2      1.57      0.00
    8    4    2      0.68      0.00
    9    4    2      0.19      0.00
   10    4    2     -0.61      0.00
   11    4    2     -0.48      0.00
   12    4    2      0.31      0.00
   13    4    2      0.68      0.00
   14    4    2      0.27      0.00
  -11    5    2      0.11      0.00
  -10    5    2     -0.44      0.00
   -9    5    2     -0.18      0.00
   -8    5    2      1.12      0.00
   -7    5    2     -0.38      0.00
   -6    5    2      0.27      0.00
   -5    5    2      2.50      0.00
   -4    5    2     -0.34      0.00
   -3    5    2     -1.15      0.00
   -2    5    2      1.27      0.00
   -1    5    2      3.42      0.00
    0    5    2      7.14      0.00
    1    5    2     -0.59      0.00
    2    5    2      1.19      0.00
    3    5    2      4.70      0.00
    4    5    2      1.97      0.00
    5    5    2     -1.35      0.00
    6    5    2     -3.18      0.00
    7    5    2     -0.74      0.00
    8    5    2      0.26      0.00
    9    5    2      0.83      0.00
   10    5    2      0.45      0.00
   11    5    2      0.09      0.00
   12    5    2      0.01      0.00
   13    5    2      0.38      0.00
   14    5    2      0.54      0.00
  -11    6    2      0.34      0.00
  -10    6    2     -0.09      0.00
   -9    6    2     -0.70      0.00
   -8    6    2      1.42      0.00
   -7    6    2      0.79      0.00
   -6    6    2     -0.82      0.00
   -5    6    2      0.34      0.00
   -4    6    2      1.21      0.00
   -3    6    2      1.89      0.00
   -2    6    2      4.28      0.00
   -1    6    2      3.22      0.00
    0    6    2      0.81      0.00
    1    6    2     -2.11      0.00
    2    6    2     -2.87      0.00
    3    6    2     -1.83      0.00
    4    6    2      0.94      0.00
    5    6    2      2.28      0.00
    6    6    2     -0.53      0.00
    7    6    2      0.17      0.00
    8    6    2     -0.25      0.00
    9    6    2     -0.20      0.00
   10    6    2      0.30      0.00
   11    6    2     -0.01      0.00
   12    6    2     -0.27      0.00
   13    6    2      0.11      0.00
   14    6    2      0.56      0.00
  -10    7    2      1.42      0.00
   -9    7    2     -0.17      0.00
   -8    7    2      0.06      0.00
   -7    7    2      1.48      0.00
   -6    7    2      0.34      0.00
   -5    7    2      0.24      0.00
   -4    7    2     -0.11      0.00
   -3    7    2     -0.54      0.00
   -2    7    2      0.34      0.00
   -1    7    2      1.08      0.00
    0    7    2     -0.77      0.00
    1    7    2      1.02      0.00
    2    7    2      4.18      0.00
    3    7    2      0.51      0.00
    4    7    2     -2.13      0.00
    5    7    2     -0.21      0.00
    6    7    2     -0.98      0.00
    7    7    2      0.77      0.00
    8    7    2      0.48      0.00
    9    7    2     -0.37      0.00
   10    7    2     -0.02      0.00
   11    7    2     -0.41      0.00
   12    7    2     -0.57      0.00
   13    7    2     -0.33      0.00
   14    7    2     -0.21      0.00
  -10    8    2      0.54      0.00
   -9    8    2      0.40      0.00
   -8    8    2     -0.35      0.00
   -7    8    2      0.74      0.00
   -6    8    2     -0.35      0.00
   -5    8    2      0.56      0.00
   -4    8    2      0.95      0.00
   -3    8    2      1.19      0.00
   -2    8    2     -0.27      0.00
   -1    8    2     -1.06      0.00
    0    8    2     -3.65      0.00
    1    8    2     -3.46      0.00
    2    8    2      1.66      0.00
    3    8    2      2.01      0.00
    4    8    2     -0.41      0.00
    5    8    2      1.22      0.00
    6    8    2      0.02      0.00
    7    8    2      1.43      0.00
    8    8    2      0.92      0.00
    9    8    2     -1.42      0.00
   10    8    2     -1.09      0.00
   11    8    2     -0.39      0.00
   12    8    2     -0.04      0.00
   13    8    2      0.06      0.00
   14    8    2     -0.40      0.00
   -9    9    2      0.23      0.00
   -8    9    2     -0.27      0.00
   -7    9    2      0.96      0.00
   -6    9    2     -1.04      0.00
   -5    9    2     -0.93      0.00
   -4    9    2     -0.85      0.00
   -3    9    2      0.24      0.00
   -2    9    2      0.36      0.00
   -1    9    2      1.49      0.00
    0    9    2      1.94      0.00
    1    9    2      0.05      0.00
    2    9    2     -0.38      0.00
    3    9    2     -1.06      0.00
    4    9    2     -2.78      0.00
    5    9    2      0.05      0.00
    6    9    2     -1.10      0.00
    7    9    2      0.04      0.00
    8    9    2      1.75      0.00
    9    9    2     -0.39      0.00
   10    9    2     -1.04      0.00
   11    9    2     -0.29      0.00
   12    9    2      0.09      0.00
   13    9    2      0.41      0.00
   14    9    2      0.36      0.00
   -8   10    2     -0.35      0.00
   -7   10    2      0.65      0.00
   -6   10    2     -0.28      0.00
   -5   10    2      0.01      0.00
   -4   10    2     -0.53      0.00
   -3   10    2     -0.36      0.00
   -2   10    2     -1.13      0.00
   -1   10    2     -1.36      0.00
    0   10    2      0.66      0.00
    1   10    2      0.53      0.00
    2   10    2      0.15      0.00
    3   10    2      1.48      0.00
    4   10    2      0.46      0.00
    5   10    2      1.69      0.00
    6   10    2     -1.05      0.00
    7   10    2     -3.40      0.00
    8   10    2     -1.01      0.00
    9   10    2     -0.63      0.00
   10   10    2     -0.32      0.00
   11   10    2      0.58      0.00
   12   10    2      0.07      0.00
   13   10    2      0.36      0.00
   14   10    2      0.63      0.00
   -8   11    2     -0.18      0.00
   -7   11    2     -0.31      0.00
   -6   11    2     -0.85      0.00
   -5   11    2      0.32      0.00
   -4   11    2      0.15      0.00
   -3   11    2      0.53      0.00
   -2   11    2      0.60      0.00
   -1   11    2     -0.94      0.00
    0   11    2     -0.80      0.00
    1   11    2     -1.01      0.00
    2   11    2     -2.01      0.00
    3   11    2     -0.14      0.00
    4   11    2      0.05      0.00
    5   11    2      1.76      0.00
    6   11    2      1.91      0.00
    7   11    2     -1.35      0.00
    8   11    2     -0.61      0.00
    9   11    2     -0.22      0.00
   10   11    2     -0.33      0.00
   11   11    2      0.19      0.00
   12   11    2     -0.30      0.00
   13   11    2     -0.04      0.00
   -7   12    2     -0.14      0.00
   -6   12    2     -1.05      0.00
   -5   12    2     -0.21      0.00
   -4   12    2      0.05      0.00
   -3   12    2     -0.55      0.00
   -2   12    2     -0.55      0.00
   -1   12    2     -0.26      0.00
    0   12    2      0.15      0.00
    1   12    2      0.78      0.00
    2   12    2     -0.30      0.00
    3   12    2     -0.22      0.00
    4   12    2     -1.47      0.00
    5   12    2     -1.08      0.00
    6   12    2      1.47      0.00
    7   12    2      0.58      0.00
    8   12    2      0.67      0.00
    9   12    2      0.71      0.00
   10   12    2      0.57      0.00
   11   12    2      0.28      0.00
   12   12    2      0.14      0.00
   13   12    2      0.10      0.00
   -6   13    2     -0.62      0.00
   -5   13    2     -0.59      0.00
   -4   13    2     -0.12      0.00
   -3   13    2      0.23      0.00
   -2   13    2     -0.87      0.00
   -1   13    2     -0.70      0.00
    0   13    2     -0.33      0.00
    1   13    2      0.19      0.00
    2   13    2     -0.04      0.00
    3   13    2      0.21      0.00
    4   13    2     -0.36      0.00
    5   13    2     -0.75      0.00
    6   13    2     -0.12      0.00
    7   13    2      0.07      0.00
    8   13    2      0.32      0.00
    9   13    2      0.28      0.00
   10   13    2      0.06      0.00
   11   13    2     -0.53      0.00
   12   13    2      0.06      0.00
   13   13    2      0.56      0.00
   -5   14    2      0.27      0.00
   -4   14    2     -0.57      0.00
   -3   14    2     -0.11      0.00
   -2   14    2      0.17      0.00
   -1   14    2      0.42      0.00
    0   14    2      0.33      0.00
    1   14    2     -0.49      0.00
    2   14    2     -0.85      0.00
    3   14    2     -0.67      0.00
    4   14    2     -0.08      0.00
    5   14    2      0.74      0.00
    6   14    2     -0.26      0.00
    7   14    2     -0.56      0.00
    8   14    2     -0.27      0.00
    9   14    2      0.05      0.00
   10   14    2      0.37      0.00
   11   14    2     -0.63      0.00
   12   14    2     -1.13      0.00
   -4   15    2      0.35      0.00
   -3   15    2     -0.64      0.00
   -2   15    2     -0.52      0.00
   -1   15    2      0.11      0.00
    0   15    2      0.38      0.00
    1   15    2     -0.19      0.00
    2   15    2      0.40      0.00
    3   15    2      0.11      0.00
    4   15    2      0.05      0.00
    5   15    2     -0.15      0.00
    6   15    2     -0.42      0.00
    7   15    2     -0.16      0.00
    8   15    2      0.88      0.00
    9   15    2      0.51      0.00
   10   15    2      0.52      0.00
   11   15    2      0.42      0.00
   12   15    2     -0.24      0.00
   -3   16    2     -0.11      0.00
   -2   16    2     -0.47      0.00
   -1   16    2     -0.18      0.00
    0   16    2      0.17      0.00
    1   16    2     -0.41      0.00
    2   16    2      0.37      0.00
    3   16    2     -0.35      0.00
    4   16    2      1.39      0.00
    5   16    2      0.36      0.00
    6   16    2     -0.25      0.00
    7   16    2     -0.30      0.00
    8   16    2      0.65      0.00
    9   16    2      0.13      0.00
   10   16    2      0.39      0.00
   11   16    2      0.69      0.00
   -1   17    2     -0.79      0.00
    0   17    2     -0.22      0.00
    1   17    2     -0.17      0.00
    2   17    2      0.53      0.00
    3   17    2     -1.97      0.00
    4   17    2     -0.28      0.00
    5   17    2      0.49      0.00
    6   17    2      0.06      0.00
    7   17    2     -0.14      0.00
    8   17    2      0.49      0.00
    9   17    2     -0.59      0.00
   10   17    2     -0.47      0.00
    1   18    2     -0.42      0.00
    2   18    2      0.78      0.00
    3   18    2     -0.63      0.00
    4   18    2     -0.68      0.00
    5   18    2      0.00      0.00
    6   18    2      0.09      0.00
    7   18    2      0.22      0.00
    8   18    2      0.37      0.00
   -6  -17    3     -1.12      0.00
   -5  -17    3     -0.29      0.00
   -4  -17    3      0.70      0.00
   -3  -17    3     -0.32      0.00
   -2  -17    3     -0.97      0.00
   -8  -16    3     -0.01      0.00
   -7  -16    3     -0.06      0.00
   -6  -16    3     -0.79      0.00
   -5  -16    3     -0.83      0.00
   -4  -16    3     -0.01      0.00
   -3  -16    3     -0.30      0.00
   -2  -16    3     -0.71      0.00
   -1  -16    3     -0.94      0.00
    0  -16    3     -0.46      0.00
    1  -16    3     -0.32      0.00
   -9  -15    3     -0.18      0.00
   -8  -15    3      0.12      0.00
   -7  -15    3     -0.27      0.00
   -6  -15    3      0.10      0.00
   -5  -15    3      0.25      0.00
   -4  -15    3      0.62      0.00
   -3  -15    3     -0.31      0.00
   -2  -15    3     -0.70      0.00
   -1  -15    3      0.16      0.00
    0  -15    3      0.46      0.00
    1  -15    3     -0.23      0.00
    2  -15    3      0.12      0.00
  -10  -14    3     -0.48      0.00
   -9  -14    3     -1.09      0.00
   -8  -14    3     -0.36      0.00
   -7  -14    3     -0.48      0.00
   -6  -14    3     -0.31      0.00
   -5  -14    3     -0.31      0.00
   -4  -14    3     -0.01      0.00
   -3  -14    3     -0.24      0.00
   -2  -14    3     -1.04      0.00
   -1  -14    3     -0.32      0.00
    0  -14    3     -0.21      0.00
    1  -14    3      0.48      0.00
    2  -14    3     -0.15      0.00
    3  -14    3      0.30      0.00
    4  -14    3      0.62      0.00
  -11  -13    3      0.02      0.00
  -10  -13    3      0.71      0.00
   -9  -13    3      0.14      0.00
   -8  -13    3      0.19      0.00
   -7  -13    3      0.66      0.00
   -6  -13    3     -0.46      0.00
   -5  -13    3     -0.81      0.00
   -4  -13    3     -0.57      0.00
   -3  -13    3     -0.11      0.00
   -2  -13    3      0.11      0.00
   -1  -13    3      0.41      0.00
    0  -13    3     -0.34      0.00
    1  -13    3      0.49      0.00
    2  -13    3      0.57      0.00
    3  -13    3     -0.41      0.00
    4  -13    3      0.22      0.00
    5  -13    3      0.13      0.00
  -11  -12    3     -0.15      0.00
  -10  -12    3      0.92      0.00
   -9  -12    3      0.72      0.00
   -8  -12    3      0.05      0.00
   -7  -12    3      1.07      0.00
   -6  -12    3      0.08      0.00
   -5  -12    3     -0.15      0.00
   -4  -12    3      0.20      0.00
   -3  -12    3     -0.81      0.00
   -2  -12    3     -0.45      0.00
   -1  -12    3      0.03      0.00
    0  -12    3      0.04      0.00
    1  -12    3     -0.10      0.00
    2  -12    3      0.76      0.00
    3  -12    3      0.13      0.00
    4  -12    3     -0.32      0.00
    5  -12    3     -0.61      0.00
    6  -12    3     -0.65      0.00
  -12  -11    3     -0.18      0.00
  -11  -11    3      0.24      0.00
  -10  -11    3      0.89      0.00
   -9  -11    3      0.34      0.00
   -8  -11    3     -0.01      0.00
   -7  -11    3      0.53      0.00
   -6  -11    3     -0.39      0.00
   -5  -11    3     -0.56      0.00
   -4  -11    3      0.79      0.00
   -3  -11    3      0.11      0.00
   -2  -11    3     -0.28      0.00
   -1  -11    3     -0.39      0.00
    0  -11    3     -0.17      0.00
    1  -11    3     -0.51      0.00
    2  -11    3     -1.09      0.00
    3  -11    3     -0.67      0.00
    4  -11    3      0.16      0.00
    5  -11    3     -0.24      0.00
    6  -11    3     -0.39      0.00
    7  -11    3      0.63      0.00
  -12  -10    3     -0.08      0.00
  -11  -10    3      0.28      0.00
  -10  -10    3      0.29      0.00
   -9  -10    3     -0.57      0.00
   -8  -10    3      0.15      0.00
   -7  -10    3      1.22      0.00
   -6  -10    3      0.09      0.00
   -5  -10    3     -1.46      0.00
   -4  -10    3     -0.82      0.00
   -3  -10    3     -0.62      0.00
   -2  -10    3     -0.05      0.00
   -1  -10    3      0.55      0.00
    0  -10    3     -0.08      0.00
    1  -10    3      0.81      0.00
    2  -10    3     -0.02      0.00
    3  -10    3     -0.63      0.00
    4  -10    3     -0.01      0.00
    5  -10    3      0.15      0.00
    6  -10    3      0.31      0.00
    7  -10    3      1.60      0.00
    8  -10    3     -0.25      0.00
  -12   -9    3      0.13      0.00
  -11   -9    3      0.66      0.00
  -10   -9    3      0.16      0.00
   -9   -9    3     -0.72      0.00
   -8   -9    3     -0.58      0.00
   -7   -9    3     -0.07      0.00
   -6   -9    3      0.34      0.00
   -5   -9    3     -0.81      0.00
   -4   -9    3      1.05      0.00
   -3   -9    3      0.67      0.00
   -2   -9    3     -0.61      0.00
   -1   -9    3     -0.17      0.00
    0   -9    3     -1.67      0.00
    1   -9    3      0.30      0.00
    2   -9    3      1.09      0.00
    3   -9    3      0.42      0.00
    4   -9    3      0.49      0.00
    5   -9    3      0.86      0.00
    6   -9    3     -0.31      0.00
    7   -9    3      0.35      0.00
    8   -9    3      0.08      0.00
    9   -9    3      0.06      0.00
  -13   -8    3      0.60      0.00
  -12   -8    3     -0.50      0.00
  -11   -8    3     -0.04      0.00
  -10   -8    3     -0.04      0.00
   -9   -8    3     -0.44      0.00
   -8   -8    3     -0.64      0.00
   -7   -8    3     -2.03      0.00
   -6   -8    3     -0.83      0.00
   -5   -8    3     -0.62      0.00
   -4   -8    3      2.21      0.00
   -3   -8    3      1.88      0.00
   -2   -8    3     -0.58      0.00
   -1   -8    3      0.97      0.00
    0   -8    3     -1.25      0.00
    1   -8    3     -0.94      0.00
    2   -8    3      0.15      0.00
    3   -8    3     -0.28      0.00
    4   -8    3     -0.86      0.00
    5   -8    3      0.41      0.00
    6   -8    3      0.09      0.00
    7   -8    3     -0.51      0.00
    8   -8    3     -0.26      0.00
    9   -8    3     -0.57      0.00
  -13   -7    3      0.70      0.00
  -12   -7    3     -0.18      0.00
  -11   -7    3     -0.24      0.00
  -10   -7    3     -0.16      0.00
   -9   -7    3      0.12      0.00
   -8   -7    3      0.32      0.00
   -7   -7    3     -0.52      0.00
   -6   -7    3      0.04      0.00
   -5   -7    3      0.48      0.00
   -4   -7    3      1.21      0.00
   -3   -7    3     -0.76      0.00
   -2   -7    3     -4.49      0.00
   -1   -7    3      0.14      0.00
    0   -7    3      0.93      0.00
    1   -7    3      0.70      0.00
    2   -7    3      0.65      0.00
    3   -7    3      0.27      0.00
    4   -7    3     -0.41      0.00
    5   -7    3     -0.18      0.00
    6   -7    3     -0.58      0.00
    7   -7    3     -0.96      0.00
    8   -7    3      0.65      0.00
    9   -7    3      0.56      0.00
   10   -7    3     -0.81      0.00
  -13   -6    3      0.63      0.00
  -12   -6    3     -0.44      0.00
  -11   -6    3     -0.15      0.00
  -10   -6    3     -0.18      0.00
   -9   -6    3      0.04      0.00
   -8   -6    3      0.07      0.00
   -7   -6    3      0.20      0.00
   -6   -6    3      0.56      0.00
   -5   -6    3      0.68      0.00
   -4   -6    3      0.17      0.00
   -3   -6    3     -0.25      0.00
   -2   -6    3     -3.49      0.00
   -1   -6    3     -0.29      0.00
    0   -6    3     -0.30      0.00
    1   -6    3     -0.76      0.00
    2   -6    3     -0.86      0.00
    3   -6    3     -0.25      0.00
    4   -6    3      0.22      0.00
    5   -6    3      1.15      0.00
    6   -6    3      0.59      0.00
    7   -6    3     -0.76      0.00
    8   -6    3     -0.51      0.00
    9   -6    3      0.76      0.00
   10   -6    3     -0.04      0.00
   11   -6    3      0.32      0.00
  -11   -5    3     -0.34      0.00
  -10   -5    3      0.50      0.00
   -9   -5    3      0.18      0.00
   -8   -5    3     -0.49      0.00
   -7   -5    3     -0.61      0.00
   -6   -5    3     -0.02      0.00
   -5   -5    3      0.04      0.00
   -4   -5    3     -1.89      0.00
   -3   -5    3     -1.89      0.00
   -2   -5    3     -1.17      0.00
   -1   -5    3      3.60      0.00
    0   -5    3      2.09      0.00
    1   -5    3      0.79      0.00
    2   -5    3     -1.06      0.00
    3   -5    3     -1.18      0.00
    4   -5    3     -1.24      0.00
    5   -5    3     -0.69      0.00
    6   -5    3      0.63      0.00
    7   -5    3      0.73      0.00
    8   -5    3      0.03      0.00
    9   -5    3      0.04      0.00
   10   -5    3      0.35      0.00
   11   -5    3      0.42      0.00
  -13   -4    3      1.72      0.00
  -10   -4    3      0.12      0.00
   -9   -4    3      0.40      0.00
   -8   -4    3     -0.92      0.00
   -7   -4    3     -1.58      0.00
   -6   -4    3     -0.68      0.00
   -5   -4    3      0.85      0.00
   -4   -4    3      1.18      0.00
   -3   -4    3     -0.83      0.00
   -2   -4    3     -3.86      0.00
   -1   -4    3      1.17      0.00
    0   -4    3     -0.78      0.00
    1   -4    3     -0.34      0.00
    2   -4    3      0.59      0.00
    3   -4    3      0.41      0.00
    4   -4    3      1.41      0.00
    5   -4    3     -0.45      0.00
    6   -4    3     -0.21      0.00
    7   -4    3      0.43      0.00
    8   -4    3      0.84      0.00
    9   -4    3      0.42      0.00
   10   -4    3      0.49      0.00
   11   -4    3      1.08      0.00
   12   -4    3     -0.13      0.00
  -13   -3    3      1.66      0.00
  -12   -3    3      0.48      0.00
  -11   -3    3     -0.86      0.00
  -10   -3    3     -1.12      0.00
   -9   -3    3      0.15      0.00
   -8   -3    3      0.13      0.00
   -7   -3    3     -0.05      0.00
   -6   -3    3     -0.02      0.00
   -5   -3    3     -1.88      0.00
   -4   -3    3     -2.17      0.00
   -3   -3    3      0.46      0.00
   -2   -3    3     -1.94      0.00
   -1   -3    3      3.90      0.00
    0   -3    3      0.76      0.00
    1   -3    3     -2.22      0.00
    2   -3    3      3.54      0.00
    3   -3    3     -2.45      0.00
    4   -3    3     -1.62      0.00
    5   -3    3      0.32      0.00
    6   -3    3      0.45      0.00
    7   -3    3      0.34      0.00
    8   -3    3      0.42      0.00
    9   -3    3      0.42      0.00
   10   -3    3     -0.19      0.00
   11   -3    3      0.13      0.00
   12   -3    3     -0.30      0.00
  -13   -2    3      2.12      0.00
  -12   -2    3      0.61      0.00
  -11   -2    3     -0.49      0.00
  -10   -2    3     -1.02      0.00
   -9   -2    3     -0.96      0.00
   -8   -2    3     -0.11      0.00
   -7   -2    3      0.49      0.00
   -6   -2    3      2.39      0.00
   -5   -2    3      1.06      0.00
   -4   -2    3     -3.17      0.00
   -3   -2    3     -0.85      0.00
   -2   -2    3     -4.48      0.00
   -1   -2    3     -0.27      0.00
    0   -2    3     -1.31      0.00
    1   -2    3    -12.43      0.00
    2   -2    3     11.70      0.00
    3   -2    3     10.08      0.00
    4   -2    3     -2.79      0.00
    5   -2    3     -1.87      0.00
    6   -2    3     -0.57      0.00
    7   -2    3      0.30      0.00
    8   -2    3      0.37      0.00
    9   -2    3     -0.01      0.00
   10   -2    3     -0.13      0.00
   11   -2    3      0.18      0.00
   12   -2    3     -0.17      0.00
  -13   -1    3      1.49      0.00
  -12   -1    3      1.34      0.00
  -11   -1    3      0.22      0.00
  -10   -1    3      0.47      0.00
   -9   -1    3     -0.24      0.00
   -8   -1    3      0.01      0.00
   -7   -1    3     -2.06      0.00
   -6   -1    3     -1.77      0.00
   -5   -1    3      1.12      0.00
   -4   -1    3      2.09      0.00
   -3   -1    3      7.01      0.00
   -2   -1    3      0.75      0.00
   -1   -1    3      3.18      0.00
    0   -1    3     20.66      0.00
    1   -1    3    -18.17      0.00
    2   -1    3    -14.46      0.00
    3   -1    3      9.42      0.00
    4   -1    3      1.48      0.00
    5   -1    3      0.82      0.00
    6   -1    3      0.62      0.00
    7   -1    3      1.01      0.00
    8   -1    3      1.15      0.00
    9   -1    3     -0.09      0.00
   10   -1    3     -0.35      0.00
   11   -1    3      0.71      0.00
   12   -1    3      0.71      0.00
   13   -1    3      0.21      0.00
  -12    0    3      0.41      0.00
  -11    0    3     -0.31      0.00
  -10    0    3     -0.13      0.00
   -9    0    3     -0.48      0.00
   -8    0    3      1.62      0.00
   -7    0    3      0.04      0.00
   -6    0    3     -2.24      0.00
   -5    0    3     -1.67      0.00
   -4    0    3      0.18      0.00
   -3    0    3      4.23      0.00
   -2    0    3    -10.70      0.00
   -1    0    3    -23.67      0.00
    0    0    3     44.94      0.00
    1    0    3     46.82      0.00
    2    0    3     -5.67      0.00
    3    0    3     -3.86      0.00
    4    0    3     -8.26      0.00
    5    0    3     -2.16      0.00
    6    0    3     -0.53      0.00
    7    0    3      0.29      0.00
    8    0    3      1.83      0.00
    9    0    3      0.59      0.00
   10    0    3     -0.47      0.00
   11    0    3      0.01      0.00
   12    0    3      0.58      0.00
   13    0    3     -0.23      0.00
  -12    1    3     -0.52      0.00
  -11    1    3     -0.33      0.00
  -10    1    3     -0.11      0.00
   -9    1    3     -2.07      0.00
   -8    1    3     -0.10      0.00
   -7    1    3      0.74      0.00
   -6    1    3      0.78      0.00
   -5    1    3      1.22      0.00
   -4    1    3      2.04      0.00
   -3    1    3      8.23      0.00
   -2    1    3      2.40      0.00
   -1    1    3    -43.66      0.00
    0    1    3     -5.30      0.00
    1    1    3     56.86      0.00
    2    1    3     19.57      0.00
    3    1    3      9.60      0.00
    4    1    3     -4.00      0.00
    5    1    3     -1.35      0.00
    6    1    3      1.04      0.00
    7    1    3     -2.07      0.00
    8    1    3     -0.23      0.00
    9    1    3      0.84      0.00
   10    1    3      0.67      0.00
   11    1    3      0.06      0.00
   12    1    3     -0.14      0.00
   13    1    3     -0.32      0.00
  -12    2    3     -1.27      0.00
  -11    2    3     -0.88      0.00
  -10    2    3      1.43      0.00
   -9    2    3     -0.56      0.00
   -8    2    3     -1.08      0.00
   -7    2    3     -0.34      0.00
   -6    2    3     -0.18      0.00
   -5    2    3      0.20      0.00
   -4    2    3     -1.71      0.00
   -3    2    3      0.53      0.00
   -2    2    3     23.68      0.00
   -1    2    3     12.34      0.00
    0    2    3      0.23      0.00
    1    2    3     30.58      0.00
    2    2    3     -0.75      0.00
    3    2    3     -0.77      0.00
    4    2    3     -1.80      0.00
    5    2    3     -2.34      0.00
    6    2    3      4.70      0.00
    7    2    3      1.45      0.00
    8    2    3     -0.05      0.00
    9    2    3      0.24      0.00
   10    2    3      0.25      0.00
   11    2    3      0.38      0.00
   12    2    3      0.10      0.00
   13    2    3     -0.45      0.00
  -12    3    3      0.07      0.00
  -11    3    3     -0.48      0.00
  -10    3    3      0.58      0.00
   -9    3    3      0.87      0.00
   -8    3    3     -0.15      0.00
   -7    3    3      0.20      0.00
   -6    3    3      0.04      0.00
   -5    3    3      0.60      0.00
   -4    3    3     -0.74      0.00
   -3    3    3    -10.44      0.00
   -2    3    3     -0.22      0.00
   -1    3    3     20.54      0.00
    0    3    3     19.37      0.00
    1    3    3     31.58      0.00
    2    3    3      3.97      0.00
    3    3    3     -3.66      0.00
    4    3    3      1.42      0.00
    5    3    3     -4.91      0.00
    6    3    3     -1.08      0.00
    7    3    3     -0.29      0.00
    8    3    3      0.76      0.00
    9    3    3      1.29      0.00
   10    3    3      0.04      0.00
   11    3    3      0.08      0.00
   12    3    3      0.57      0.00
   13    3    3     -0.47      0.00
   14    3    3      0.10      0.00
  -11    4    3      1.73      0.00
  -10    4    3      0.26      0.00
   -9    4    3      0.19      0.00
   -8    4    3      0.19      0.00
   -7    4    3      0.34      0.00
   -6    4    3      0.12      0.00
   -5    4    3      0.20      0.00
   -4    4    3      2.85      0.00
   -3    4    3      1.02      0.00
   -2    4    3     -1.82      0.00
   -1    4    3      6.30      0.00
    0    4    3      2.38      0.00
    1    4    3      6.11      0.00
    2    4    3      0.20      0.00
    3    4    3     -2.72      0.00
    4    4    3      5.82      0.00
    5    4    3      2.55      0.00
    6    4    3      1.50      0.00
    7    4    3     -1.13      0.00
    8    4    3     -0.80      0.00
    9    4    3     -0.01      0.00
   10    4    3     -0.76      0.00
   11    4    3      0.18      0.00
   12    4    3      1.24      0.00
   13    4    3     -0.11      0.00
   14    4    3      0.04      0.00
  -11    5    3      1.23      0.00
  -10    5    3      0.39      0.00
   -9    5    3      0.15      0.00
   -8    5    3      0.37      0.00
   -7    5    3      0.26      0.00
   -6    5    3      0.65      0.00
   -5    5    3     -0.06      0.00
   -4    5    3     -1.19      0.00
   -3    5    3      0.69      0.00
   -2    5    3      2.94      0.00
   -1    5    3      9.80      0.00
    0    5    3      6.99      0.00
    1    5    3      0.87      0.00
    2    5    3     -2.01      0.00
    3    5    3     -4.11      0.00
    4    5    3     -0.74      0.00
    5    5    3     -1.07      0.00
    6    5    3      1.25      0.00
    7    5    3      0.96      0.00
    8    5    3      0.82      0.00
    9    5    3      0.40      0.00
   10    5    3     -0.97      0.00
   11    5    3     -0.11      0.00
   12    5    3      0.96      0.00
   13    5    3      0.14      0.00
   14    5    3      0.24      0.00
  -11    6    3      0.23      0.00
  -10    6    3     -0.29      0.00
   -9    6    3      0.54      0.00
   -8    6    3      1.10      0.00
   -7    6    3     -0.31      0.00
   -6    6    3      0.23      0.00
   -5    6    3      1.29      0.00
   -4    6    3      0.48      0.00
   -3    6    3      0.07      0.00
   -2    6    3     -0.12      0.00
   -1    6    3      1.65      0.00
    0    6    3      2.38      0.00
    1    6    3      0.06      0.00
    2    6    3     -0.73      0.00
    3    6    3      1.29      0.00
    4    6    3      3.17      0.00
    5    6    3     -0.33      0.00
    6    6    3     -0.99      0.00
    7    6    3     -0.77      0.00
    8    6    3     -0.11      0.00
    9    6    3      0.73      0.00
   10    6    3      0.42      0.00
   11    6    3      0.78      0.00
   12    6    3      0.40      0.00
   13    6    3      0.27      0.00
   14    6    3      0.74      0.00
  -10    7    3     -0.36      0.00
   -9    7    3     -0.19      0.00
   -8    7    3      1.44      0.00
   -7    7    3      0.07      0.00
   -6    7    3     -0.60      0.00
   -5    7    3     -0.46      0.00
   -4    7    3      0.38      0.00
   -3    7    3      1.76      0.00
   -2    7    3      3.15      0.00
   -1    7    3      1.24      0.00
    0    7    3     -1.05      0.00
    1    7    3     -1.17      0.00
    2    7    3     -2.99      0.00
    3    7    3     -2.49      0.00
    4    7    3      1.54      0.00
    5    7    3      0.75      0.00
    6    7    3      0.28      0.00
    7    7    3      0.19      0.00
    8    7    3     -0.51      0.00
    9    7    3      0.17      0.00
   10    7    3      0.17      0.00
   11    7    3      0.71      0.00
   12    7    3     -0.41      0.00
   13    7    3     -0.41      0.00
   14    7    3      0.46      0.00
  -10    8    3      0.49      0.00
   -9    8    3     -0.15      0.00
   -8    8    3      0.85      0.00
   -7    8    3      0.31      0.00
   -6    8    3      0.37      0.00
   -5    8    3     -0.41      0.00
   -4    8    3     -0.66      0.00
   -3    8    3     -0.55      0.00
   -2    8    3      0.41      0.00
   -1    8    3     -0.75      0.00
    0    8    3     -3.14      0.00
    1    8    3      1.23      0.00
    2    8    3      3.78      0.00
    3    8    3      1.20      0.00
    4    8    3      0.67      0.00
    5    8    3     -1.20      0.00
    6    8    3     -0.87      0.00
    7    8    3      0.41      0.00
    8    8    3     -0.77      0.00
    9    8    3     -0.16      0.00
   10    8    3      0.36      0.00
   11    8    3      0.74      0.00
   12    8    3     -0.19      0.00
   13    8    3     -0.64      0.00
   14    8    3     -0.27      0.00
   -9    9    3     -0.26      0.00
   -8    9    3      0.60      0.00
   -7    9    3     -0.17      0.00
   -6    9    3     -0.11      0.00
   -5    9    3      0.12      0.00
   -4    9    3      0.42      0.00
   -3    9    3      0.53      0.00
   -2    9    3      0.47      0.00
   -1    9    3      0.26      0.00
    0    9    3     -3.63      0.00
    1    9    3     -2.10      0.00
    2    9    3      1.32      0.00
    3    9    3      0.44      0.00
    4    9    3      1.03      0.00
    5    9    3      0.22      0.00
    6    9    3      0.43      0.00
    7    9    3      2.39      0.00
    8    9    3      0.00      0.00
    9    9    3     -1.66      0.00
   10    9    3     -0.55      0.00
   11    9    3      0.43      0.00
   12    9    3      0.39      0.00
   13    9    3     -0.53      0.00
   14    9    3     -0.40      0.00
   -8   10    3      0.42      0.00
   -7   10    3      0.23      0.00
   -6   10    3     -0.99      0.00
   -5   10    3     -0.80      0.00
   -4   10    3     -0.49      0.00
   -3   10    3     -0.10      0.00
   -2   10    3     -0.33      0.00
   -1   10    3      2.27      0.00
    0   10    3      1.64      0.00
    1   10    3      0.14      0.00
    2   10    3      0.49      0.00
    3   10    3     -1.49      0.00
    4   10    3     -1.05      0.00
    5   10    3     -1.01      0.00
    6   10    3     -1.96      0.00
    7   10    3      1.23      0.00
    8   10    3      1.16      0.00
    9   10    3     -0.97      0.00
   10   10    3     -0.19      0.00
   11   10    3      0.43      0.00
   12   10    3      0.54      0.00
   13   10    3     -0.18      0.00
   14   10    3     -0.10      0.00
   -8   11    3     -0.24      0.00
   -7   11    3      0.83      0.00
   -6   11    3     -0.10      0.00
   -5   11    3     -0.06      0.00
   -4   11    3      0.06      0.00
   -3   11    3      0.34      0.00
   -2   11    3     -1.82      0.00
   -1   11    3     -1.48      0.00
    0   11    3      0.44      0.00
    1   11    3     -0.21      0.00
    2   11    3      0.39      0.00
    3   11    3      0.36      0.00
    4   11    3      1.21      0.00
    5   11    3      1.47      0.00
    6   11    3     -2.14      0.00
    7   11    3     -1.85      0.00
    8   11    3     -0.43      0.00
    9   11    3     -1.28      0.00
   10   11    3     -0.37      0.00
   11   11    3      0.45      0.00
   12   11    3     -0.01      0.00
   13   11    3     -0.05      0.00
   -7   12    3     -0.30      0.00
   -6   12    3     -0.47      0.00
   -5   12    3     -0.22      0.00
   -4   12    3     -0.06      0.00
   -3   12    3      0.63      0.00
   -2   12    3     -0.26      0.00
   -1   12    3     -1.34      0.00
    0   12    3     -0.49      0.00
    1   12    3     -0.71      0.00
    2   12    3     -0.99      0.00
    3   12    3     -1.17      0.00
    4   12    3     -0.70      0.00
    5   12    3      1.72      0.00
    6   12    3      1.27      0.00
    7   12    3     -0.53      0.00
    8   12    3      0.35      0.00
    9   12    3     -0.16      0.00
   10   12    3     -0.31      0.00
   11   12    3     -0.30      0.00
   12   12    3     -0.75      0.00
   13   12    3     -0.28      0.00
   -6   13    3     -0.89      0.00
   -5   13    3     -1.07      0.00
   -4   13    3     -0.59      0.00
   -3   13    3     -0.42      0.00
   -2   13    3     -0.90      0.00
   -1   13    3     -0.45      0.00
    0   13    3      0.49      0.00
    1   13    3      1.13      0.00
    2   13    3      0.37      0.00
    3   13    3     -0.55      0.00
    4   13    3     -1.91      0.00
    5   13    3     -0.82      0.00
    6   13    3      1.82      0.00
    7   13    3      0.90      0.00
    8   13    3      0.96      0.00
    9   13    3      0.35      0.00
   10   13    3      0.46      0.00
   11   13    3      0.08      0.00
   12   13    3     -0.02      0.00
   13   13    3      0.03      0.00
   -5   14    3     -0.94      0.00
   -4   14    3     -0.85      0.00
   -3   14    3      0.33      0.00
   -2   14    3      0.06      0.00
   -1   14    3      0.25      0.00
    0   14    3      0.21      0.00
    1   14    3      0.62      0.00
    2   14    3     -0.10      0.00
    3   14    3     -0.09      0.00
    4   14    3     -0.41      0.00
    5   14    3     -0.36      0.00
    6   14    3     -0.02      0.00
    7   14    3     -0.35      0.00
    8   14    3      0.01      0.00
    9   14    3      0.07      0.00
   10   14    3      0.24      0.00
   11   14    3     -0.68      0.00
   12   14    3     -0.15      0.00
   -4   15    3     -1.08      0.00
   -3   15    3     -0.56      0.00
   -2   15    3      0.46      0.00
   -1   15    3      1.03      0.00
    0   15    3      0.30      0.00
    1   15    3      0.16      0.00
    2   15    3     -0.23      0.00
    3   15    3     -0.08      0.00
    4   15    3     -0.95      0.00
    5   15    3      0.38      0.00
    6   15    3     -0.06      0.00
    7   15    3     -0.46      0.00
    8   15    3     -0.28      0.00
    9   15    3      0.44      0.00
   10   15    3      0.78      0.00
   11   15    3     -0.25      0.00
   12   15    3     -1.21      0.00
   -3   16    3     -0.69      0.00
   -2   16    3     -0.21      0.00
   -1   16    3      0.43      0.00
    0   16    3     -0.06      0.00
    1   16    3     -0.16      0.00
    2   16    3      0.57      0.00
    3   16    3      1.59      0.00
    4   16    3      0.00      0.00
    5   16    3     -0.53      0.00
    6   16    3     -0.25      0.00
    7   16    3      0.03      0.00
    8   16    3      0.51      0.00
    9   16    3      1.71      0.00
   10   16    3      1.01      0.00
   11   16    3      0.27      0.00
   -1   17    3      0.34      0.00
    0   17    3      0.07      0.00
    1   17    3     -0.80      0.00
    2   17    3      0.01      0.00
    3   17    3      0.65      0.00
    4   17    3      1.15      0.00
    5   17    3     -0.27      0.00
    6   17    3     -0.19      0.00
    7   17    3     -0.06      0.00
    8   17    3     -0.05      0.00
    9   17    3      0.89      0.00
   10   17    3      1.14      0.00
    1   18    3     -0.64      0.00
    2   18    3     -0.19      0.00
    3   18    3     -0.72      0.00
    4   18    3      0.37      0.00
    5   18    3     -0.15      0.00
    6   18    3      0.06      0.00
    7   18    3     -0.79      0.00
    8   18    3     -0.16      0.00
    9   18    3      0.06      0.00
    4   19    3     -0.09      0.00
    5   19    3     -0.59      0.00
    6   19    3      0.88      0.00
   -7  -16    4      0.20      0.00
   -6  -16    4     -0.77      0.00
   -5  -16    4     -0.89      0.00
   -4  -16    4      0.43      0.00
   -3  -16    4     -0.56      0.00
   -2  -16    4     -1.34      0.00
   -1  -16    4     -0.09      0.00
    0  -16    4      0.12      0.00
   -8  -15    4      0.36      0.00
   -7  -15    4      0.35      0.00
   -6  -15    4     -0.18      0.00
   -5  -15    4     -0.28      0.00
   -4  -15    4      0.22      0.00
   -3  -15    4     -0.24      0.00
   -2  -15    4     -0.69      0.00
   -1  -15    4     -0.18      0.00
    0  -15    4      0.45      0.00
    1  -15    4      0.24      0.00
    2  -15    4      1.03      0.00
  -10  -14    4     -1.24      0.00
   -9  -14    4     -0.80      0.00
   -8  -14    4      0.00      0.00
   -7  -14    4      0.20      0.00
   -6  -14    4      0.43      0.00
   -5  -14    4      0.18      0.00
   -4  -14    4      0.45      0.00
   -3  -14    4     -0.29      0.00
   -2  -14    4     -0.52      0.00
   -1  -14    4      0.13      0.00
    0  -14    4      1.21      0.00
    1  -14    4      0.73      0.00
    2  -14    4      0.18      0.00
    3  -14    4      1.19      0.00
  -10  -13    4     -1.08      0.00
   -9  -13    4     -1.09      0.00
   -8  -13    4     -0.28      0.00
   -7  -13    4     -0.49      0.00
   -6  -13    4      0.29      0.00
   -5  -13    4     -0.19      0.00
   -4  -13    4     -0.12      0.00
   -3  -13    4      0.07      0.00
   -2  -13    4     -0.72      0.00
   -1  -13    4     -0.25      0.00
    0  -13    4     -0.38      0.00
    1  -13    4      0.92      0.00
    2  -13    4     -0.47      0.00
    3  -13    4      0.90      0.00
    4  -13    4      0.64      0.00
    5  -13    4     -0.24      0.00
  -11  -12    4     -0.08      0.00
  -10  -12    4      0.15      0.00
   -9  -12    4     -0.06      0.00
   -8  -12    4      0.27      0.00
   -7  -12    4     -0.11      0.00
   -6  -12    4     -0.53      0.00
   -5  -12    4     -0.65      0.00
   -4  -12    4     -1.02      0.00
   -3  -12    4      0.01      0.00
   -2  -12    4     -0.06      0.00
   -1  -12    4      0.61      0.00
    0  -12    4     -0.63      0.00
    1  -12    4      0.49      0.00
    2  -12    4     -0.08      0.00
    3  -12    4     -0.35      0.00
    4  -12    4      0.09      0.00
    5  -12    4      0.10      0.00
    6  -12    4     -0.02      0.00
  -11  -11    4      0.03      0.00
  -10  -11    4      0.60      0.00
   -9  -11    4      0.11      0.00
   -8  -11    4     -0.44      0.00
   -7  -11    4      0.15      0.00
   -6  -11    4     -0.27      0.00
   -5  -11    4      0.33      0.00
   -4  -11    4      0.16      0.00
   -3  -11    4     -0.65      0.00
   -2  -11    4     -0.71      0.00
   -1  -11    4      0.19      0.00
    0  -11    4     -0.25      0.00
    1  -11    4     -0.69      0.00
    2  -11    4     -0.05      0.00
    3  -11    4      0.06      0.00
    4  -11    4     -0.36      0.00
    5  -11    4     -0.70      0.00
    6  -11    4      0.05      0.00
    7  -11    4      0.28      0.00
  -12  -10    4      0.25      0.00
  -11  -10    4      0.15      0.00
  -10  -10    4      0.77      0.00
   -9  -10    4      0.22      0.00
   -8  -10    4     -0.51      0.00
   -7  -10    4     -0.12      0.00
   -6  -10    4     -0.64      0.00
   -5  -10    4      0.01      0.00
   -4  -10    4      0.54      0.00
   -3  -10    4      0.13      0.00
   -2  -10    4      0.48      0.00
   -1  -10    4      0.36      0.00
    0  -10    4      0.62      0.00
    1  -10    4     -0.39      0.00
    2  -10    4     -1.60      0.00
    3  -10    4     -0.73      0.00
    4  -10    4      0.05      0.00
    5  -10    4     -0.05      0.00
    6  -10    4      0.56      0.00
    7  -10    4      0.27      0.00
    8  -10    4     -0.94      0.00
  -12   -9    4      0.72      0.00
  -11   -9    4      0.33      0.00
  -10   -9    4      0.15      0.00
   -9   -9    4     -0.08      0.00
   -8   -9    4      0.29      0.00
   -7   -9    4      0.59      0.00
   -6   -9    4     -0.94      0.00
   -5   -9    4     -0.89      0.00
   -4   -9    4     -0.52      0.00
   -3   -9    4     -0.62      0.00
   -2   -9    4      0.95      0.00
   -1   -9    4      0.07      0.00
    0   -9    4     -0.12      0.00
    1   -9    4      1.59      0.00
    2   -9    4     -0.33      0.00
    3   -9    4     -0.51      0.00
    4   -9    4      0.04      0.00
    5   -9    4     -0.16      0.00
    6   -9    4      0.73      0.00
    7   -9    4      1.03      0.00
    8   -9    4     -0.62      0.00
  -12   -8    4      0.31      0.00
  -11   -8    4      0.59      0.00
  -10   -8    4      0.07      0.00
   -9   -8    4     -0.74      0.00
   -8   -8    4     -0.41      0.00
   -7   -8    4     -0.22      0.00
   -6   -8    4     -0.89      0.00
   -5   -8    4     -0.51      0.00
   -4   -8    4      1.20      0.00
   -3   -8    4      0.52      0.00
   -2   -8    4      1.25      0.00
   -1   -8    4     -0.93      0.00
    0   -8    4     -2.93      0.00
    1   -8    4      0.86      0.00
    2   -8    4      0.56      0.00
    3   -8    4     -0.17      0.00
    4   -8    4      0.58      0.00
    5   -8    4      0.41      0.00
    6   -8    4     -0.15      0.00
    7   -8    4     -0.34      0.00
    8   -8    4     -0.78      0.00
    9   -8    4      0.69      0.00
  -13   -7    4      0.16      0.00
  -12   -7    4      0.00      0.00
  -11   -7    4     -0.06      0.00
  -10   -7    4      0.12      0.00
   -9   -7    4     -0.72      0.00
   -8   -7    4     -0.82      0.00
   -7   -7    4     -1.56      0.00
   -6   -7    4     -0.96      0.00
   -5   -7    4      0.31      0.00
   -4   -7    4      2.51      0.00
   -3   -7    4      0.45      0.00
   -2   -7    4      0.87      0.00
   -1   -7    4      0.06      0.00
    0   -7    4     -2.62      0.00
    1   -7    4     -0.13      0.00
    2   -7    4      0.11      0.00
    3   -7    4     -0.80      0.00
    4   -7    4     -0.53      0.00
    5   -7    4     -0.07      0.00
    6   -7    4      0.05      0.00
    7   -7    4     -0.51      0.00
    8   -7    4     -0.97      0.00
    9   -7    4     -0.28      0.00
   10   -7    4      0.14      0.00
  -13   -6    4     -0.14      0.00
  -12   -6    4      0.18      0.00
  -11   -6    4      0.05      0.00
  -10   -6    4      0.05      0.00
   -9   -6    4     -0.07      0.00
   -8   -6    4      0.25      0.00
   -7   -6    4     -0.35      0.00
   -6   -6    4     -0.05      0.00
   -5   -6    4      0.84      0.00
   -4   -6    4      1.82      0.00
   -3   -6    4     -2.27      0.00
   -2   -6    4     -2.91      0.00
   -1   -6    4     -0.49      0.00
    0   -6    4     -0.72      0.00
    1   -6    4      1.01      0.00
    2   -6    4      0.77      0.00
    3   -6    4      0.09      0.00
    4   -6    4      0.18      0.00
    5   -6    4      0.10      0.00
    6   -6    4     -0.20      0.00
    7   -6    4     -0.50      0.00
    8   -6    4      0.46      0.00
    9   -6    4      0.80      0.00
   10   -6    4     -0.11      0.00
  -12   -5    4     -0.28      0.00
  -11   -5    4      0.14      0.00
  -10   -5    4      0.04      0.00
   -9   -5    4     -0.30      0.00
   -8   -5    4      0.03      0.00
   -7   -5    4      0.04      0.00
   -6   -5    4     -0.29      0.00
   -5   -5    4     -0.25      0.00
   -4   -5    4      0.49      0.00
   -3   -5    4     -1.52      0.00
   -2   -5    4     -1.98      0.00
   -1   -5    4      0.10      0.00
    0   -5    4     -0.65      0.00
    1   -5    4     -0.09      0.00
    2   -5    4     -0.88      0.00
    3   -5    4     -0.12      0.00
    4   -5    4      0.49      0.00
    5   -5    4      1.33      0.00
    6   -5    4      1.04      0.00
    7   -5    4     -0.44      0.00
    8   -5    4     -0.69      0.00
    9   -5    4      0.36      0.00
   10   -5    4     -0.08      0.00
   11   -5    4     -0.34      0.00
  -10   -4    4      0.44      0.00
   -9   -4    4     -0.19      0.00
   -8   -4    4     -0.83      0.00
   -7   -4    4     -0.70      0.00
   -6   -4    4     -0.21      0.00
   -5   -4    4     -0.09      0.00
   -4   -4    4     -0.58      0.00
   -3   -4    4     -2.63      0.00
   -2   -4    4     -1.25      0.00
   -1   -4    4      2.01      0.00
    0   -4    4      0.64      0.00
    1   -4    4      1.38      0.00
    2   -4    4     -1.67      0.00
    3   -4    4     -0.56      0.00
    4   -4    4     -0.33      0.00
    5   -4    4     -0.17      0.00
    6   -4    4      0.97      0.00
    7   -4    4      0.86      0.00
    8   -4    4     -0.34      0.00
    9   -4    4     -0.40      0.00
   10   -4    4     -0.09      0.00
   11   -4    4     -0.29      0.00
  -13   -3    4      0.70      0.00
  -10   -3    4      0.14      0.00
   -9   -3    4      0.15      0.00
   -8   -3    4     -1.13      0.00
   -7   -3    4     -1.65      0.00
   -6   -3    4     -0.78      0.00
   -5   -3    4      0.72      0.00
   -4   -3    4      2.11      0.00
   -3   -3    4     -1.34      0.00
   -2   -3    4     -2.28      0.00
   -1   -3    4      0.78      0.00
    0   -3    4     -3.76      0.00
    1   -3    4     -0.03      0.00
    2   -3    4     -3.12      0.00
    3   -3    4     -1.63      0.00
    4   -3    4      2.26      0.00
    5   -3    4      0.57      0.00
    6   -3    4      0.66      0.00
    7   -3    4      0.88      0.00
    8   -3    4      0.74      0.00
    9   -3    4      0.58      0.00
   10   -3    4     -0.01      0.00
   11   -3    4     -0.10      0.00
   12   -3    4      0.49      0.00
  -13   -2    4      0.84      0.00
  -12   -2    4      0.05      0.00
  -11   -2    4     -1.16      0.00
  -10   -2    4     -1.30      0.00
   -9   -2    4      0.07      0.00
   -8   -2    4      0.35      0.00
   -7   -2    4      0.60      0.00
   -6   -2    4      0.18      0.00
   -5   -2    4     -1.85      0.00
   -4   -2    4     -1.53      0.00
   -3   -2    4     -2.47      0.00
   -2   -2    4     -1.85      0.00
   -1   -2    4      3.85      0.00
    0   -2    4     -6.58      0.00
    1   -2    4      2.67      0.00
    2   -2    4      4.82      0.00
    3   -2    4     -6.68      0.00
    4   -2    4     -1.74      0.00
    5   -2    4      0.03      0.00
    6   -2    4      1.02      0.00
    7   -2    4      0.84      0.00
    8   -2    4      0.13      0.00
    9   -2    4      0.98      0.00
   10   -2    4      0.34      0.00
   11   -2    4     -0.75      0.00
   12   -2    4     -0.03      0.00
  -12   -1    4      0.15      0.00
  -11   -1    4     -0.71      0.00
  -10   -1    4     -1.55      0.00
   -9   -1    4     -1.16      0.00
   -8   -1    4     -0.50      0.00
   -7   -1    4      0.80      0.00
   -6   -1    4      2.04      0.00
   -5   -1    4      0.36      0.00
   -4   -1    4     -1.42      0.00
   -3   -1    4     -2.26      0.00
   -2   -1    4     -2.31      0.00
   -1   -1    4      5.27      0.00
    0   -1    4    -19.06      0.00
    1   -1    4    -15.04      0.00
    2   -1    4     19.37      0.00
    3   -1    4      6.38      0.00
    4   -1    4     -1.31      0.00
    5   -1    4     -1.95      0.00
    6   -1    4     -0.57      0.00
    7   -1    4      0.69      0.00
    8   -1    4     -0.35      0.00
    9   -1    4      0.08      0.00
   10   -1    4      0.81      0.00
   11   -1    4      0.10      0.00
   12   -1    4      0.23      0.00
   13   -1    4      0.58      0.00
  -12    0    4      1.23      0.00
  -11    0    4      0.47      0.00
  -10    0    4      0.20      0.00
   -9    0    4      0.02      0.00
   -8    0    4     -0.37      0.00
   -7    0    4     -1.37      0.00
   -6    0    4     -1.05      0.00
   -5    0    4      0.37      0.00
   -4    0    4      2.35      0.00
   -3    0    4      2.79      0.00
   -2    0    4     -0.57      0.00
   -1    0    4     19.44      0.00
    0    0    4      4.86      0.00
    1    0    4    -30.80      0.00
    2    0    4     -0.69      0.00
    3    0    4      4.63      0.00
    4    0    4      1.10      0.00
    5    0    4      1.23      0.00
    6    0    4      0.22      0.00
    7    0    4      2.10      0.00
    8    0    4      0.53      0.00
    9    0    4     -0.82      0.00
   10    0    4      0.35      0.00
   11    0    4      0.99      0.00
   12    0    4      0.80      0.00
   13    0    4      0.03      0.00
  -12    1    4      0.83      0.00
  -11    1    4      0.29      0.00
  -10    1    4      0.00      0.00
   -9    1    4      0.30      0.00
   -8    1    4      1.15      0.00
   -7    1    4     -0.40      0.00
   -6    1    4     -1.41      0.00
   -5    1    4     -1.11      0.00
   -4    1    4      1.66      0.00
   -3    1    4      1.57      0.00
   -2    1    4    -16.48      0.00
   -1    1    4     -2.15      0.00
    0    1    4     35.29      0.00
    1    1    4     12.75      0.00
    2    1    4      6.52      0.00
    3    1    4     -1.71      0.00
    4    1    4     -8.25      0.00
    5    1    4     -1.11      0.00
    6    1    4     -2.40      0.00
    7    1    4      1.18      0.00
    8    1    4      1.89      0.00
    9    1    4     -0.36      0.00
   10    1    4     -0.17      0.00
   11    1    4      0.27      0.00
   12    1    4      0.60      0.00
   13    1    4     -0.42      0.00
  -12    2    4     -0.45      0.00
  -11    2    4     -0.29      0.00
  -10    2    4     -0.23      0.00
   -9    2    4     -1.30      0.00
   -8    2    4      0.55      0.00
   -7    2    4      0.26      0.00
   -6    2    4      0.35      0.00
   -5    2    4      0.51      0.00
   -4    2    4      2.53      0.00
   -3    2    4      8.55      0.00
   -2    2    4     -7.00      0.00
   -1    2    4    -25.62      0.00
    0    2    4      8.83      0.00
    1    2    4     20.98      0.00
    2    2    4     15.84      0.00
    3    2    4     10.02      0.00
    4    2    4     -4.26      0.00
    5    2    4      2.19      0.00
    6    2    4     -0.58      0.00
    7    2    4     -1.36      0.00
    8    2    4      0.19      0.00
    9    2    4     -0.39      0.00
   10    2    4      0.52      0.00
   11    2    4      0.30      0.00
   12    2    4     -0.24      0.00
   13    2    4     -0.62      0.00
  -12    3    4     -0.79      0.00
  -11    3    4     -0.75      0.00
  -10    3    4      1.28      0.00
   -9    3    4     -0.52      0.00
   -8    3    4     -0.16      0.00
   -7    3    4     -0.32      0.00
   -6    3    4     -0.15      0.00
   -5    3    4      0.16      0.00
   -4    3    4     -1.43      0.00
   -3    3    4      3.67      0.00
   -2    3    4     11.70      0.00
   -1    3    4      0.54      0.00
    0    3    4      7.86      0.00
    1    3    4     11.86      0.00
    2    3    4     -1.37      0.00
    3    3    4      2.21      0.00
    4    3    4     -5.20      0.00
    5    3    4      0.86      0.00
    6    3    4      2.97      0.00
    7    3    4      1.20      0.00
    8    3    4      1.07      0.00
    9    3    4     -0.35      0.00
   10    3    4     -0.13      0.00
   11    3    4      0.06      0.00
   12    3    4     -0.18      0.00
   13    3    4     -0.45      0.00
   14    3    4      0.95      0.00
  -11    4    4     -0.13      0.00
  -10    4    4      1.36      0.00
   -9    4    4      0.49      0.00
   -8    4    4      0.46      0.00
   -7    4    4      0.10      0.00
   -6    4    4     -0.39      0.00
   -5    4    4      0.79      0.00
   -4    4    4     -0.22      0.00
   -3    4    4     -4.55      0.00
   -2    4    4      1.33      0.00
   -1    4    4      4.58      0.00
    0    4    4     10.35      0.00
    1    4    4     14.47      0.00
    2    4    4      0.32      0.00
    3    4    4      2.43      0.00
    4    4    4     -1.44      0.00
    5    4    4     -1.74      0.00
    6    4    4     -0.20      0.00
    7    4    4     -0.90      0.00
    8    4    4      1.17      0.00
    9    4    4      0.77      0.00
   10    4    4      0.32      0.00
   11    4    4      0.16      0.00
   12    4    4     -0.08      0.00
   13    4    4     -0.69      0.00
   14    4    4      0.98      0.00
  -11    5    4      0.73      0.00
  -10    5    4      1.21      0.00
   -9    5    4      0.15      0.00
   -8    5    4      0.15      0.00
   -7    5    4      0.37      0.00
   -6    5    4     -0.47      0.00
   -5    5    4      0.04      0.00
   -4    5    4      2.10      0.00
   -3    5    4      0.65      0.00
   -2    5    4      1.49      0.00
   -1    5    4      2.77      0.00
    0    5    4      1.67      0.00
    1    5    4      2.89      0.00
    2    5    4     -3.99      0.00
    3    5    4     -0.25      0.00
    4    5    4      2.40      0.00
    5    5    4      2.38      0.00
    6    5    4      2.63      0.00
    7    5    4     -0.93      0.00
    8    5    4     -0.18      0.00
    9    5    4     -0.72      0.00
   10    5    4     -0.78      0.00
   11    5    4      0.43      0.00
   12    5    4      0.73      0.00
   13    5    4     -0.82      0.00
   14    5    4      0.63      0.00
  -10    6    4      0.72      0.00
   -9    6    4      0.33      0.00
   -8    6    4     -0.28      0.00
   -7    6    4      0.47      0.00
   -6    6    4      0.49      0.00
   -5    6    4     -0.28      0.00
   -4    6    4     -0.23      0.00
   -3    6    4     -0.10      0.00
   -2    6    4      1.00      0.00
   -1    6    4      4.98      0.00
    0    6    4      5.08      0.00
    1    6    4      2.89      0.00
    2    6    4     -2.50      0.00
    3    6    4     -2.28      0.00
    4    6    4     -1.12      0.00
    5    6    4     -0.58      0.00
    6    6    4      1.62      0.00
    7    6    4     -0.21      0.00
    8    6    4      0.88      0.00
    9    6    4      0.11      0.00
   10    6    4     -0.26      0.00
   11    6    4      0.46      0.00
   12    6    4      1.02      0.00
   13    6    4     -0.50      0.00
   14    6    4      0.50      0.00
  -10    7    4     -0.07      0.00
   -9    7    4      0.72      0.00
   -8    7    4     -0.06      0.00
   -7    7    4     -0.30      0.00
   -6    7    4      0.38      0.00
   -5    7    4      0.77      0.00
   -4    7    4      0.75      0.00
   -3    7    4      1.09      0.00
   -2    7    4     -0.26      0.00
   -1    7    4     -0.44      0.00
    0    7    4      0.05      0.00
    1    7    4     -1.06      0.00
    2    7    4     -1.93      0.00
    3    7    4      1.76      0.00
    4    7    4      2.83      0.00
    5    7    4      0.90      0.00
    6    7    4      0.64      0.00
    7    7    4     -1.71      0.00
    8    7    4      0.08      0.00
    9    7    4      0.49      0.00
   10    7    4      0.81      0.00
   11    7    4      1.05      0.00
   12    7    4      0.39      0.00
   13    7    4     -0.37      0.00
   14    7    4      0.82      0.00
   -9    8    4      0.23      0.00
   -8    8    4      0.30      0.00
   -7    8    4     -0.10      0.00
   -6    8    4     -0.38      0.00
   -5    8    4     -0.49      0.00
   -4    8    4     -0.08      0.00
   -3    8    4      1.48      0.00
   -2    8    4      1.85      0.00
   -1    8    4     -0.02      0.00
    0    8    4     -0.77      0.00
    1    8    4     -1.45      0.00
    2    8    4     -2.54      0.00
    3    8    4     -0.15      0.00
    4    8    4      0.89      0.00
    5    8    4     -0.23      0.00
    6    8    4      0.58      0.00
    7    8    4     -1.49      0.00
    8    8    4     -0.22      0.00
    9    8    4      1.15      0.00
   10    8    4      0.81      0.00
   11    8    4      1.07      0.00
   12    8    4     -0.46      0.00
   13    8    4     -1.12      0.00
   14    8    4     -0.16      0.00
   -9    9    4      0.26      0.00
   -8    9    4      0.30      0.00
   -7    9    4      0.14      0.00
   -6    9    4      0.65      0.00
   -5    9    4     -0.38      0.00
   -4    9    4     -0.63      0.00
   -3    9    4     -0.80      0.00
   -2    9    4     -0.12      0.00
   -1    9    4     -1.14      0.00
    0    9    4     -1.67      0.00
    1    9    4      0.83      0.00
    2    9    4      1.77      0.00
    3    9    4      2.43      0.00
    4    9    4      1.17      0.00
    5    9    4     -1.32      0.00
    6    9    4      0.09      0.00
    7    9    4     -1.15      0.00
    8    9    4     -1.32      0.00
    9    9    4      0.80      0.00
   10    9    4      0.76      0.00
   11    9    4      1.10      0.00
   12    9    4     -0.18      0.00
   13    9    4     -1.00      0.00
   14    9    4     -0.69      0.00
   -8   10    4      0.34      0.00
   -7   10    4     -1.08      0.00
   -6   10    4      0.42      0.00
   -5   10    4      0.02      0.00
   -4   10    4      0.52      0.00
   -3   10    4     -0.21      0.00
   -2   10    4      0.38      0.00
   -1   10    4      0.79      0.00
    0   10    4     -1.75      0.00
    1   10    4     -0.76      0.00
    2   10    4     -0.50      0.00
    3   10    4     -0.38      0.00
    4   10    4      0.45      0.00
    5   10    4     -0.49      0.00
    6   10    4      2.13      0.00
    7   10    4      2.09      0.00
    8   10    4     -0.76      0.00
    9   10    4     -0.62      0.00
   10   10    4     -0.02      0.00
   11   10    4      0.53      0.00
   12   10    4      0.03      0.00
   13   10    4     -1.43      0.00
   14   10    4     -0.54      0.00
   -8   11    4      0.90      0.00
   -7   11    4     -0.71      0.00
   -6   11    4     -0.87      0.00
   -5   11    4     -0.83      0.00
   -4   11    4     -0.05      0.00
   -3   11    4     -0.73      0.00
   -2   11    4     -0.92      0.00
   -1   11    4      1.69      0.00
    0   11    4      1.03      0.00
    1   11    4      0.48      0.00
    2   11    4      0.03      0.00
    3   11    4     -1.23      0.00
    4   11    4     -0.36      0.00
    5   11    4     -2.03      0.00
    6   11    4     -0.75      0.00
    7   11    4      2.04      0.00
    8   11    4      0.21      0.00
    9   11    4     -0.41      0.00
   10   11    4      0.33      0.00
   11   11    4      0.49      0.00
   12   11    4      0.36      0.00
   13   11    4     -1.45      0.00
   14   11    4     -0.38      0.00
   -7   12    4      0.78      0.00
   -6   12    4      0.09      0.00
   -5   12    4     -0.04      0.00
   -4   12    4      0.56      0.00
   -3   12    4      0.27      0.00
   -2   12    4     -1.66      0.00
   -1   12    4     -1.40      0.00
    0   12    4     -0.47      0.00
    1   12    4     -0.42      0.00
    2   12    4      0.38      0.00
    3   12    4      0.09      0.00
    4   12    4      1.62      0.00
    5   12    4      0.32      0.00
    6   12    4     -1.89      0.00
    7   12    4     -0.10      0.00
    8   12    4     -0.54      0.00
    9   12    4     -0.63      0.00
   10   12    4     -0.26      0.00
   11   12    4     -0.10      0.00
   12   12    4     -0.12      0.00
   13   12    4     -0.94      0.00
   -6   13    4     -0.34      0.00
   -5   13    4     -0.56      0.00
   -4   13    4      0.15      0.00
   -3   13    4      0.51      0.00
   -2   13    4     -0.32      0.00
   -1   13    4     -0.78      0.00
    0   13    4     -0.09      0.00
    1   13    4     -0.41      0.00
    2   13    4     -0.39      0.00
    3   13    4     -1.23      0.00
    4   13    4     -0.60      0.00
    5   13    4      0.89      0.00
    6   13    4      0.93      0.00
    7   13    4      0.57      0.00
    8   13    4      0.05      0.00
    9   13    4      0.15      0.00
   10   13    4     -0.11      0.00
   11   13    4     -0.37      0.00
   12   13    4     -0.71      0.00
   13   13    4     -0.74      0.00
   -5   14    4     -1.13      0.00
   -4   14    4     -0.22      0.00
   -3   14    4      0.27      0.00
   -2   14    4     -0.10      0.00
   -1   14    4     -0.10      0.00
    0   14    4      0.87      0.00
    1   14    4      0.77      0.00
    2   14    4      0.13      0.00
    3   14    4     -0.22      0.00
    4   14    4     -0.71      0.00
    5   14    4     -1.05      0.00
    6   14    4      1.22      0.00
    7   14    4      1.03      0.00
    8   14    4      0.36      0.00
    9   14    4      0.05      0.00
   10   14    4      0.20      0.00
   11   14    4      0.30      0.00
   12   14    4      0.45      0.00
   13   14    4     -0.46      0.00
   -4   15    4     -0.23      0.00
   -3   15    4      0.86      0.00
   -2   15    4      1.38      0.00
   -1   15    4      0.85      0.00
    0   15    4      0.78      0.00
    1   15    4      0.59      0.00
    2   15    4     -0.45      0.00
    3   15    4     -0.41      0.00
    4   15    4      0.36      0.00
    5   15    4      0.03      0.00
    6   15    4     -0.07      0.00
    7   15    4     -0.39      0.00
    8   15    4     -0.55      0.00
    9   15    4     -0.56      0.00
   10   15    4      0.20      0.00
   11   15    4     -0.16      0.00
   12   15    4      0.22      0.00
   -3   16    4     -0.33      0.00
   -2   16    4      0.78      0.00
   -1   16    4      0.63      0.00
    0   16    4      0.01      0.00
    1   16    4      0.19      0.00
    2   16    4      0.14      0.00
    3   16    4      0.51      0.00
    4   16    4     -1.14      0.00
    5   16    4      0.19      0.00
    6   16    4     -0.13      0.00
    7   16    4      0.05      0.00
    8   16    4      0.22      0.00
    9   16    4      0.01      0.00
   10   16    4      0.08      0.00
   11   16    4      0.41      0.00
   -1   17    4      0.40      0.00
    0   17    4     -0.62      0.00
    1   17    4     -0.39      0.00
    2   17    4      0.64      0.00
    3   17    4      2.32      0.00
    4   17    4     -0.54      0.00
    5   17    4     -0.09      0.00
    6   17    4     -0.19      0.00
    7   17    4      0.48      0.00
    8   17    4      0.60      0.00
    9   17    4      1.56      0.00
   10   17    4     -0.14      0.00
    0   18    4     -0.23      0.00
    1   18    4     -1.56      0.00
    2   18    4     -0.25      0.00
    3   18    4      2.00      0.00
    4   18    4      0.50      0.00
    5   18    4     -0.15      0.00
    6   18    4     -1.06      0.00
    7   18    4     -0.02      0.00
    8   18    4      0.07      0.00
    9   18    4      1.19      0.00
    3   19    4      0.43      0.00
    4   19    4      0.63      0.00
    5   19    4      0.53      0.00
    6   19    4     -0.74      0.00
    7   19    4     -1.30      0.00
   -5  -16    5     -0.37      0.00
   -4  -16    5      1.17      0.00
   -3  -16    5     -0.71      0.00
   -2  -16    5     -0.91      0.00
   -8  -15    5      0.38      0.00
   -7  -15    5      0.50      0.00
   -6  -15    5     -0.85      0.00
   -5  -15    5     -1.62      0.00
   -4  -15    5      0.58      0.00
   -3  -15    5     -0.51      0.00
   -2  -15    5     -1.58      0.00
   -1  -15    5      0.23      0.00
    0  -15    5      0.37      0.00
    1  -15    5      1.23      0.00
   -9  -14    5     -0.43      0.00
   -8  -14    5      0.34      0.00
   -7  -14    5      0.59      0.00
   -6  -14    5      0.02      0.00
   -5  -14    5     -0.50      0.00
   -4  -14    5      0.76      0.00
   -3  -14    5      0.29      0.00
   -2  -14    5     -0.82      0.00
   -1  -14    5      0.30      0.00
    0  -14    5      1.03      0.00
    1  -14    5      0.33      0.00
    2  -14    5      0.85      0.00
    3  -14    5     -0.69      0.00
  -10  -13    5     -0.98      0.00
   -9  -13    5     -0.71      0.00
   -8  -13    5     -0.30      0.00
   -7  -13    5      0.32      0.00
   -6  -13    5      0.80      0.00
   -5  -13    5     -0.22      0.00
   -4  -13    5      0.33      0.00
   -3  -13    5     -0.03      0.00
   -2  -13    5     -0.24      0.00
   -1  -13    5     -0.36      0.00
    0  -13    5      1.03      0.00
    1  -13    5      0.56      0.00
    2  -13    5      0.30      0.00
    3  -13    5      0.10      0.00
    4  -13    5     -0.48      0.00
  -10  -12    5     -0.89      0.00
   -9  -12    5     -0.42      0.00
   -8  -12    5     -0.27      0.00
   -7  -12    5     -0.72      0.00
   -6  -12    5      0.88      0.00
   -5  -12    5      0.02      0.00
   -4  -12    5      0.00      0.00
   -3  -12    5      0.11      0.00
   -2  -12    5      0.21      0.00
   -1  -12    5     -0.18      0.00
    0  -12    5     -0.76      0.00
    1  -12    5      0.25      0.00
    2  -12    5     -0.22      0.00
    3  -12    5      0.99      0.00
    4  -12    5      0.38      0.00
    5  -12    5      0.24      0.00
  -11  -11    5     -0.82      0.00
  -10  -11    5     -0.29      0.00
   -9  -11    5      0.12      0.00
   -8  -11    5      0.17      0.00
   -7  -11    5     -0.98      0.00
   -6  -11    5     -0.15      0.00
   -5  -11    5     -0.07      0.00
   -4  -11    5     -0.57      0.00
   -3  -11    5     -0.28      0.00
   -2  -11    5     -0.11      0.00
   -1  -11    5      0.57      0.00
    0  -11    5     -1.10      0.00
    1  -11    5     -0.15      0.00
    2  -11    5     -0.20      0.00
    3  -11    5      0.13      0.00
    4  -11    5      0.08      0.00
    5  -11    5      0.38      0.00
    6  -11    5      0.25      0.00
    7  -11    5     -0.22      0.00
  -11  -10    5     -0.70      0.00
  -10  -10    5     -0.12      0.00
   -9  -10    5     -0.29      0.00
   -8  -10    5     -0.51      0.00
   -7  -10    5     -0.53      0.00
   -6  -10    5      0.21      0.00
   -5  -10    5      0.83      0.00
   -4  -10    5      0.50      0.00
   -3  -10    5      0.02      0.00
   -2  -10    5     -0.52      0.00
   -1  -10    5      0.59      0.00
    0  -10    5     -0.49      0.00
    1  -10    5     -1.54      0.00
    2  -10    5     -0.27      0.00
    3  -10    5      0.22      0.00
    4  -10    5      0.18      0.00
    5  -10    5      0.02      0.00
    6  -10    5     -0.01      0.00
    7  -10    5     -0.22      0.00
  -12   -9    5      0.31      0.00
  -11   -9    5     -0.89      0.00
  -10   -9    5      0.03      0.00
   -9   -9    5      0.19      0.00
   -8   -9    5     -0.35      0.00
   -7   -9    5     -0.51      0.00
   -6   -9    5      0.03      0.00
   -5   -9    5      0.47      0.00
   -4   -9    5      0.12      0.00
   -3   -9    5      0.66      0.00
   -2   -9    5      0.47      0.00
   -1   -9    5      0.52      0.00
    0   -9    5      1.40      0.00
    1   -9    5     -0.93      0.00
    2   -9    5     -1.20      0.00
    3   -9    5     -0.60      0.00
    4   -9    5     -0.22      0.00
    5   -9    5      0.97      0.00
    6   -9    5      0.79      0.00
    7   -9    5     -0.60      0.00
    8   -9    5     -0.34      0.00
  -12   -8    5      1.29      0.00
  -11   -8    5     -0.19      0.00
  -10   -8    5     -0.23      0.00
   -9   -8    5      0.53      0.00
   -8   -8    5      0.67      0.00
   -7   -8    5     -0.11      0.00
   -6   -8    5     -1.05      0.00
   -5   -8    5     -0.90      0.00
   -4   -8    5     -1.05      0.00
   -3   -8    5      0.60      0.00
   -2   -8    5      0.95      0.00
   -1   -8    5     -1.24      0.00
    0   -8    5      0.42      0.00
    1   -8    5      0.55      0.00
    2   -8    5     -0.51      0.00
    3   -8    5      0.01      0.00
    4   -8    5     -0.57      0.00
    5   -8    5      0.32      0.00
    6   -8    5      0.95      0.00
    7   -8    5     -0.20      0.00
    8   -8    5      0.04      0.00
    9   -8    5      0.39      0.00
  -12   -7    5      0.83      0.00
  -11   -7    5      0.16      0.00
  -10   -7    5     -0.22      0.00
   -9   -7    5     -0.29      0.00
   -8   -7    5     -0.11      0.00
   -7   -7    5     -0.65      0.00
   -6   -7    5     -1.18      0.00
   -5   -7    5     -0.53      0.00
   -4   -7    5      0.04      0.00
   -3   -7    5      1.79      0.00
   -2   -7    5      1.68      0.00
   -1   -7    5     -2.61      0.00
    0   -7    5     -1.73      0.00
    1   -7    5      0.41      0.00
    2   -7    5     -0.15      0.00
    3   -7    5      0.34      0.00
    4   -7    5      0.05      0.00
    5   -7    5      0.33      0.00
    6   -7    5      0.53      0.00
    7   -7    5     -1.06      0.00
    8   -7    5     -0.80      0.00
    9   -7    5      1.00      0.00
   10   -7    5      0.80      0.00
  -12   -6    5      0.65      0.00
  -11   -6    5     -0.05      0.00
  -10   -6    5      0.08      0.00
   -9   -6    5     -0.37      0.00
   -8   -6    5     -0.64      0.00
   -7   -6    5     -1.35      0.00
   -6   -6    5     -0.67      0.00
   -5   -6    5      0.81      0.00
   -4   -6    5      1.26      0.00
   -3   -6    5      1.25      0.00
   -2   -6    5      1.25      0.00
   -1   -6    5     -2.14      0.00
    0   -6    5     -1.28      0.00
    1   -6    5      0.26      0.00
    2   -6    5     -0.25      0.00
    3   -6    5     -0.10      0.00
    4   -6    5     -0.19      0.00
    5   -6    5     -0.37      0.00
    6   -6    5      0.75      0.00
    7   -6    5     -0.03      0.00
    8   -6    5     -0.71      0.00
    9   -6    5     -0.36      0.00
   10   -6    5      0.10      0.00
  -12   -5    5      0.37      0.00
  -11   -5    5     -0.20      0.00
  -10   -5    5     -0.30      0.00
   -9   -5    5     -0.10      0.00
   -8   -5    5      0.40      0.00
   -7   -5    5     -0.50      0.00
   -6   -5    5     -0.34      0.00
   -5   -5    5      1.00      0.00
   -4   -5    5      1.08      0.00
   -3   -5    5     -0.94      0.00
   -2   -5    5     -1.69      0.00
   -1   -5    5     -2.84      0.00
    0   -5    5     -0.09      0.00
    1   -5    5      1.02      0.00
    2   -5    5      0.69      0.00
    3   -5    5      0.48      0.00
    4   -5    5      0.53      0.00
    5   -5    5      0.01      0.00
    6   -5    5      0.44      0.00
    7   -5    5      0.25      0.00
    8   -5    5      0.96      0.00
    9   -5    5      0.62      0.00
   10   -5    5     -0.03      0.00
   11   -5    5      0.43      0.00
  -11   -4    5     -0.30      0.00
  -10   -4    5     -0.61      0.00
   -9   -4    5     -0.41      0.00
   -8   -4    5      0.28      0.00
   -7   -4    5     -0.06      0.00
   -6   -4    5     -0.88      0.00
   -5   -4    5     -0.63      0.00
   -4   -4    5     -0.23      0.00
   -3   -4    5     -0.71      0.00
   -2   -4    5     -0.67      0.00
   -1   -4    5     -2.23      0.00
    0   -4    5     -0.01      0.00
    1   -4    5     -0.47      0.00
    2   -4    5     -0.84      0.00
    3   -4    5      0.42      0.00
    4   -4    5      0.37      0.00
    5   -4    5      0.76      0.00
    6   -4    5      1.32      0.00
    7   -4    5     -0.06      0.00
    8   -4    5     -0.38      0.00
    9   -4    5     -0.16      0.00
   10   -4    5     -0.10      0.00
   11   -4    5      0.28      0.00
  -10   -3    5     -0.86      0.00
   -9   -3    5     -0.68      0.00
   -8   -3    5     -0.70      0.00
   -7   -3    5     -0.80      0.00
   -6   -3    5     -0.09      0.00
   -5   -3    5      0.59      0.00
   -4   -3    5     -0.23      0.00
   -3   -3    5     -1.89      0.00
   -2   -3    5     -0.73      0.00
   -1   -3    5     -2.33      0.00
    0   -3    5     -0.27      0.00
    1   -3    5     -0.99      0.00
    2   -3    5     -3.02      0.00
    3   -3    5      1.28      0.00
    4   -3    5      0.32      0.00
    5   -3    5     -0.43      0.00
    6   -3    5      0.80      0.00
    7   -3    5      0.79      0.00
    8   -3    5      0.04      0.00
    9   -3    5     -0.82      0.00
   10   -3    5     -0.36      0.00
   11   -3    5      0.83      0.00
   12   -3    5      0.53      0.00
  -12   -2    5      2.02      0.00
  -10   -2    5     -0.41      0.00
   -9   -2    5     -0.28      0.00
   -8   -2    5     -0.61      0.00
   -7   -2    5     -1.61      0.00
   -6   -2    5     -0.91      0.00
   -5   -2    5      1.07      0.00
   -4   -2    5      1.57      0.00
   -3   -2    5     -1.06      0.00
   -2   -2    5      0.23      0.00
   -1   -2    5     -2.50      0.00
    0   -2    5     -1.87      0.00
    1   -2    5     -1.12      0.00
    2   -2    5     -9.69      0.00
    3   -2    5     -1.03      0.00
    4   -2    5      3.37      0.00
    5   -2    5      1.08      0.00
    6   -2    5      1.01      0.00
    7   -2    5      0.66      0.00
    8   -2    5      0.94      0.00
    9   -2    5      0.84      0.00
   10   -2    5     -0.48      0.00
   11   -2    5      0.11      0.00
   12   -2    5      0.78      0.00
  -12   -1    5      1.18      0.00
  -11   -1    5     -0.37      0.00
  -10   -1    5     -1.13      0.00
   -9   -1    5     -0.39      0.00
   -8   -1    5      0.66      0.00
   -7   -1    5      0.81      0.00
   -6   -1    5     -0.05      0.00
   -5   -1    5     -1.16      0.00
   -4   -1    5     -1.67      0.00
   -3   -1    5     -2.91      0.00
   -2   -1    5      1.42      0.00
   -1   -1    5     -2.48      0.00
    0   -1    5     -5.51      0.00
    1   -1    5     10.07      0.00
    2   -1    5     -1.97      0.00
    3   -1    5     -7.02      0.00
    4   -1    5     -0.34      0.00
    5   -1    5     -0.42      0.00
    6   -1    5      1.30      0.00
    7   -1    5      0.56      0.00
    8   -1    5      0.17      0.00
    9   -1    5      1.64      0.00
   10   -1    5      0.28      0.00
   11   -1    5     -0.62      0.00
   12   -1    5      0.02      0.00
   13   -1    5     -0.23      0.00
  -12    0    5      0.52      0.00
  -11    0    5     -0.36      0.00
  -10    0    5     -1.07      0.00
   -9    0    5     -1.31      0.00
   -8    0    5     -0.77      0.00
   -7    0    5      0.75      0.00
   -6    0    5      1.14      0.00
   -5    0    5      0.23      0.00
   -4    0    5     -0.94      0.00
   -3    0    5     -1.90      0.00
   -2    0    5      5.20      0.00
   -1    0    5     -0.07      0.00
    0    0    5    -24.71      0.00
    1    0    5     -1.90      0.00
    2    0    5     13.02      0.00
    3    0    5      2.82      0.00
    4    0    5      2.37      0.00
    5    0    5     -2.26      0.00
    6    0    5     -0.03      0.00
    7    0    5      0.08      0.00
    8    0    5     -0.89      0.00
    9    0    5      0.88      0.00
   10    0    5      0.74      0.00
   11    0    5     -0.04      0.00
   12    0    5      0.08      0.00
   13    0    5      0.41      0.00
  -12    1    5      1.57      0.00
  -11    1    5      0.64      0.00
  -10    1    5      0.55      0.00
   -9    1    5      0.10      0.00
   -8    1    5     -1.34      0.00
   -7    1    5     -1.06      0.00
   -6    1    5     -0.54      0.00
   -5    1    5      0.26      0.00
   -4    1    5      1.39      0.00
   -3    1    5     -0.37      0.00
   -2    1    5      6.70      0.00
   -1    1    5     17.92      0.00
    0    1    5    -11.84      0.00
    1    1    5    -17.07      0.00
    2    1    5      2.41      0.00
    3    1    5     -1.77      0.00
    4    1    5      3.69      0.00
    5    1    5     -0.01      0.00
    6    1    5      0.86      0.00
    7    1    5      2.25      0.00
    8    1    5     -0.23      0.00
    9    1    5     -0.19      0.00
   10    1    5      0.15      0.00
   11    1    5      0.52      0.00
   12    1    5      0.47      0.00
   13    1    5     -0.01      0.00
  -12    2    5      1.01      0.00
  -11    2    5      0.20      0.00
  -10    2    5      0.49      0.00
   -9    2    5      1.19      0.00
   -8    2    5      0.02      0.00
   -7    2    5     -0.85      0.00
   -6    2    5     -0.80      0.00
   -5    2    5     -0.43      0.00
   -4    2    5      1.65      0.00
   -3    2    5     -2.24      0.00
   -2    2    5     -9.67      0.00
   -1    2    5      8.14      0.00
    0    2    5     11.90      0.00
    1    2    5      4.96      0.00
    2    2    5     10.60      0.00
    3    2    5     -4.62      0.00
    4    2    5     -2.83      0.00
    5    2    5     -1.88      0.00
    6    2    5     -2.51      0.00
    7    2    5      1.82      0.00
    8    2    5      1.09      0.00
    9    2    5      0.36      0.00
   10    2    5      0.18      0.00
   11    2    5      0.00      0.00
   12    2    5      0.21      0.00
   13    2    5     -0.08      0.00
  -11    3    5     -0.86      0.00
  -10    3    5     -0.37      0.00
   -9    3    5     -0.20      0.00
   -8    3    5     -0.09      0.00
   -7    3    5     -0.20      0.00
   -6    3    5      0.36      0.00
   -5    3    5      0.29      0.00
   -4    3    5      2.56      0.00
   -3    3    5      4.66      0.00
   -2    3    5     -7.50      0.00
   -1    3    5     -9.06      0.00
    0    3    5      1.87      0.00
    1    3    5      5.82      0.00
    2    3    5     13.76      0.00
    3    3    5      2.68      0.00
    4    3    5      0.08      0.00
    5    3    5      3.13      0.00
    6    3    5     -1.31      0.00
    7    3    5      0.27      0.00
    8    3    5     -0.27      0.00
    9    3    5     -0.39      0.00
   10    3    5      0.47      0.00
   11    3    5      0.25      0.00
   12    3    5     -0.16      0.00
   13    3    5     -0.12      0.00
   14    3    5      0.17      0.00
  -11    4    5     -0.60      0.00
  -10    4    5      0.85      0.00
   -9    4    5      0.34      0.00
   -8    4    5     -0.07      0.00
   -7    4    5     -0.69      0.00
   -6    4    5     -0.22      0.00
   -5    4    5     -0.14      0.00
   -4    4    5     -0.29      0.00
   -3    4    5      3.10      0.00
   -2    4    5      2.84      0.00
   -1    4    5      0.34      0.00
    0    4    5      4.15      0.00
    1    4    5      2.14      0.00
    2    4    5      3.49      0.00
    3    4    5     -2.31      0.00
    4    4    5     -4.57      0.00
    5    4    5      2.77      0.00
    6    4    5      0.94      0.00
    7    4    5      1.86      0.00
    8    4    5      0.99      0.00
    9    4    5      0.10      0.00
   10    4    5     -0.01      0.00
   11    4    5     -0.36      0.00
   12    4    5     -0.09      0.00
   13    4    5      0.44      0.00
   14    4    5      0.77      0.00
  -11    5    5      0.07      0.00
  -10    5    5      1.21      0.00
   -9    5    5      0.44      0.00
   -8    5    5      0.66      0.00
   -7    5    5     -0.10      0.00
   -6    5    5     -0.39      0.00
   -5    5    5      0.31      0.00
   -4    5    5      0.46      0.00
   -3    5    5     -0.88      0.00
   -2    5    5     -0.49      0.00
   -1    5    5      0.26      0.00
    0    5    5      5.07      0.00
    1    5    5      4.85      0.00
    2    5    5      4.66      0.00
    3    5    5      1.87      0.00
    4    5    5     -2.91      0.00
    5    5    5      1.01      0.00
    6    5    5     -0.47      0.00
    7    5    5     -0.05      0.00
    8    5    5      0.31      0.00
    9    5    5      0.45      0.00
   10    5    5      0.61      0.00
   11    5    5      0.09      0.00
   12    5    5     -0.14      0.00
   13    5    5     -0.02      0.00
   14    5    5      0.74      0.00
  -10    6    5      1.04      0.00
   -9    6    5     -0.13      0.00
   -8    6    5      0.23      0.00
   -7    6    5      0.48      0.00
   -6    6    5     -0.15      0.00
   -5    6    5     -0.30      0.00
   -4    6    5      1.39      0.00
   -3    6    5      0.70      0.00
   -2    6    5      1.07      0.00
   -1    6    5      1.96      0.00
    0    6    5      2.78      0.00
    1    6    5      0.74      0.00
    2    6    5     -1.01      0.00
    3    6    5     -0.30      0.00
    4    6    5     -0.75      0.00
    5    6    5      2.79      0.00
    6    6    5      1.69      0.00
    7    6    5      0.32      0.00
    8    6    5     -0.55      0.00
    9    6    5     -1.08      0.00
   10    6    5     -0.49      0.00
   11    6    5      0.33      0.00
   12    6    5      0.51      0.00
   13    6    5     -0.64      0.00
   14    6    5      0.09      0.00
  -10    7    5      0.32      0.00
   -9    7    5     -0.20      0.00
   -8    7    5     -0.48      0.00
   -7    7    5      0.67      0.00
   -6    7    5      1.31      0.00
   -5    7    5      0.04      0.00
   -4    7    5      0.30      0.00
   -3    7    5     -0.28      0.00
   -2    7    5     -0.22      0.00
   -1    7    5      2.28      0.00
    0    7    5      3.41      0.00
    1    7    5      1.46      0.00
    2    7    5     -0.64      0.00
    3    7    5     -0.70      0.00
    4    7    5     -1.35      0.00
    5    7    5      0.59      0.00
    6    7    5      0.30      0.00
    7    7    5      0.29      0.00
    8    7    5      0.44      0.00
    9    7    5     -0.76      0.00
   10    7    5      0.02      0.00
   11    7    5      0.52      0.00
   12    7    5      0.92      0.00
   13    7    5     -0.44      0.00
   14    7    5      0.06      0.00
   -9    8    5      0.07      0.00
   -8    8    5     -0.35      0.00
   -7    8    5     -0.11      0.00
   -6    8    5      0.80      0.00
   -5    8    5      0.82      0.00
   -4    8    5      0.76      0.00
   -3    8    5      0.98      0.00
   -2    8    5     -0.22      0.00
   -1    8    5     -0.51      0.00
    0    8    5     -0.83      0.00
    1    8    5     -2.76      0.00
    2    8    5     -1.88      0.00
    3    8    5      1.55      0.00
    4    8    5      2.20      0.00
    5    8    5      2.20      0.00
    6    8    5     -0.11      0.00
    7    8    5     -1.10      0.00
    8    8    5      0.94      0.00
    9    8    5     -0.13      0.00
   10    8    5      0.14      0.00
   11    8    5      0.25      0.00
   12    8    5     -0.06      0.00
   13    8    5     -0.81      0.00
   14    8    5      0.29      0.00
   -9    9    5     -0.21      0.00
   -8    9    5      0.17      0.00
   -7    9    5      0.60      0.00
   -6    9    5     -0.45      0.00
   -5    9    5     -0.13      0.00
   -4    9    5     -0.65      0.00
   -3    9    5      0.60      0.00
   -2    9    5      0.72      0.00
   -1    9    5      0.18      0.00
    0    9    5      0.34      0.00
    1    9    5     -1.86      0.00
    2    9    5     -1.56      0.00
    3    9    5      0.78      0.00
    4    9    5      0.15      0.00
    5    9    5      0.12      0.00
    6    9    5     -0.77      0.00
    7    9    5     -1.87      0.00
    8    9    5      1.19      0.00
    9    9    5      1.51      0.00
   10    9    5      0.26      0.00
   11    9    5      0.40      0.00
   12    9    5     -0.53      0.00
   13    9    5     -1.09      0.00
   14    9    5     -0.76      0.00
   -8   10    5     -0.22      0.00
   -7   10    5      1.26      0.00
   -6   10    5      0.55      0.00
   -5   10    5     -0.04      0.00
   -4   10    5     -1.02      0.00
   -3   10    5     -0.82      0.00
   -2   10    5     -0.46      0.00
   -1   10    5     -1.16      0.00
    0   10    5      0.29      0.00
    1   10    5      0.57      0.00
    2   10    5      0.44      0.00
    3   10    5      1.96      0.00
    4   10    5      0.53      0.00
    5   10    5      0.29      0.00
    6   10    5      0.20      0.00
    7   10    5     -2.07      0.00
    8   10    5     -0.46      0.00
    9   10    5      1.29      0.00
   10   10    5     -0.07      0.00
   11   10    5      0.11      0.00
   12   10    5     -0.79      0.00
   13   10    5     -0.37      0.00
   14   10    5     -0.82      0.00
   -7   11    5     -1.01      0.00
   -6   11    5      0.46      0.00
   -5   11    5      0.22      0.00
   -4   11    5     -0.11      0.00
   -3   11    5     -0.16      0.00
   -2   11    5      0.85      0.00
   -1   11    5      0.08      0.00
    0   11    5     -0.55      0.00
    1   11    5     -0.09      0.00
    2   11    5     -1.00      0.00
    3   11    5     -0.21      0.00
    4   11    5     -0.77      0.00
    5   11    5      0.21      0.00
    6   11    5      3.11      0.00
    7   11    5      0.97      0.00
    8   11    5     -0.67      0.00
    9   11    5      0.01      0.00
   10   11    5     -0.16      0.00
   11   11    5      0.08      0.00
   12   11    5     -1.26      0.00
   13   11    5     -0.95      0.00
   14   11    5      0.10      0.00
   -7   12    5     -0.93      0.00
   -6   12    5     -0.40      0.00
   -5   12    5     -0.37      0.00
   -4   12    5     -0.60      0.00
   -3   12    5     -0.95      0.00
   -2   12    5     -0.11      0.00
   -1   12    5      0.32      0.00
    0   12    5      0.12      0.00
    1   12    5      0.68      0.00
    2   12    5      0.37      0.00
    3   12    5      0.41      0.00
    4   12    5     -0.59      0.00
    5   12    5     -2.22      0.00
    6   12    5      0.71      0.00
    7   12    5      1.65      0.00
    8   12    5     -0.04      0.00
    9   12    5      0.13      0.00
   10   12    5      0.38      0.00
   11   12    5      0.36      0.00
   12   12    5     -0.81      0.00
   13   12    5     -1.53      0.00
   -6   13    5      0.42      0.00
   -5   13    5      0.80      0.00
   -4   13    5      0.42      0.00
   -3   13    5     -0.26      0.00
   -2   13    5     -0.68      0.00
   -1   13    5     -0.76      0.00
    0   13    5     -0.69      0.00
    1   13    5     -0.38      0.00
    2   13    5      0.77      0.00
    3   13    5      1.13      0.00
    4   13    5      1.22      0.00
    5   13    5     -0.60      0.00
    6   13    5     -0.95      0.00
    7   13    5      0.48      0.00
    8   13    5     -0.54      0.00
    9   13    5      0.04      0.00
   10   13    5      0.13      0.00
   11   13    5     -0.24      0.00
   12   13    5     -0.87      0.00
   13   13    5     -0.63      0.00
   -5   14    5      0.16      0.00
   -4   14    5      0.13      0.00
   -3   14    5     -0.09      0.00
   -2   14    5     -0.70      0.00
   -1   14    5     -0.07      0.00
    0   14    5      0.59      0.00
    1   14    5     -0.32      0.00
    2   14    5      0.02      0.00
    3   14    5     -0.16      0.00
    4   14    5     -0.63      0.00
    5   14    5      0.00      0.00
    6   14    5      0.99      0.00
    7   14    5      1.06      0.00
    8   14    5     -0.13      0.00
    9   14    5      0.09      0.00
   10   14    5      0.10      0.00
   11   14    5     -0.11      0.00
   12   14    5     -1.06      0.00
   13   14    5     -0.30      0.00
   -4   15    5      0.22      0.00
   -3   15    5      0.51      0.00
   -2   15    5     -0.21      0.00
   -1   15    5      0.02      0.00
    0   15    5      0.85      0.00
    1   15    5     -0.12      0.00
    2   15    5     -0.49      0.00
    3   15    5      0.36      0.00
    4   15    5      0.80      0.00
    5   15    5     -0.84      0.00
    6   15    5      1.04      0.00
    7   15    5      0.76      0.00
    8   15    5     -0.08      0.00
    9   15    5     -0.40      0.00
   10   15    5      0.18      0.00
   11   15    5      0.34      0.00
   12   15    5      0.14      0.00
   -3   16    5      0.70      0.00
   -2   16    5      1.06      0.00
   -1   16    5      0.53      0.00
    0   16    5      0.66      0.00
    1   16    5      0.01      0.00
    2   16    5     -0.58      0.00
    3   16    5     -0.73      0.00
    4   16    5      1.43      0.00
    5   16    5      0.01      0.00
    6   16    5      0.69      0.00
    7   16    5      0.12      0.00
    8   16    5     -0.58      0.00
    9   16    5     -1.53      0.00
   10   16    5      0.31      0.00
   11   16    5      0.04      0.00
   -2   17    5      0.51      0.00
   -1   17    5     -0.44      0.00
    0   17    5     -0.53      0.00
    1   17    5     -0.12      0.00
    2   17    5      0.00      0.00
    3   17    5     -0.58      0.00
    4   17    5     -0.24      0.00
    5   17    5     -0.09      0.00
    6   17    5      0.43      0.00
    7   17    5      0.72      0.00
    8   17    5      0.59      0.00
    9   17    5     -1.08      0.00
   10   17    5      0.05      0.00
   11   17    5      0.59      0.00
    0   18    5     -0.96      0.00
    1   18    5     -0.31      0.00
    2   18    5      0.69      0.00
    3   18    5      0.75      0.00
    4   18    5     -1.06      0.00
    5   18    5     -0.35      0.00
    6   18    5      0.46      0.00
    7   18    5      1.26      0.00
    8   18    5      0.62      0.00
    9   18    5     -0.07      0.00
    3   19    5      1.53      0.00
    4   19    5     -0.03      0.00
    5   19    5     -0.81      0.00
    6   19    5     -1.27      0.00
    7   19    5      0.56      0.00
   -6  -15    6     -1.53      0.00
   -5  -15    6     -0.09      0.00
   -4  -15    6      0.80      0.00
   -3  -15    6     -0.50      0.00
   -2  -15    6     -0.23      0.00
   -1  -15    6      0.52      0.00
    0  -15    6      0.47      0.00
   -8  -14    6      0.45      0.00
   -7  -14    6      0.12      0.00
   -6  -14    6     -1.00      0.00
   -5  -14    6     -0.96      0.00
   -4  -14    6      0.36      0.00
   -3  -14    6     -1.04      0.00
   -2  -14    6     -0.77      0.00
   -1  -14    6      1.05      0.00
    0  -14    6     -0.12      0.00
    1  -14    6      0.46      0.00
    2  -14    6     -0.33      0.00
   -9  -13    6     -0.52      0.00
   -8  -13    6      0.09      0.00
   -7  -13    6     -0.04      0.00
   -6  -13    6     -0.28      0.00
   -5  -13    6     -0.23      0.00
   -4  -13    6      0.92      0.00
   -3  -13    6     -0.04      0.00
   -2  -13    6     -0.77      0.00
   -1  -13    6      0.97      0.00
    0  -13    6      0.51      0.00
    1  -13    6     -0.40      0.00
    2  -13    6     -0.66      0.00
    3  -13    6     -1.44      0.00
    4  -13    6      0.94      0.00
  -10  -12    6     -0.23      0.00
   -9  -12    6     -0.21      0.00
   -8  -12    6     -0.12      0.00
   -7  -12    6      0.04      0.00
   -6  -12    6      0.63      0.00
   -5  -12    6     -0.30      0.00
   -4  -12    6      0.09      0.00
   -3  -12    6     -0.08      0.00
   -2  -12    6     -0.02      0.00
   -1  -12    6     -0.40      0.00
    0  -12    6      0.19      0.00
    1  -12    6      0.08      0.00
    2  -12    6     -0.22      0.00
    3  -12    6     -1.35      0.00
    4  -12    6     -0.02      0.00
    5  -12    6      0.66      0.00
  -10  -11    6      0.00      0.00
   -9  -11    6      0.24      0.00
   -8  -11    6     -0.03      0.00
   -7  -11    6     -0.53      0.00
   -6  -11    6      0.96      0.00
   -5  -11    6      0.11      0.00
   -4  -11    6      0.04      0.00
   -3  -11    6     -0.14      0.00
   -2  -11    6      0.71      0.00
   -1  -11    6     -0.15      0.00
    0  -11    6     -0.54      0.00
    1  -11    6      0.09      0.00
    2  -11    6     -0.14      0.00
    3  -11    6      0.29      0.00
    4  -11    6      0.26      0.00
    5  -11    6      0.65      0.00
    6  -11    6      0.15      0.00
  -11  -10    6     -0.64      0.00
  -10  -10    6      0.08      0.00
   -9  -10    6      0.39      0.00
   -8  -10    6      0.24      0.00
   -7  -10    6     -0.76      0.00
   -6  -10    6      0.08      0.00
   -5  -10    6     -0.10      0.00
   -4  -10    6      0.03      0.00
   -3  -10    6     -0.40      0.00
   -2  -10    6     -0.10      0.00
   -1  -10    6     -0.04      0.00
    0  -10    6     -1.24      0.00
    1  -10    6      0.02      0.00
    2  -10    6     -0.09      0.00
    3  -10    6      0.26      0.00
    4  -10    6     -0.10      0.00
    5  -10    6     -0.29      0.00
    6  -10    6      0.34      0.00
    7  -10    6      0.48      0.00
  -11   -9    6     -0.76      0.00
  -10   -9    6     -0.17      0.00
   -9   -9    6     -0.29      0.00
   -8   -9    6     -0.04      0.00
   -7   -9    6      0.10      0.00
   -6   -9    6      0.62      0.00
   -5   -9    6      0.24      0.00
   -4   -9    6      0.69      0.00
   -3   -9    6      0.22      0.00
   -2   -9    6     -0.39      0.00
   -1   -9    6      1.02      0.00
    0   -9    6     -0.60      0.00
    1   -9    6     -1.23      0.00
    2   -9    6      0.17      0.00
    3   -9    6      0.30      0.00
    4   -9    6      0.58      0.00
    5   -9    6     -0.33      0.00
    6   -9    6     -0.31      0.00
    7   -9    6      0.67      0.00
    8   -9    6      0.70      0.00
  -12   -8    6     -0.11      0.00
  -11   -8    6     -0.87      0.00
  -10   -8    6     -0.16      0.00
   -9   -8    6      0.19      0.00
   -8   -8    6      0.26      0.00
   -7   -8    6      0.25      0.00
   -6   -8    6      0.40      0.00
   -5   -8    6     -0.57      0.00
   -4   -8    6      0.11      0.00
   -3   -8    6      0.65      0.00
   -2   -8    6     -0.33      0.00
   -1   -8    6      1.14      0.00
    0   -8    6      0.93      0.00
    1   -8    6     -1.35      0.00
    2   -8    6      0.27      0.00
    3   -8    6     -0.11      0.00
    4   -8    6     -0.16      0.00
    5   -8    6      0.86      0.00
    6   -8    6      0.34      0.00
    7   -8    6      0.27      0.00
    8   -8    6      0.35      0.00
    9   -8    6     -0.85      0.00
  -12   -7    6      0.66      0.00
  -11   -7    6     -0.19      0.00
  -10   -7    6     -0.02      0.00
   -9   -7    6      0.78      0.00
   -8   -7    6      0.89      0.00
   -7   -7    6      0.02      0.00
   -6   -7    6     -0.89      0.00
   -5   -7    6     -2.20      0.00
   -4   -7    6     -0.81      0.00
   -3   -7    6      1.19      0.00
   -2   -7    6     -0.27      0.00
   -1   -7    6     -0.38      0.00
    0   -7    6      0.43      0.00
    1   -7    6     -1.29      0.00
    2   -7    6      0.28      0.00
    3   -7    6      0.60      0.00
    4   -7    6     -0.62      0.00
    5   -7    6      0.70      0.00
    6   -7    6      0.32      0.00
    7   -7    6     -0.03      0.00
    8   -7    6      0.69      0.00
    9   -7    6      0.05      0.00
  -12   -6    6      0.58      0.00
  -11   -6    6      0.14      0.00
  -10   -6    6     -0.04      0.00
   -9   -6    6     -0.02      0.00
   -8   -6    6     -0.20      0.00
   -7   -6    6     -0.50      0.00
   -6   -6    6     -0.76      0.00
   -5   -6    6     -1.40      0.00
   -4   -6    6      0.12      0.00
   -3   -6    6      2.57      0.00
   -2   -6    6      0.38      0.00
   -1   -6    6     -1.81      0.00
    0   -6    6     -0.58      0.00
    1   -6    6     -1.10      0.00
    2   -6    6      0.19      0.00
    3   -6    6      1.04      0.00
    4   -6    6     -0.19      0.00
    5   -6    6      0.87      0.00
    6   -6    6      0.59      0.00
    7   -6    6     -0.65      0.00
    8   -6    6     -0.70      0.00
    9   -6    6      0.34      0.00
   10   -6    6      1.10      0.00
  -12   -5    6     -0.01      0.00
  -11   -5    6     -0.05      0.00
  -10   -5    6      0.33      0.00
   -9   -5    6      0.15      0.00
   -8   -5    6     -0.69      0.00
   -7   -5    6     -0.92      0.00
   -6   -5    6      0.13      0.00
   -5   -5    6      0.60      0.00
   -4   -5    6      1.18      0.00
   -3   -5    6      1.83      0.00
   -2   -5    6     -0.35      0.00
   -1   -5    6     -2.15      0.00
    0   -5    6     -0.22      0.00
    1   -5    6     -0.66      0.00
    2   -5    6     -0.34      0.00
    3   -5    6      0.19      0.00
    4   -5    6     -0.12      0.00
    5   -5    6      0.12      0.00
    6   -5    6      0.65      0.00
    7   -5    6      0.84      0.00
    8   -5    6     -0.27      0.00
    9   -5    6     -0.91      0.00
   10   -5    6      0.47      0.00
   11   -5    6      0.54      0.00
  -12   -4    6     -0.57      0.00
  -11   -4    6     -0.76      0.00
  -10   -4    6     -0.36      0.00
   -9   -4    6      0.23      0.00
   -8   -4    6      0.36      0.00
   -7   -4    6     -0.53      0.00
   -6   -4    6     -0.50      0.00
   -5   -4    6      0.45      0.00
   -4   -4    6      1.00      0.00
   -3   -4    6      0.59      0.00
   -2   -4    6     -2.27      0.00
   -1   -4    6     -3.29      0.00
    0   -4    6      0.08      0.00
    1   -4    6      0.02      0.00
    2   -4    6      0.70      0.00
    3   -4    6     -0.04      0.00
    4   -4    6      0.24      0.00
    5   -4    6      0.49      0.00
    6   -4    6      0.23      0.00
    7   -4    6      0.59      0.00
    8   -4    6      1.04      0.00
    9   -4    6      0.26      0.00
   10   -4    6      0.58      0.00
   11   -4    6      0.88      0.00
  -10   -3    6     -1.10      0.00
   -9   -3    6      0.01      0.00
   -8   -3    6      0.44      0.00
   -7   -3    6      0.20      0.00
   -6   -3    6     -0.80      0.00
   -5   -3    6     -0.97      0.00
   -4   -3    6     -0.77      0.00
   -3   -3    6      0.03      0.00
   -2   -3    6     -1.68      0.00
   -1   -3    6     -3.08      0.00
    0   -3    6      0.19      0.00
    1   -3    6     -1.47      0.00
    2   -3    6      0.48      0.00
    3   -3    6     -0.03      0.00
    4   -3    6     -0.63      0.00
    5   -3    6      0.54      0.00
    6   -3    6      0.88      0.00
    7   -3    6      0.27      0.00
    8   -3    6     -0.19      0.00
    9   -3    6     -0.69      0.00
   10   -3    6      0.85      0.00
   11   -3    6      0.97      0.00
   12   -3    6     -0.71      0.00
  -12   -2    6      1.26      0.00
  -10   -2    6     -1.82      0.00
   -9   -2    6     -0.69      0.00
   -8   -2    6     -0.84      0.00
   -7   -2    6     -0.80      0.00
   -6   -2    6      0.18      0.00
   -5   -2    6      1.02      0.00
   -4   -2    6     -0.03      0.00
   -3   -2    6     -0.77      0.00
   -2   -2    6     -2.01      0.00
   -1   -2    6     -3.57      0.00
    0   -2    6      0.07      0.00
    1   -2    6     -4.98      0.00
    2   -2    6     -1.42      0.00
    3   -2    6      3.16      0.00
    4   -2    6      0.01      0.00
    5   -2    6     -0.46      0.00
    6   -2    6      0.02      0.00
    7   -2    6      0.47      0.00
    8   -2    6      0.51      0.00
    9   -2    6     -1.14      0.00
   10   -2    6      0.38      0.00
   11   -2    6      1.57      0.00
   12   -2    6     -0.05      0.00
  -12   -1    6      2.00      0.00
  -11   -1    6      1.10      0.00
  -10   -1    6     -0.89      0.00
   -9   -1    6     -0.36      0.00
   -8   -1    6     -0.45      0.00
   -7   -1    6     -1.35      0.00
   -6   -1    6     -0.83      0.00
   -5   -1    6      0.86      0.00
   -4   -1    6      0.84      0.00
   -3   -1    6      0.07      0.00
   -2   -1    6     -0.68      0.00
   -1   -1    6     -2.48      0.00
    0   -1    6      4.23      0.00
    1   -1    6     -5.86      0.00
    2   -1    6    -11.17      0.00
    3   -1    6      1.67      0.00
    4   -1    6      2.81      0.00
    5   -1    6      1.56      0.00
    6   -1    6      0.72      0.00
    7   -1    6      0.41      0.00
    8   -1    6      1.16      0.00
    9   -1    6      0.27      0.00
   10   -1    6     -0.07      0.00
   11   -1    6      0.27      0.00
   12   -1    6     -0.33      0.00
  -12    0    6      1.19      0.00
  -11    0    6      0.96      0.00
  -10    0    6     -0.47      0.00
   -9    0    6     -0.56      0.00
   -8    0    6      0.56      0.00
   -7    0    6      0.72      0.00
   -6    0    6     -0.21      0.00
   -5    0    6     -0.83      0.00
   -4    0    6     -1.40      0.00
   -3    0    6     -0.64      0.00
   -2    0    6      0.05      0.00
   -1    0    6     -6.25      0.00
    0    0    6      4.47      0.00
    1    0    6      7.63      0.00
    2    0    6     -7.28      0.00
    3    0    6     -2.16      0.00
    4    0    6     -0.48      0.00
    5    0    6     -0.29      0.00
    6    0    6      0.66      0.00
    7    0    6      0.03      0.00
    8    0    6      0.99      0.00
    9    0    6      1.21      0.00
   10    0    6      0.15      0.00
   11    0    6     -0.44      0.00
   12    0    6     -0.71      0.00
   13    0    6      0.02      0.00
  -11    1    6      0.08      0.00
  -10    1    6     -0.21      0.00
   -9    1    6     -1.30      0.00
   -8    1    6     -0.69      0.00
   -7    1    6      0.93      0.00
   -6    1    6      0.54      0.00
   -5    1    6     -0.39      0.00
   -4    1    6     -0.99      0.00
   -3    1    6      1.24      0.00
   -2    1    6      5.79      0.00
   -1    1    6     -8.04      0.00
    0    1    6    -13.31      0.00
    1    1    6      3.55      0.00
    2    1    6      2.25      0.00
    3    1    6      4.86      0.00
    4    1    6      3.02      0.00
    5    1    6     -1.38      0.00
    6    1    6      0.49      0.00
    7    1    6     -0.98      0.00
    8    1    6     -0.19      0.00
    9    1    6      0.93      0.00
   10    1    6      0.04      0.00
   11    1    6     -0.24      0.00
   12    1    6     -0.32      0.00
   13    1    6      0.65      0.00
  -11    2    6      0.81      0.00
  -10    2    6      1.02      0.00
   -9    2    6     -0.02      0.00
   -8    2    6     -1.64      0.00
   -7    2    6     -0.50      0.00
   -6    2    6     -0.11      0.00
   -5    2    6     -0.32      0.00
   -4    2    6     -0.58      0.00
   -3    2    6     -0.32      0.00
   -2    2    6      8.60      0.00
   -1    2    6      5.75      0.00
    0    2    6    -10.81      0.00
    1    2    6     -4.76      0.00
    2    2    6     -2.90      0.00
    3    2    6     -0.01      0.00
    4    2    6      3.50      0.00
    5    2    6     -1.01      0.00
    6    2    6      2.27      0.00
    7    2    6      1.36      0.00
    8    2    6      0.45      0.00
    9    2    6      0.52      0.00
   10    2    6     -0.71      0.00
   11    2    6     -0.18      0.00
   12    2    6      0.30      0.00
   13    2    6      0.54      0.00
  -11    3    6     -0.31      0.00
  -10    3    6      0.24      0.00
   -9    3    6      1.04      0.00
   -8    3    6     -0.44      0.00
   -7    3    6     -0.18      0.00
   -6    3    6     -0.15      0.00
   -5    3    6     -0.48      0.00
   -4    3    6      0.11      0.00
   -3    3    6     -3.09      0.00
   -2    3    6     -2.73      0.00
   -1    3    6      3.89      0.00
    0    3    6      0.97      0.00
    1    3    6      6.37      0.00
    2    3    6      4.93      0.00
    3    3    6     -0.78      0.00
    4    3    6      1.05      0.00
    5    3    6     -3.55      0.00
    6    3    6     -0.41      0.00
    7    3    6      1.34      0.00
    8    3    6      0.94      0.00
    9    3    6      1.32      0.00
   10    3    6      0.00      0.00
   11    3    6     -0.25      0.00
   12    3    6      0.00      0.00
   13    3    6      0.40      0.00
   14    3    6     -0.40      0.00
  -11    4    6     -1.10      0.00
  -10    4    6     -0.94      0.00
   -9    4    6     -0.12      0.00
   -8    4    6     -0.83      0.00
   -7    4    6      0.11      0.00
   -6    4    6      0.57      0.00
   -5    4    6      0.08      0.00
   -4    4    6      1.29      0.00
   -3    4    6      1.52      0.00
   -2    4    6     -2.92      0.00
   -1    4    6     -2.86      0.00
    0    4    6     -2.94      0.00
    1    4    6      3.77      0.00
    2    4    6      5.88      0.00
    3    4    6      0.96      0.00
    4    4    6      4.04      0.00
    5    4    6      0.67      0.00
    6    4    6     -0.19      0.00
    7    4    6      0.85      0.00
    8    4    6     -0.41      0.00
    9    4    6      0.11      0.00
   10    4    6     -0.04      0.00
   11    4    6      0.25      0.00
   12    4    6      0.00      0.00
   13    4    6      0.21      0.00
   14    4    6     -0.53      0.00
  -10    5    6     -0.11      0.00
   -9    5    6      0.60      0.00
   -8    5    6     -0.18      0.00
   -7    5    6     -0.27      0.00
   -6    5    6     -0.15      0.00
   -5    5    6     -0.02      0.00
   -4    5    6      0.12      0.00
   -3    5    6      1.63      0.00
   -2    5    6      1.02      0.00
   -1    5    6      0.99      0.00
    0    5    6      1.21      0.00
    1    5    6      3.31      0.00
    2    5    6      3.22      0.00
    3    5    6     -3.89      0.00
    4    5    6     -1.39      0.00
    5    5    6      0.77      0.00
    6    5    6      0.40      0.00
    7    5    6      1.62      0.00
    8    5    6      0.45      0.00
    9    5    6      0.89      0.00
   10    5    6      0.01      0.00
   11    5    6     -0.10      0.00
   12    5    6      0.16      0.00
   13    5    6      0.72      0.00
   14    5    6     -0.03      0.00
  -10    6    6      0.26      0.00
   -9    6    6      0.32      0.00
   -8    6    6      0.57      0.00
   -7    6    6      0.18      0.00
   -6    6    6     -0.55      0.00
   -5    6    6      0.33      0.00
   -4    6    6      0.76      0.00
   -3    6    6      0.42      0.00
   -2    6    6      0.37      0.00
   -1    6    6      0.37      0.00
    0    6    6      1.95      0.00
    1    6    6      3.70      0.00
    2    6    6      5.19      0.00
    3    6    6     -0.19      0.00
    4    6    6     -1.13      0.00
    5    6    6      0.47      0.00
    6    6    6     -0.45      0.00
    7    6    6      0.31      0.00
    8    6    6     -0.82      0.00
    9    6    6      0.68      0.00
   10    6    6      0.42      0.00
   11    6    6      0.31      0.00
   12    6    6      0.08      0.00
   13    6    6      0.05      0.00
   14    6    6     -0.26      0.00
  -10    7    6      0.23      0.00
   -9    7    6     -0.09      0.00
   -8    7    6      0.37      0.00
   -7    7    6      0.93      0.00
   -6    7    6     -0.05      0.00
   -5    7    6     -0.33      0.00
   -4    7    6      0.66      0.00
   -3    7    6      0.24      0.00
   -2    7    6      1.09      0.00
   -1    7    6      1.80      0.00
    0    7    6      1.95      0.00
    1    7    6      0.72      0.00
    2    7    6      0.19      0.00
    3    7    6     -1.84      0.00
    4    7    6     -1.08      0.00
    5    7    6      1.39      0.00
    6    7    6      1.00      0.00
    7    7    6      1.12      0.00
    8    7    6     -1.66      0.00
    9    7    6     -0.54      0.00
   10    7    6     -0.05      0.00
   11    7    6      0.27      0.00
   12    7    6      0.40      0.00
   13    7    6     -0.35      0.00
   14    7    6     -0.87      0.00
   -9    8    6     -0.17      0.00
   -8    8    6     -0.42      0.00
   -7    8    6      0.63      0.00
   -6    8    6      1.30      0.00
   -5    8    6      0.10      0.00
   -4    8    6      0.56      0.00
   -3    8    6     -0.47      0.00
   -2    8    6     -0.21      0.00
   -1    8    6      0.83      0.00
    0    8    6      1.09      0.00
    1    8    6     -0.07      0.00
    2    8    6     -0.84      0.00
    3    8    6     -0.52      0.00
    4    8    6      0.32      0.00
    5    8    6      0.57      0.00
    6    8    6     -0.27      0.00
    7    8    6      1.21      0.00
    8    8    6     -0.93      0.00
    9    8    6     -1.27      0.00
   10    8    6     -0.04      0.00
   11    8    6     -0.11      0.00
   12    8    6      0.41      0.00
   13    8    6      0.07      0.00
   14    8    6     -0.27      0.00
   -9    9    6      0.07      0.00
   -8    9    6      0.01      0.00
   -7    9    6     -0.43      0.00
   -6    9    6      0.49      0.00
   -5    9    6      0.18      0.00
   -4    9    6      0.78      0.00
   -3    9    6      0.65      0.00
   -2    9    6      0.04      0.00
   -1    9    6     -0.33      0.00
    0    9    6     -1.10      0.00
    1    9    6     -2.47      0.00
    2    9    6     -1.68      0.00
    3    9    6      0.47      0.00
    4    9    6      2.08      0.00
    5    9    6      1.70      0.00
    6    9    6     -0.45      0.00
    7    9    6      0.40      0.00
    8    9    6      0.59      0.00
    9    9    6     -0.87      0.00
   10    9    6     -0.30      0.00
   11    9    6     -1.00      0.00
   12    9    6     -0.64      0.00
   13    9    6     -0.39      0.00
   14    9    6      0.13      0.00
   -8   10    6      0.87      0.00
   -7   10    6      0.71      0.00
   -6   10    6     -0.82      0.00
   -5   10    6     -0.35      0.00
   -4   10    6     -0.40      0.00
   -3   10    6      0.43      0.00
   -2   10    6      0.12      0.00
   -1   10    6      0.66      0.00
    0   10    6      1.32      0.00
    1   10    6     -0.94      0.00
    2   10    6     -0.63      0.00
    3   10    6      0.50      0.00
    4   10    6      0.27      0.00
    5   10    6     -0.25      0.00
    6   10    6     -1.73      0.00
    7   10    6     -0.80      0.00
    8   10    6      1.70      0.00
    9   10    6      0.80      0.00
   10   10    6     -0.15      0.00
   11   10    6     -0.51      0.00
   12   10    6     -0.07      0.00
   13   10    6      0.08      0.00
   14   10    6     -0.67      0.00
   -7   11    6      1.57      0.00
   -6   11    6      0.25      0.00
   -5   11    6      0.32      0.00
   -4   11    6     -0.52      0.00
   -3   11    6      0.23      0.00
   -2   11    6     -0.78      0.00
   -1   11    6     -0.90      0.00
    0   11    6      1.09      0.00
    1   11    6      0.55      0.00
    2   11    6      0.44      0.00
    3   11    6      0.82      0.00
    4   11    6      0.13      0.00
    5   11    6      1.10      0.00
    6   11    6     -0.38      0.00
    7   11    6     -1.86      0.00
    8   11    6     -0.06      0.00
    9   11    6      0.53      0.00
   10   11    6     -0.36      0.00
   11   11    6     -0.92      0.00
   12   11    6     -0.55      0.00
   13   11    6      1.13      0.00
   14   11    6     -0.74      0.00
   -7   12    6     -0.57      0.00
   -6   12    6      0.00      0.00
   -5   12    6      0.43      0.00
   -4   12    6     -0.19      0.00
   -3   12    6      0.98      0.00
   -2   12    6      0.82      0.00
   -1   12    6     -0.41      0.00
    0   12    6     -0.17      0.00
    1   12    6     -0.45      0.00
    2   12    6     -0.56      0.00
    3   12    6     -0.04      0.00
    4   12    6     -1.21      0.00
    5   12    6      1.05      0.00
    6   12    6      2.59      0.00
    7   12    6      0.12      0.00
    8   12    6     -0.49      0.00
    9   12    6     -0.76      0.00
   10   12    6     -0.09      0.00
   11   12    6     -0.30      0.00
   12   12    6     -1.30      0.00
   13   12    6      0.32      0.00
   -6   13    6      0.07      0.00
   -5   13    6     -0.04      0.00
   -4   13    6     -1.03      0.00
   -3   13    6     -0.69      0.00
   -2   13    6      0.44      0.00
   -1   13    6     -0.20      0.00
    0   13    6     -0.10      0.00
    1   13    6      0.52      0.00
    2   13    6      0.90      0.00
    3   13    6      1.01      0.00
    4   13    6     -0.80      0.00
    5   13    6     -1.37      0.00
    6   13    6      1.21      0.00
    7   13    6      0.79      0.00
    8   13    6      0.18      0.00
    9   13    6     -0.28      0.00
   10   13    6      0.28      0.00
   11   13    6     -0.01      0.00
   12   13    6     -0.84      0.00
   13   13    6     -0.86      0.00
   -5   14    6      0.57      0.00
   -4   14    6     -0.19      0.00
   -3   14    6     -0.85      0.00
   -2   14    6     -0.04      0.00
   -1   14    6      0.42      0.00
    0   14    6      0.26      0.00
    1   14    6      0.24      0.00
    2   14    6      1.09      0.00
    3   14    6      0.79      0.00
    4   14    6      0.30      0.00
    5   14    6     -0.16      0.00
    6   14    6      0.06      0.00
    7   14    6      0.38      0.00
    8   14    6     -0.26      0.00
    9   14    6     -0.22      0.00
   10   14    6     -0.14      0.00
   11   14    6     -0.60      0.00
   12   14    6     -0.35      0.00
   13   14    6      0.09      0.00
   -4   15    6     -0.55      0.00
   -3   15    6     -0.88      0.00
   -2   15    6     -1.00      0.00
   -1   15    6      0.58      0.00
    0   15    6      1.11      0.00
    1   15    6      0.47      0.00
    2   15    6      0.41      0.00
    3   15    6      0.12      0.00
    4   15    6     -0.93      0.00
    5   15    6      0.15      0.00
    6   15    6      0.70      0.00
    7   15    6      0.78      0.00
    8   15    6      0.17      0.00
    9   15    6      0.00      0.00
   10   15    6     -0.39      0.00
   11   15    6     -0.65      0.00
   12   15    6     -0.13      0.00
   -3   16    6      0.20      0.00
   -2   16    6     -0.34      0.00
   -1   16    6      0.38      0.00
    0   16    6      0.03      0.00
    1   16    6     -0.10      0.00
    2   16    6     -0.48      0.00
    3   16    6      0.76      0.00
    4   16    6      1.07      0.00
    5   16    6      0.10      0.00
    6   16    6      0.62      0.00
    7   16    6     -0.12      0.00
    8   16    6      0.09      0.00
    9   16    6     -0.28      0.00
   10   16    6     -0.02      0.00
   11   16    6     -0.39      0.00
   12   16    6      0.51      0.00
   -1   17    6      0.39      0.00
    0   17    6     -0.15      0.00
    1   17    6     -0.28      0.00
    2   17    6     -0.78      0.00
    3   17    6     -0.15      0.00
    4   17    6      1.93      0.00
    5   17    6     -0.13      0.00
    6   17    6      0.68      0.00
    7   17    6     -0.38      0.00
    8   17    6      0.28      0.00
    9   17    6     -0.99      0.00
   10   17    6      0.22      0.00
   11   17    6     -0.58      0.00
    0   18    6     -0.95      0.00
    1   18    6     -0.26      0.00
    2   18    6     -0.86      0.00
    3   18    6     -1.74      0.00
    4   18    6      0.80      0.00
    5   18    6      0.17      0.00
    6   18    6      0.81      0.00
    7   18    6     -0.38      0.00
    8   18    6      0.78      0.00
    9   18    6     -0.62      0.00
   10   18    6      0.57      0.00
    3   19    6     -1.01      0.00
    4   19    6     -0.98      0.00
    5   19    6      0.04      0.00
    6   19    6      1.52      0.00
    7   19    6      0.12      0.00
    8   19    6      0.23      0.00
   -4  -15    7     -0.06      0.00
   -3  -15    7      0.59      0.00
   -2  -15    7     -0.35      0.00
   -7  -14    7      0.36      0.00
   -6  -14    7     -1.02      0.00
   -5  -14    7     -0.07      0.00
   -4  -14    7     -0.58      0.00
   -3  -14    7      0.22      0.00
   -2  -14    7      0.78      0.00
   -1  -14    7     -0.11      0.00
    0  -14    7      0.04      0.00
    1  -14    7     -0.47      0.00
   -8  -13    7      0.13      0.00
   -7  -13    7      0.29      0.00
   -6  -13    7     -0.50      0.00
   -5  -13    7     -0.09      0.00
   -4  -13    7     -0.60      0.00
   -3  -13    7     -1.11      0.00
   -2  -13    7      0.59      0.00
   -1  -13    7      1.08      0.00
    0  -13    7     -0.64      0.00
    1  -13    7     -0.52      0.00
    2  -13    7     -0.09      0.00
    3  -13    7      0.75      0.00
   -9  -12    7     -0.33      0.00
   -8  -12    7     -0.33      0.00
   -7  -12    7     -0.54      0.00
   -6  -12    7     -0.53      0.00
   -5  -12    7      0.08      0.00
   -4  -12    7      0.38      0.00
   -3  -12    7     -0.30      0.00
   -2  -12    7     -0.36      0.00
   -1  -12    7      0.86      0.00
    0  -12    7     -0.32      0.00
    1  -12    7     -0.87      0.00
    2  -12    7     -1.41      0.00
    3  -12    7     -0.96      0.00
    4  -12    7      1.17      0.00
  -10  -11    7     -0.23      0.00
   -9  -11    7      0.17      0.00
   -8  -11    7      0.24      0.00
   -7  -11    7      0.01      0.00
   -6  -11    7      0.06      0.00
   -5  -11    7     -0.32      0.00
   -4  -11    7     -0.32      0.00
   -3  -11    7     -0.24      0.00
   -2  -11    7      0.00      0.00
   -1  -11    7      0.06      0.00
    0  -11    7     -0.37      0.00
    1  -11    7     -0.40      0.00
    2  -11    7     -0.73      0.00
    3  -11    7     -1.56      0.00
    4  -11    7      0.15      0.00
    5  -11    7      0.76      0.00
    6  -11    7      0.35      0.00
  -10  -10    7      0.13      0.00
   -9  -10    7      0.19      0.00
   -8  -10    7      0.07      0.00
   -7  -10    7      0.00      0.00
   -6  -10    7      0.38      0.00
   -5  -10    7     -0.16      0.00
   -4  -10    7     -0.04      0.00
   -3  -10    7     -0.29      0.00
   -2  -10    7      0.30      0.00
   -1  -10    7     -0.09      0.00
    0  -10    7      0.21      0.00
    1  -10    7      0.14      0.00
    2  -10    7     -0.55      0.00
    3  -10    7     -0.23      0.00
    4  -10    7     -0.25      0.00
    5  -10    7      0.69      0.00
    6  -10    7      0.52      0.00
    7  -10    7      0.07      0.00
  -11   -9    7      0.04      0.00
  -10   -9    7      0.27      0.00
   -9   -9    7      0.13      0.00
   -8   -9    7      0.04      0.00
   -7   -9    7     -0.05      0.00
   -6   -9    7     -0.09      0.00
   -5   -9    7     -0.32      0.00
   -4   -9    7      0.05      0.00
   -3   -9    7     -0.46      0.00
   -2   -9    7      0.11      0.00
   -1   -9    7     -0.44      0.00
    0   -9    7     -0.64      0.00
    1   -9    7      0.34      0.00
    2   -9    7     -0.62      0.00
    3   -9    7      0.18      0.00
    4   -9    7     -0.59      0.00
    5   -9    7     -0.94      0.00
    6   -9    7      0.78      0.00
    7   -9    7      0.85      0.00
    8   -9    7     -0.44      0.00
  -11   -8    7     -0.30      0.00
  -10   -8    7     -0.22      0.00
   -9   -8    7     -0.36      0.00
   -8   -8    7      0.18      0.00
   -7   -8    7      0.91      0.00
   -6   -8    7      0.41      0.00
   -5   -8    7      0.04      0.00
   -4   -8    7      0.37      0.00
   -3   -8    7     -0.29      0.00
   -2   -8    7      0.35      0.00
   -1   -8    7      0.83      0.00
    0   -8    7     -0.48      0.00
    1   -8    7      0.19      0.00
    2   -8    7      0.24      0.00
    3   -8    7      0.18      0.00
    4   -8    7      0.32      0.00
    5   -8    7     -0.98      0.00
    6   -8    7      0.44      0.00
    7   -8    7      1.29      0.00
    8   -8    7     -0.23      0.00
  -11   -7    7      0.00      0.00
  -10   -7    7      0.05      0.00
   -9   -7    7      0.19      0.00
   -8   -7    7      0.49      0.00
   -7   -7    7      0.95      0.00
   -6   -7    7      0.14      0.00
   -5   -7    7     -0.74      0.00
   -4   -7    7     -0.03      0.00
   -3   -7    7     -0.28      0.00
   -2   -7    7      0.39      0.00
   -1   -7    7      1.35      0.00
    0   -7    7     -0.63      0.00
    1   -7    7     -0.70      0.00
    2   -7    7      0.99      0.00
    3   -7    7      0.17      0.00
    4   -7    7     -0.02      0.00
    5   -7    7     -0.29      0.00
    6   -7    7      0.49      0.00
    7   -7    7      1.19      0.00
    8   -7    7     -0.19      0.00
    9   -7    7     -1.08      0.00
  -11   -6    7      0.14      0.00
  -10   -6    7      0.25      0.00
   -9   -6    7      0.77      0.00
   -8   -6    7      0.78      0.00
   -7   -6    7      0.23      0.00
   -6   -6    7     -0.81      0.00
   -5   -6    7     -2.07      0.00
   -4   -6    7     -0.39      0.00
   -3   -6    7      0.43      0.00
   -2   -6    7      0.23      0.00
   -1   -6    7      0.65      0.00
    0   -6    7     -0.94      0.00
    1   -6    7     -1.36      0.00
    2   -6    7      0.85      0.00
    3   -6    7      0.44      0.00
    4   -6    7     -0.20      0.00
    5   -6    7      0.12      0.00
    6   -6    7     -0.13      0.00
    7   -6    7      0.17      0.00
    8   -6    7      0.24      0.00
    9   -6    7      0.07      0.00
   10   -6    7      0.08      0.00
  -12   -5    7      0.31      0.00
  -11   -5    7      0.59      0.00
  -10   -5    7      0.38      0.00
   -9   -5    7     -0.11      0.00
   -8   -5    7     -0.38      0.00
   -7   -5    7     -0.09      0.00
   -6   -5    7     -0.04      0.00
   -5   -5    7     -1.11      0.00
   -4   -5    7      0.24      0.00
   -3   -5    7      1.40      0.00
   -2   -5    7      0.50      0.00
   -1   -5    7     -0.47      0.00
    0   -5    7     -1.36      0.00
    1   -5    7     -1.48      0.00
    2   -5    7      0.70      0.00
    3   -5    7      0.95      0.00
    4   -5    7      0.19      0.00
    5   -5    7      0.58      0.00
    6   -5    7      0.43      0.00
    7   -5    7     -0.06      0.00
    8   -5    7     -1.10      0.00
    9   -5    7      0.19      0.00
   10   -5    7      1.17      0.00
  -12   -4    7     -0.53      0.00
  -11   -4    7      0.17      0.00
  -10   -4    7      0.75      0.00
   -9   -4    7      0.20      0.00
   -8   -4    7     -0.81      0.00
   -7   -4    7     -0.52      0.00
   -6   -4    7      0.77      0.00
   -5   -4    7      0.85      0.00
   -4   -4    7      1.26      0.00
   -3   -4    7      0.69      0.00
   -2   -4    7     -0.82      0.00
   -1   -4    7     -1.39      0.00
    0   -4    7     -0.99      0.00
    1   -4    7     -1.00      0.00
    2   -4    7     -0.26      0.00
    3   -4    7     -0.11      0.00
    4   -4    7      0.31      0.00
    5   -4    7     -0.04      0.00
    6   -4    7     -0.18      0.00
    7   -4    7      1.14      0.00
    8   -4    7     -0.29      0.00
    9   -4    7     -0.52      0.00
   10   -4    7      0.25      0.00
   11   -4    7      0.32      0.00
  -12   -3    7     -1.16      0.00
  -11   -3    7     -0.60      0.00
  -10   -3    7      0.08      0.00
   -9   -3    7      0.27      0.00
   -8   -3    7      0.24      0.00
   -7   -3    7     -0.40      0.00
   -6   -3    7     -0.81      0.00
   -5   -3    7     -0.32      0.00
   -4   -3    7      0.88      0.00
   -3   -3    7      0.39      0.00
   -2   -3    7     -2.02      0.00
   -1   -3    7     -2.05      0.00
    0   -3    7     -0.72      0.00
    1   -3    7      0.14      0.00
    2   -3    7      0.60      0.00
    3   -3    7     -1.11      0.00
    4   -3    7      0.52      0.00
    5   -3    7      0.71      0.00
    6   -3    7     -0.41      0.00
    7   -3    7      0.52      0.00
    8   -3    7      0.06      0.00
    9   -3    7      0.46      0.00
   10   -3    7      0.34      0.00
   11   -3    7     -0.03      0.00
  -10   -2    7     -0.69      0.00
   -9   -2    7      0.00      0.00
   -8   -2    7      0.34      0.00
   -7   -2    7      0.54      0.00
   -6   -2    7     -0.54      0.00
   -5   -2    7     -1.21      0.00
   -4   -2    7     -0.78      0.00
   -3   -2    7     -0.40      0.00
   -2   -2    7     -2.31      0.00
   -1   -2    7     -1.75      0.00
    0   -2    7     -0.71      0.00
    1   -2    7     -0.20      0.00
    2   -2    7      2.49      0.00
    3   -2    7     -1.66      0.00
    4   -2    7     -1.07      0.00
    5   -2    7      0.41      0.00
    6   -2    7      0.18      0.00
    7   -2    7      0.77      0.00
    8   -2    7     -0.52      0.00
    9   -2    7     -0.49      0.00
   10   -2    7      0.61      0.00
   11   -2    7      0.12      0.00
   12   -2    7     -0.73      0.00
  -11   -1    7      0.23      0.00
   -9   -1    7     -0.54      0.00
   -8   -1    7     -1.13      0.00
   -7   -1    7     -0.64      0.00
   -6   -1    7      0.11      0.00
   -5   -1    7      0.70      0.00
   -4   -1    7      0.17      0.00
   -3   -1    7     -0.61      0.00
   -2   -1    7     -2.38      0.00
   -1   -1    7     -0.92      0.00
    0   -1    7     -1.17      0.00
    1   -1    7     -5.43      0.00
    2   -1    7      2.53      0.00
    3   -1    7      2.05      0.00
    4   -1    7     -0.15      0.00
    5   -1    7      0.04      0.00
    6   -1    7     -0.33      0.00
    7   -1    7      0.62      0.00
    8   -1    7      0.02      0.00
    9   -1    7     -0.67      0.00
   10   -1    7      0.57      0.00
   11   -1    7      0.62      0.00
   12   -1    7     -0.04      0.00
  -11    0    7      1.91      0.00
  -10    0    7     -0.69      0.00
   -9    0    7      0.11      0.00
   -8    0    7     -0.68      0.00
   -7    0    7     -1.00      0.00
   -6    0    7     -0.68      0.00
   -5    0    7      0.41      0.00
   -4    0    7      0.25      0.00
   -3    0    7     -0.67      0.00
   -2    0    7     -1.98      0.00
   -1    0    7      1.94      0.00
    0    0    7      4.78      0.00
    1    0    7     -8.67      0.00
    2    0    7     -5.38      0.00
    3    0    7      1.12      0.00
    4    0    7      1.37      0.00
    5    0    7      2.04      0.00
    6    0    7      0.61      0.00
    7    0    7      1.16      0.00
    8    0    7      0.57      0.00
    9    0    7     -0.38      0.00
   10    0    7      0.34      0.00
   11    0    7     -0.26      0.00
   12    0    7     -0.46      0.00
   13    0    7      0.09      0.00
  -11    1    7      2.01      0.00
  -10    1    7      0.08      0.00
   -9    1    7      0.40      0.00
   -8    1    7      0.58      0.00
   -7    1    7      0.28      0.00
   -6    1    7     -0.66      0.00
   -5    1    7     -0.51      0.00
   -4    1    7     -0.42      0.00
   -3    1    7     -0.29      0.00
   -2    1    7     -3.14      0.00
   -1    1    7     -2.85      0.00
    0    1    7      7.38      0.00
    1    1    7     -0.09      0.00
    2    1    7     -3.66      0.00
    3    1    7      0.24      0.00
    4    1    7     -1.17      0.00
    5    1    7      0.75      0.00
    6    1    7     -0.37      0.00
    7    1    7      0.28      0.00
    8    1    7      1.21      0.00
    9    1    7      0.33      0.00
   10    1    7      0.27      0.00
   11    1    7     -0.38      0.00
   12    1    7     -0.52      0.00
   13    1    7      0.52      0.00
  -11    2    7      0.64      0.00
  -10    2    7     -0.06      0.00
   -9    2    7     -0.47      0.00
   -8    2    7      0.08      0.00
   -7    2    7      0.62      0.00
   -6    2    7     -0.24      0.00
   -5    2    7     -0.60      0.00
   -4    2    7     -0.68      0.00
   -3    2    7      2.04      0.00
   -2    2    7      1.75      0.00
   -1    2    7     -7.06      0.00
    0    2    7     -3.89      0.00
    1    2    7     -1.34      0.00
    2    2    7      0.63      0.00
    3    2    7      5.72      0.00
    4    2    7      1.56      0.00
    5    2    7      1.03      0.00
    6    2    7     -0.03      0.00
    7    2    7     -1.26      0.00
    8    2    7      0.41      0.00
    9    2    7      0.15      0.00
   10    2    7     -0.17      0.00
   11    2    7     -0.10      0.00
   12    2    7      0.02      0.00
   13    2    7      0.79      0.00
  -10    3    7      0.76      0.00
   -9    3    7      0.37      0.00
   -8    3    7     -0.33      0.00
   -7    3    7     -0.24      0.00
   -6    3    7     -0.57      0.00
   -5    3    7     -0.28      0.00
   -4    3    7     -1.07      0.00
   -3    3    7     -0.10      0.00
   -2    3    7      4.64      0.00
   -1    3    7     -0.19      0.00
    0    3    7     -3.98      0.00
    1    3    7     -3.07      0.00
    2    3    7     -2.09      0.00
    3    3    7      3.20      0.00
    4    3    7      0.64      0.00
    5    3    7      0.23      0.00
    6    3    7      2.14      0.00
    7    3    7      0.15      0.00
    8    3    7      1.38      0.00
    9    3    7      0.26      0.00
   10    3    7     -0.94      0.00
   11    3    7     -0.33      0.00
   12    3    7      0.59      0.00
   13    3    7      0.70      0.00
  -11    4    7     -0.61      0.00
  -10    4    7     -0.72      0.00
   -9    4    7      0.30      0.00
   -8    4    7      0.31      0.00
   -7    4    7      0.66      0.00
   -6    4    7     -0.16      0.00
   -5    4    7     -0.35      0.00
   -4    4    7     -0.16      0.00
   -3    4    7     -1.49      0.00
   -2    4    7      0.23      0.00
   -1    4    7      0.29      0.00
    0    4    7     -0.43      0.00
    1    4    7      3.02      0.00
    2    4    7      2.52      0.00
    3    4    7      4.75      0.00
    4    4    7      0.40      0.00
    5    4    7     -3.12      0.00
    6    4    7      0.75      0.00
    7    4    7     -0.20      0.00
    8    4    7      1.24      0.00
    9    4    7      0.93      0.00
   10    4    7     -0.04      0.00
   11    4    7     -0.21      0.00
   12    4    7      0.01      0.00
   13    4    7      0.48      0.00
   14    4    7     -0.38      0.00
  -10    5    7     -1.13      0.00
   -9    5    7     -0.41      0.00
   -8    5    7     -0.49      0.00
   -7    5    7      0.68      0.00
   -6    5    7      0.60      0.00
   -5    5    7     -0.11      0.00
   -4    5    7      0.58      0.00
   -3    5    7      1.16      0.00
   -2    5    7      0.20      0.00
   -1    5    7     -0.56      0.00
    0    5    7     -1.24      0.00
    1    5    7      1.53      0.00
    2    5    7      0.43      0.00
    3    5    7      3.31      0.00
    4    5    7      3.07      0.00
    5    5    7     -1.07      0.00
    6    5    7      0.86      0.00
    7    5    7     -0.44      0.00
    8    5    7      0.31      0.00
    9    5    7     -0.22      0.00
   10    5    7     -0.34      0.00
   11    5    7      0.32      0.00
   12    5    7     -0.12      0.00
   13    5    7      0.40      0.00
   14    5    7     -0.65      0.00
  -10    6    7     -0.42      0.00
   -9    6    7      0.29      0.00
   -8    6    7      0.05      0.00
   -7    6    7      0.21      0.00
   -6    6    7      0.36      0.00
   -5    6    7      0.43      0.00
   -4    6    7      0.18      0.00
   -3    6    7      1.54      0.00
   -2    6    7      0.93      0.00
   -1    6    7      0.07      0.00
    0    6    7      1.45      0.00
    1    6    7      3.80      0.00
    2    6    7      0.97      0.00
    3    6    7     -0.96      0.00
    4    6    7     -0.17      0.00
    5    6    7     -1.30      0.00
    6    6    7      0.90      0.00
    7    6    7     -0.06      0.00
    8    6    7      1.03      0.00
    9    6    7      0.83      0.00
   10    6    7     -0.09      0.00
   11    6    7      0.39      0.00
   12    6    7      0.06      0.00
   13    6    7      0.72      0.00
   14    6    7     -0.17      0.00
   -9    7    7      0.12      0.00
   -8    7    7      0.43      0.00
   -7    7    7      0.03      0.00
   -6    7    7     -0.38      0.00
   -5    7    7      0.70      0.00
   -4    7    7      0.44      0.00
   -3    7    7      1.10      0.00
   -2    7    7      0.72      0.00
   -1    7    7     -0.56      0.00
    0    7    7      0.87      0.00
    1    7    7      2.98      0.00
    2    7    7      2.39      0.00
    3    7    7     -0.46      0.00
    4    7    7     -0.15      0.00
    5    7    7     -0.53      0.00
    6    7    7      0.50      0.00
    7    7    7     -0.65      0.00
    8    7    7     -0.14      0.00
    9    7    7      0.96      0.00
   10    7    7     -0.07      0.00
   11    7    7      0.27      0.00
   12    7    7      0.09      0.00
   13    7    7     -0.10      0.00
   14    7    7     -0.82      0.00
   -9    8    7     -0.11      0.00
   -8    8    7      0.20      0.00
   -7    8    7      0.55      0.00
   -6    8    7      0.02      0.00
   -5    8    7      0.46      0.00
   -4    8    7     -0.02      0.00
   -3    8    7      0.07      0.00
   -2    8    7      0.69      0.00
   -1    8    7      0.30      0.00
    0    8    7      0.38      0.00
    1    8    7      0.08      0.00
    2    8    7     -0.46      0.00
    3    8    7     -1.37      0.00
    4    8    7     -0.71      0.00
    5    8    7     -0.05      0.00
    6    8    7      1.29      0.00
    7    8    7      0.50      0.00
    8    8    7     -1.13      0.00
    9    8    7      0.53      0.00
   10    8    7      0.07      0.00
   11    8    7     -0.02      0.00
   12    8    7      0.35      0.00
   13    8    7      0.11      0.00
   14    8    7     -1.05      0.00
   -8    9    7     -0.73      0.00
   -7    9    7     -0.09      0.00
   -6    9    7      0.74      0.00
   -5    9    7      0.61      0.00
   -4    9    7      0.74      0.00
   -3    9    7     -0.45      0.00
   -2    9    7     -0.14      0.00
   -1    9    7     -0.04      0.00
    0    9    7     -0.25      0.00
    1    9    7     -0.46      0.00
    2    9    7     -1.30      0.00
    3    9    7     -0.20      0.00
    4    9    7      1.24      0.00
    5    9    7      0.31      0.00
    6    9    7      0.23      0.00
    7    9    7      0.58      0.00
    8    9    7     -1.48      0.00
    9    9    7     -0.59      0.00
   10    9    7     -0.28      0.00
   11    9    7     -1.00      0.00
   12    9    7      0.11      0.00
   13    9    7      0.61      0.00
   14    9    7      0.11      0.00
   -8   10    7     -0.15      0.00
   -7   10    7     -1.00      0.00
   -6   10    7      0.14      0.00
   -5   10    7      0.26      0.00
   -4   10    7      1.33      0.00
   -3   10    7      0.26      0.00
   -2   10    7      0.38      0.00
   -1   10    7      0.03      0.00
    0   10    7     -1.17      0.00
    1   10    7     -1.13      0.00
    2   10    7     -0.81      0.00
    3   10    7      0.08      0.00
    4   10    7      1.27      0.00
    5   10    7      0.33      0.00
    6   10    7      0.04      0.00
    7   10    7      0.86      0.00
    8   10    7     -0.21      0.00
    9   10    7     -0.81      0.00
   10   10    7     -0.25      0.00
   11   10    7     -1.33      0.00
   12   10    7     -0.29      0.00
   13   10    7      0.03      0.00
   14   10    7      0.75      0.00
   -7   11    7      0.28      0.00
   -6   11    7     -0.42      0.00
   -5   11    7     -0.12      0.00
   -4   11    7      0.70      0.00
   -3   11    7     -0.09      0.00
   -2   11    7      0.26      0.00
   -1   11    7      1.27      0.00
    0   11    7      0.97      0.00
    1   11    7      0.25      0.00
    2   11    7     -0.16      0.00
    3   11    7     -0.26      0.00
    4   11    7      0.34      0.00
    5   11    7     -0.98      0.00
    6   11    7     -1.67      0.00
    7   11    7      0.20      0.00
    8   11    7      1.35      0.00
    9   11    7      0.39      0.00
   10   11    7     -0.28      0.00
   11   11    7     -0.31      0.00
   12   11    7      1.19      0.00
   13   11    7      0.35      0.00
   14   11    7     -0.06      0.00
   -6   12    7      0.32      0.00
   -5   12    7      0.86      0.00
   -4   12    7      0.79      0.00
   -3   12    7      0.27      0.00
   -2   12    7     -0.88      0.00
   -1   12    7     -0.38      0.00
    0   12    7     -0.35      0.00
    1   12    7      0.15      0.00
    2   12    7      0.36      0.00
    3   12    7     -0.02      0.00
    4   12    7      0.61      0.00
    5   12    7      1.03      0.00
    6   12    7     -1.03      0.00
    7   12    7     -1.00      0.00
    8   12    7     -0.41      0.00
    9   12    7     -0.28      0.00
   10   12    7     -0.50      0.00
   11   12    7     -0.52      0.00
   12   12    7      0.61      0.00
   13   12    7      0.76      0.00
   -6   13    7     -0.32      0.00
   -5   13    7      0.42      0.00
   -4   13    7      0.07      0.00
   -3   13    7      1.13      0.00
   -2   13    7      0.51      0.00
   -1   13    7     -0.32      0.00
    0   13    7     -1.12      0.00
    1   13    7     -0.87      0.00
    2   13    7     -0.68      0.00
    3   13    7     -0.16      0.00
    4   13    7     -0.14      0.00
    5   13    7      1.54      0.00
    6   13    7      1.11      0.00
    7   13    7      0.07      0.00
    8   13    7     -0.51      0.00
    9   13    7     -1.34      0.00
   10   13    7     -0.34      0.00
   11   13    7      0.14      0.00
   12   13    7     -0.35      0.00
   13   13    7     -0.16      0.00
   -5   14    7     -0.02      0.00
   -4   14    7     -0.87      0.00
   -3   14    7     -0.46      0.00
   -2   14    7      0.64      0.00
   -1   14    7     -0.09      0.00
    0   14    7     -0.36      0.00
    1   14    7      0.44      0.00
    2   14    7      0.69      0.00
    3   14    7      0.52      0.00
    4   14    7      0.01      0.00
    5   14    7     -0.05      0.00
    6   14    7      0.65      0.00
    7   14    7      0.20      0.00
    8   14    7      0.20      0.00
    9   14    7     -0.65      0.00
   10   14    7     -0.10      0.00
   11   14    7      0.42      0.00
   12   14    7     -0.33      0.00
   13   14    7     -1.17      0.00
   -4   15    7     -0.39      0.00
   -3   15    7     -0.65      0.00
   -2   15    7      0.81      0.00
   -1   15    7      1.09      0.00
    0   15    7      1.31      0.00
    1   15    7      0.55      0.00
    2   15    7      0.59      0.00
    3   15    7     -0.37      0.00
    4   15    7     -0.29      0.00
    5   15    7      0.37      0.00
    6   15    7      0.26      0.00
    7   15    7      0.09      0.00
    8   15    7     -0.09      0.00
    9   15    7     -0.26      0.00
   10   15    7     -0.92      0.00
   11   15    7     -0.11      0.00
   12   15    7      0.34      0.00
   -3   16    7     -0.61      0.00
   -2   16    7     -0.10      0.00
   -1   16    7      0.44      0.00
    0   16    7      1.38      0.00
    1   16    7      0.82      0.00
    2   16    7      0.26      0.00
    3   16    7     -0.35      0.00
    4   16    7     -1.35      0.00
    5   16    7      0.22      0.00
    6   16    7     -0.49      0.00
    7   16    7      0.26      0.00
    8   16    7      0.21      0.00
    9   16    7      0.71      0.00
   10   16    7     -0.50      0.00
   11   16    7     -0.23      0.00
   12   16    7      0.72      0.00
   -1   17    7      0.57      0.00
    0   17    7     -0.49      0.00
    1   17    7     -0.25      0.00
    2   17    7     -0.08      0.00
    3   17    7      1.17      0.00
    4   17    7     -0.35      0.00
    5   17    7      0.18      0.00
    6   17    7     -0.87      0.00
    7   17    7     -0.13      0.00
    8   17    7      0.45      0.00
    9   17    7      0.33      0.00
   10   17    7      0.13      0.00
   11   17    7      0.01      0.00
    0   18    7     -0.50      0.00
    1   18    7     -0.41      0.00
    2   18    7     -0.77      0.00
    3   18    7      1.21      0.00
    4   18    7      0.97      0.00
    5   18    7     -0.80      0.00
    6   18    7     -1.24      0.00
    7   18    7     -0.19      0.00
    8   18    7      1.46      0.00
    9   18    7      0.06      0.00
   10   18    7      0.06      0.00
    3   19    7     -1.03      0.00
    4   19    7      1.00      0.00
    5   19    7      0.13      0.00
    6   19    7     -0.76      0.00
    7   19    7     -0.94      0.00
    8   19    7      1.19      0.00
   -5  -14    8      0.22      0.00
   -4  -14    8      0.13      0.00
   -3  -14    8      0.69      0.00
   -2  -14    8     -1.30      0.00
   -1  -14    8     -0.14      0.00
    0  -14    8      0.98      0.00
   -7  -13    8      1.26      0.00
   -6  -13    8     -0.94      0.00
   -5  -13    8     -0.54      0.00
   -4  -13    8     -0.98      0.00
   -3  -13    8      1.03      0.00
   -2  -13    8      0.64      0.00
   -1  -13    8     -0.29      0.00
    0  -13    8      0.89      0.00
    1  -13    8     -0.18      0.00
    2  -13    8      0.53      0.00
   -8  -12    8     -0.25      0.00
   -7  -12    8      0.74      0.00
   -6  -12    8     -0.44      0.00
   -5  -12    8      0.28      0.00
   -4  -12    8     -0.65      0.00
   -3  -12    8     -0.29      0.00
   -2  -12    8      0.74      0.00
   -1  -12    8      0.55      0.00
    0  -12    8      0.42      0.00
    1  -12    8     -0.70      0.00
    2  -12    8      0.52      0.00
    3  -12    8      0.50      0.00
    4  -12    8     -0.64      0.00
   -9  -11    8      0.20      0.00
   -8  -11    8     -0.46      0.00
   -7  -11    8     -0.52      0.00
   -6  -11    8     -0.78      0.00
   -5  -11    8      0.28      0.00
   -4  -11    8      0.03      0.00
   -3  -11    8      0.03      0.00
   -2  -11    8     -0.13      0.00
   -1  -11    8      0.06      0.00
    0  -11    8     -0.48      0.00
    1  -11    8     -0.90      0.00
    2  -11    8     -0.61      0.00
    3  -11    8     -1.16      0.00
    4  -11    8     -0.42      0.00
    5  -11    8      0.11      0.00
  -10  -10    8     -0.64      0.00
   -9  -10    8      0.67      0.00
   -8  -10    8      0.49      0.00
   -7  -10    8      0.23      0.00
   -6  -10    8     -0.40      0.00
   -5  -10    8     -0.17      0.00
   -4  -10    8     -0.48      0.00
   -3  -10    8     -0.28      0.00
   -2  -10    8     -0.28      0.00
   -1  -10    8      0.49      0.00
    0  -10    8     -0.39      0.00
    1  -10    8     -0.82      0.00
    2  -10    8     -0.14      0.00
    3  -10    8     -1.33      0.00
    4  -10    8     -0.68      0.00
    5  -10    8      0.22      0.00
    6  -10    8     -0.08      0.00
  -10   -9    8     -0.23      0.00
   -9   -9    8      0.19      0.00
   -8   -9    8     -0.19      0.00
   -7   -9    8      0.46      0.00
   -6   -9    8      0.12      0.00
   -5   -9    8     -0.51      0.00
   -4   -9    8     -0.47      0.00
   -3   -9    8     -0.07      0.00
   -2   -9    8     -0.23      0.00
   -1   -9    8      0.25      0.00
    0   -9    8      0.55      0.00
    1   -9    8     -0.47      0.00
    2   -9    8     -0.25      0.00
    3   -9    8     -0.04      0.00
    4   -9    8     -0.66      0.00
    5   -9    8      0.34      0.00
    6   -9    8     -0.20      0.00
    7   -9    8     -0.38      0.00
  -10   -8    8      0.21      0.00
   -9   -8    8      0.17      0.00
   -8   -8    8     -0.44      0.00
   -7   -8    8      0.46      0.00
   -6   -8    8      0.35      0.00
   -5   -8    8     -0.30      0.00
   -4   -8    8     -0.68      0.00
   -3   -8    8     -0.12      0.00
   -2   -8    8      0.13      0.00
   -1   -8    8     -0.25      0.00
    0   -8    8      0.59      0.00
    1   -8    8     -0.24      0.00
    2   -8    8     -1.23      0.00
    3   -8    8      0.39      0.00
    4   -8    8     -0.46      0.00
    5   -8    8     -0.84      0.00
    6   -8    8     -0.09      0.00
    7   -8    8      0.04      0.00
    8   -8    8     -0.62      0.00
  -11   -7    8      0.08      0.00
  -10   -7    8     -0.13      0.00
   -9   -7    8     -0.18      0.00
   -8   -7    8     -0.06      0.00
   -7   -7    8      1.29      0.00
   -6   -7    8      0.64      0.00
   -5   -7    8      0.24      0.00
   -4   -7    8     -0.74      0.00
   -3   -7    8     -0.13      0.00
   -2   -7    8      0.82      0.00
   -1   -7    8     -0.13      0.00
    0   -7    8      0.24      0.00
    1   -7    8      0.64      0.00
    2   -7    8     -0.41      0.00
    3   -7    8      0.27      0.00
    4   -7    8      0.19      0.00
    5   -7    8     -1.02      0.00
    6   -7    8      0.29      0.00
    7   -7    8      0.59      0.00
    8   -7    8     -0.46      0.00
    9   -7    8      0.46      0.00
  -11   -6    8      0.55      0.00
  -10   -6    8      0.56      0.00
   -9   -6    8      0.58      0.00
   -8   -6    8      0.23      0.00
   -7   -6    8      1.22      0.00
   -6   -6    8      0.19      0.00
   -5   -6    8     -0.20      0.00
   -4   -6    8     -0.79      0.00
   -3   -6    8     -0.19      0.00
   -2   -6    8      1.14      0.00
   -1   -6    8      0.22      0.00
    0   -6    8     -0.85      0.00
    1   -6    8     -0.25      0.00
    2   -6    8     -0.07      0.00
    3   -6    8      0.18      0.00
    4   -6    8      0.13      0.00
    5   -6    8     -1.00      0.00
    6   -6    8      0.01      0.00
    7   -6    8      0.88      0.00
    8   -6    8      0.02      0.00
    9   -6    8     -0.17      0.00
  -11   -5    8      0.42      0.00
  -10   -5    8      0.22      0.00
   -9   -5    8      0.70      0.00
   -8   -5    8      0.44      0.00
   -7   -5    8      0.44      0.00
   -6   -5    8     -0.54      0.00
   -5   -5    8     -1.44      0.00
   -4   -5    8     -0.88      0.00
   -3   -5    8      0.52      0.00
   -2   -5    8      1.29      0.00
   -1   -5    8      0.08      0.00
    0   -5    8     -1.22      0.00
    1   -5    8     -0.32      0.00
    2   -5    8      0.17      0.00
    3   -5    8      0.11      0.00
    4   -5    8      0.09      0.00
    5   -5    8     -0.30      0.00
    6   -5    8     -0.39      0.00
    7   -5    8     -0.53      0.00
    8   -5    8      0.26      0.00
    9   -5    8      0.63      0.00
   10   -5    8      0.22      0.00
  -11   -4    8      0.97      0.00
  -10   -4    8      0.50      0.00
   -9   -4    8     -0.53      0.00
   -8   -4    8     -0.44      0.00
   -7   -4    8      0.46      0.00
   -6   -4    8      0.69      0.00
   -5   -4    8     -0.63      0.00
   -4   -4    8     -0.64      0.00
   -3   -4    8      0.50      0.00
   -2   -4    8      1.12      0.00
   -1   -4    8     -0.43      0.00
    0   -4    8     -1.56      0.00
    1   -4    8     -0.57      0.00
    2   -4    8      0.52      0.00
    3   -4    8      0.65      0.00
    4   -4    8      0.41      0.00
    5   -4    8      0.12      0.00
    6   -4    8      0.70      0.00
    7   -4    8     -0.16      0.00
    8   -4    8     -0.70      0.00
    9   -4    8      0.21      0.00
   10   -4    8      0.62      0.00
   11   -4    8      0.56      0.00
  -11   -3    8      0.33      0.00
  -10   -3    8      0.93      0.00
   -9   -3    8     -0.38      0.00
   -8   -3    8     -0.83      0.00
   -7   -3    8     -0.16      0.00
   -6   -3    8      0.89      0.00
   -5   -3    8      0.81      0.00
   -4   -3    8      0.61      0.00
   -3   -3    8     -0.06      0.00
   -2   -3    8     -0.06      0.00
   -1   -3    8     -1.26      0.00
    0   -3    8     -1.39      0.00
    1   -3    8     -0.44      0.00
    2   -3    8     -0.33      0.00
    3   -3    8     -0.01      0.00
    4   -3    8      0.66      0.00
    5   -3    8     -0.42      0.00
    6   -3    8     -0.19      0.00
    7   -3    8      0.26      0.00
    8   -3    8     -0.17      0.00
    9   -3    8      0.00      0.00
   10   -3    8     -0.49      0.00
   11   -3    8      0.16      0.00
  -11   -2    8     -0.30      0.00
  -10   -2    8      0.61      0.00
   -9   -2    8     -0.13      0.00
   -8   -2    8      0.22      0.00
   -7   -2    8     -0.18      0.00
   -6   -2    8     -1.01      0.00
   -5   -2    8     -0.81      0.00
   -4   -2    8      0.38      0.00
   -3   -2    8     -0.22      0.00
   -2   -2    8     -0.76      0.00
   -1   -2    8     -1.35      0.00
    0   -2    8     -0.91      0.00
    1   -2    8      1.43      0.00
    2   -2    8     -0.13      0.00
    3   -2    8     -1.54      0.00
    4   -2    8      0.92      0.00
    5   -2    8      0.58      0.00
    6   -2    8      0.10      0.00
    7   -2    8      0.02      0.00
    8   -2    8     -0.78      0.00
    9   -2    8      0.25      0.00
   10   -2    8     -0.61      0.00
   11   -2    8     -0.27      0.00
   12   -2    8      0.40      0.00
  -11   -1    8     -0.25      0.00
  -10   -1    8      0.58      0.00
   -9   -1    8     -0.27      0.00
   -8   -1    8      0.26      0.00
   -7   -1    8      0.49      0.00
   -6   -1    8     -0.38      0.00
   -5   -1    8     -0.90      0.00
   -4   -1    8     -0.18      0.00
   -3   -1    8     -0.57      0.00
   -2   -1    8     -1.31      0.00
   -1   -1    8     -1.36      0.00
    0   -1    8     -1.62      0.00
    1   -1    8      2.63      0.00
    2   -1    8      2.36      0.00
    3   -1    8     -2.68      0.00
    4   -1    8     -0.59      0.00
    5   -1    8      0.18      0.00
    6   -1    8      0.48      0.00
    7   -1    8      0.69      0.00
    8   -1    8     -0.73      0.00
    9   -1    8     -0.04      0.00
   10   -1    8     -0.62      0.00
   11   -1    8     -0.18      0.00
   12   -1    8     -0.10      0.00
  -11    0    8     -0.07      0.00
  -10    0    8      0.12      0.00
   -9    0    8     -0.32      0.00
   -8    0    8     -1.01      0.00
   -7    0    8     -0.52      0.00
   -6    0    8      0.12      0.00
   -5    0    8      0.16      0.00
   -4    0    8      0.06      0.00
   -3    0    8     -0.44      0.00
   -2    0    8     -0.25      0.00
   -1    0    8      0.44      0.00
    0    0    8     -3.09      0.00
    1    0    8     -1.71      0.00
    2    0    8      3.20      0.00
    3    0    8     -0.47      0.00
    4    0    8      0.69      0.00
    5    0    8      0.53      0.00
    6    0    8      0.55      0.00
    7    0    8      0.62      0.00
    8    0    8     -1.06      0.00
    9    0    8      0.07      0.00
   10    0    8      0.11      0.00
   11    0    8      0.22      0.00
   12    0    8      0.35      0.00
  -10    1    8      0.23      0.00
   -9    1    8      0.59      0.00
   -8    1    8     -0.80      0.00
   -7    1    8     -0.84      0.00
   -6    1    8     -0.06      0.00
   -5    1    8      0.45      0.00
   -4    1    8     -0.39      0.00
   -3    1    8     -1.84      0.00
   -2    1    8     -0.47      0.00
   -1    1    8      4.02      0.00
    0    1    8      0.75      0.00
    1    1    8     -5.70      0.00
    2    1    8     -1.30      0.00
    3    1    8     -1.40      0.00
    4    1    8      1.43      0.00
    5    1    8      1.74      0.00
    6    1    8      0.96      0.00
    7    1    8      1.67      0.00
    8    1    8     -0.71      0.00
    9    1    8     -0.51      0.00
   10    1    8      0.37      0.00
   11    1    8     -0.22      0.00
   12    1    8     -0.10      0.00
   13    1    8     -0.20      0.00
  -10    2    8      0.08      0.00
   -9    2    8      1.00      0.00
   -8    2    8      0.30      0.00
   -7    2    8     -0.12      0.00
   -6    2    8     -0.43      0.00
   -5    2    8     -0.01      0.00
   -4    2    8      0.09      0.00
   -3    2    8     -1.01      0.00
   -2    2    8     -2.45      0.00
   -1    2    8      0.92      0.00
    0    2    8      2.55      0.00
    1    2    8     -3.08      0.00
    2    2    8     -0.08      0.00
    3    2    8     -0.58      0.00
    4    2    8      0.54      0.00
    5    2    8      0.87      0.00
    6    2    8     -1.23      0.00
    7    2    8      0.66      0.00
    8    2    8      0.24      0.00
    9    2    8      0.09      0.00
   10    2    8      0.53      0.00
   11    2    8      0.03      0.00
   12    2    8     -0.15      0.00
   13    2    8      0.43      0.00
  -10    3    8     -0.29      0.00
   -9    3    8     -0.09      0.00
   -8    3    8     -0.04      0.00
   -7    3    8     -0.10      0.00
   -6    3    8     -0.10      0.00
   -5    3    8     -0.05      0.00
   -4    3    8     -0.51      0.00
   -3    3    8      0.48      0.00
   -2    3    8     -0.23      0.00
   -1    3    8     -1.63      0.00
    0    3    8     -1.37      0.00
    1    3    8     -4.02      0.00
    2    3    8      1.56      0.00
    3    3    8      2.68      0.00
    4    3    8      2.26      0.00
    5    3    8      2.16      0.00
    6    3    8     -1.62      0.00
    7    3    8     -0.59      0.00
    8    3    8     -0.01      0.00
    9    3    8     -0.09      0.00
   10    3    8      0.27      0.00
   11    3    8      0.28      0.00
   12    3    8      0.19      0.00
   13    3    8      0.43      0.00
  -10    4    8      0.29      0.00
   -9    4    8      0.28      0.00
   -8    4    8      0.29      0.00
   -7    4    8     -0.28      0.00
   -6    4    8     -0.37      0.00
   -5    4    8      0.41      0.00
   -4    4    8     -0.39      0.00
   -3    4    8     -0.58      0.00
   -2    4    8      1.02      0.00
   -1    4    8      0.00      0.00
    0    4    8     -0.82      0.00
    1    4    8     -2.62      0.00
    2    4    8      1.48      0.00
    3    4    8      1.83      0.00
    4    4    8     -0.20      0.00
    5    4    8      1.56      0.00
    6    4    8     -0.06      0.00
    7    4    8      0.34      0.00
    8    4    8      1.29      0.00
    9    4    8      0.21      0.00
   10    4    8     -0.34      0.00
   11    4    8     -0.26      0.00
   12    4    8      0.76      0.00
   13    4    8      0.20      0.00
  -10    5    8     -0.89      0.00
   -9    5    8     -0.56      0.00
   -8    5    8      0.18      0.00
   -7    5    8      0.72      0.00
   -6    5    8     -0.03      0.00
   -5    5    8     -0.25      0.00
   -4    5    8      0.44      0.00
   -3    5    8     -0.42      0.00
   -2    5    8      0.66      0.00
   -1    5    8      1.14      0.00
    0    5    8     -0.20      0.00
    1    5    8     -0.70      0.00
    2    5    8      3.01      0.00
    3    5    8      4.22      0.00
    4    5    8     -0.76      0.00
    5    5    8     -0.96      0.00
    6    5    8     -0.59      0.00
    7    5    8     -0.20      0.00
    8    5    8      1.00      0.00
    9    5    8      0.37      0.00
   10    5    8      0.53      0.00
   11    5    8     -0.48      0.00
   12    5    8      0.27      0.00
   13    5    8      0.23      0.00
   14    5    8     -0.54      0.00
  -10    6    8     -0.37      0.00
   -9    6    8     -0.35      0.00
   -8    6    8     -0.33      0.00
   -7    6    8      0.88      0.00
   -6    6    8      0.77      0.00
   -5    6    8     -0.74      0.00
   -4    6    8      0.25      0.00
   -3    6    8      0.73      0.00
   -2    6    8      0.28      0.00
   -1    6    8      1.21      0.00
    0    6    8      0.94      0.00
    1    6    8     -0.23      0.00
    2    6    8      0.32      0.00
    3    6    8      3.19      0.00
    4    6    8      0.52      0.00
    5    6    8     -0.11      0.00
    6    6    8      0.25      0.00
    7    6    8     -0.47      0.00
    8    6    8      0.70      0.00
    9    6    8     -0.77      0.00
   10    6    8      0.35      0.00
   11    6    8      0.14      0.00
   12    6    8     -0.01      0.00
   13    6    8      0.83      0.00
   14    6    8     -0.62      0.00
   -9    7    8      0.05      0.00
   -8    7    8     -0.19      0.00
   -7    7    8      0.26      0.00
   -6    7    8      1.03      0.00
   -5    7    8      0.04      0.00
   -4    7    8      0.05      0.00
   -3    7    8      0.81      0.00
   -2    7    8     -0.19      0.00
   -1    7    8     -0.09      0.00
    0    7    8      1.78      0.00
    1    7    8      2.36      0.00
    2    7    8      0.72      0.00
    3    7    8      0.84      0.00
    4    7    8     -0.30      0.00
    5    7    8     -0.51      0.00
    6    7    8      0.67      0.00
    7    7    8     -0.47      0.00
    8    7    8      1.47      0.00
    9    7    8      0.11      0.00
   10    7    8      0.45      0.00
   11    7    8      0.82      0.00
   12    7    8      0.03      0.00
   13    7    8      0.83      0.00
   14    7    8      0.06      0.00
   -9    8    8      0.04      0.00
   -8    8    8      0.05      0.00
   -7    8    8     -0.34      0.00
   -6    8    8      0.52      0.00
   -5    8    8      0.43      0.00
   -4    8    8     -0.13      0.00
   -3    8    8      0.87      0.00
   -2    8    8     -0.06      0.00
   -1    8    8     -1.19      0.00
    0    8    8      0.45      0.00
    1    8    8      1.56      0.00
    2    8    8      1.13      0.00
    3    8    8     -0.38      0.00
    4    8    8     -0.72      0.00
    5    8    8     -0.15      0.00
    6    8    8      0.97      0.00
    7    8    8     -0.61      0.00
    8    8    8      0.62      0.00
    9    8    8      0.42      0.00
   10    8    8      0.08      0.00
   11    8    8      0.52      0.00
   12    8    8     -0.06      0.00
   13    8    8     -0.25      0.00
   14    8    8     -0.80      0.00
   -8    9    8     -0.10      0.00
   -7    9    8     -0.01      0.00
   -6    9    8      0.68      0.00
   -5    9    8      0.76      0.00
   -4    9    8     -0.61      0.00
   -3    9    8      0.08      0.00
   -2    9    8      0.53      0.00
   -1    9    8     -0.40      0.00
    0    9    8     -0.15      0.00
    1    9    8     -0.58      0.00
    2    9    8     -0.74      0.00
    3    9    8     -0.34      0.00
    4    9    8     -0.52      0.00
    5    9    8     -0.28      0.00
    6    9    8      1.15      0.00
    7    9    8      0.36      0.00
    8    9    8     -0.04      0.00
    9    9    8      0.79      0.00
   10    9    8      0.13      0.00
   11    9    8      0.38      0.00
   12    9    8      0.05      0.00
   13    9    8      0.11      0.00
   14    9    8     -0.69      0.00
   -8   10    8     -0.80      0.00
   -7   10    8     -0.36      0.00
   -6   10    8      0.91      0.00
   -5   10    8      0.80      0.00
   -4   10    8      0.11      0.00
   -3   10    8     -0.36      0.00
   -2   10    8     -0.08      0.00
   -1   10    8     -0.58      0.00
    0   10    8     -0.21      0.00
    1   10    8      0.32      0.00
    2   10    8     -0.73      0.00
    3   10    8      0.23      0.00
    4   10    8      0.77      0.00
    5   10    8      0.24      0.00
    6   10    8      0.45      0.00
    7   10    8     -0.21      0.00
    8   10    8     -1.54      0.00
    9   10    8      0.05      0.00
   10   10    8     -0.31      0.00
   11   10    8     -0.69      0.00
   12   10    8     -0.42      0.00
   13   10    8      0.44      0.00
   14   10    8      0.40      0.00
   -7   11    8     -0.59      0.00
   -6   11    8      0.36      0.00
   -5   11    8      0.37      0.00
   -4   11    8      0.91      0.00
   -3   11    8      0.17      0.00
   -2   11    8      0.65      0.00
   -1   11    8     -0.51      0.00
    0   11    8     -0.85      0.00
    1   11    8     -0.08      0.00
    2   11    8     -0.48      0.00
    3   11    8      0.40      0.00
    4   11    8      0.46      0.00
    5   11    8     -0.43      0.00
    6   11    8      0.65      0.00
    7   11    8      0.81      0.00
    8   11    8     -0.59      0.00
    9   11    8     -0.48      0.00
   10   11    8     -0.11      0.00
   11   11    8     -0.20      0.00
   12   11    8     -0.23      0.00
   13   11    8     -0.08      0.00
   14   11    8      1.04      0.00
   -6   12    8      0.35      0.00
   -5   12    8      0.18      0.00
   -4   12    8      0.72      0.00
   -3   12    8     -0.77      0.00
   -2   12    8      0.51      0.00
   -1   12    8      0.46      0.00
    0   12    8      0.50      0.00
    1   12    8      0.92      0.00
    2   12    8     -0.32      0.00
    3   12    8     -0.25      0.00
    4   12    8      0.34      0.00
    5   12    8     -1.25      0.00
    6   12    8     -0.83      0.00
    7   12    8      0.66      0.00
    8   12    8      0.96      0.00
    9   12    8      0.46      0.00
   10   12    8     -0.38      0.00
   11   12    8      0.71      0.00
   12   12    8      1.12      0.00
   13   12    8     -0.17      0.00
   -5   13    8      0.77      0.00
   -4   13    8      1.36      0.00
   -3   13    8     -0.16      0.00
   -2   13    8     -0.70      0.00
   -1   13    8     -0.86      0.00
    0   13    8     -1.22      0.00
    1   13    8     -0.18      0.00
    2   13    8     -0.25      0.00
    3   13    8      0.41      0.00
    4   13    8      1.08      0.00
    5   13    8      0.40      0.00
    6   13    8     -1.16      0.00
    7   13    8     -0.30      0.00
    8   13    8     -0.59      0.00
    9   13    8     -0.29      0.00
   10   13    8     -0.76      0.00
   11   13    8      0.23      0.00
   12   13    8      0.47      0.00
   13   13    8     -0.36      0.00
   -5   14    8      0.23      0.00
   -4   14    8      0.21      0.00
   -3   14    8      0.52      0.00
   -2   14    8     -0.03      0.00
   -1   14    8     -0.55      0.00
    0   14    8     -1.36      0.00
    1   14    8     -0.26      0.00
    2   14    8     -0.80      0.00
    3   14    8      0.29      0.00
    4   14    8      0.53      0.00
    5   14    8      0.75      0.00
    6   14    8     -0.38      0.00
    7   14    8      0.24      0.00
    8   14    8     -0.47      0.00
    9   14    8     -0.64      0.00
   10   14    8     -0.19      0.00
   11   14    8      0.23      0.00
   12   14    8     -0.59      0.00
   13   14    8     -0.52      0.00
   -4   15    8     -0.27      0.00
   -3   15    8     -0.04      0.00
   -2   15    8      0.03      0.00
   -1   15    8     -0.19      0.00
    0   15    8     -0.85      0.00
    1   15    8      0.30      0.00
    2   15    8      0.70      0.00
    3   15    8      0.31      0.00
    4   15    8      0.25      0.00
    5   15    8      0.12      0.00
    6   15    8     -0.19      0.00
    7   15    8     -0.10      0.00
    8   15    8     -0.05      0.00
    9   15    8     -0.25      0.00
   10   15    8      0.03      0.00
   11   15    8      0.50      0.00
   12   15    8     -0.98      0.00
   -3   16    8     -0.02      0.00
   -2   16    8      0.57      0.00
   -1   16    8      0.99      0.00
    0   16    8      1.24      0.00
    1   16    8     -0.39      0.00
    2   16    8      0.32      0.00
    3   16    8     -0.99      0.00
    4   16    8     -0.65      0.00
    5   16    8     -0.08      0.00
    6   16    8      0.12      0.00
    7   16    8     -0.36      0.00
    8   16    8     -0.45      0.00
    9   16    8      0.52      0.00
   10   16    8     -0.92      0.00
   11   16    8     -0.07      0.00
   12   16    8     -0.42      0.00
   -1   17    8     -0.07      0.00
    0   17    8      0.90      0.00
    1   17    8     -0.29      0.00
    2   17    8      0.71      0.00
    3   17    8     -0.93      0.00
    4   17    8     -1.32      0.00
    5   17    8      0.00      0.00
    6   17    8     -0.58      0.00
    7   17    8     -0.13      0.00
    8   17    8     -0.78      0.00
    9   17    8      1.75      0.00
   10   17    8      0.28      0.00
   11   17    8      0.16      0.00
    0   18    8     -0.24      0.00
    1   18    8     -1.00      0.00
    2   18    8      0.85      0.00
    3   18    8      0.80      0.00
    4   18    8     -1.56      0.00
    5   18    8     -0.15      0.00
    6   18    8     -0.68      0.00
    7   18    8      0.73      0.00
    8   18    8     -0.38      0.00
    9   18    8      0.87      0.00
   10   18    8      0.50      0.00
    3   19    8      1.31      0.00
    4   19    8     -0.69      0.00
    5   19    8     -1.30      0.00
    6   19    8     -1.38      0.00
    7   19    8      1.08      0.00
    8   19    8      0.94      0.00
   -6  -13    9     -0.57      0.00
   -5  -13    9     -0.11      0.00
   -4  -13    9      0.56      0.00
   -3  -13    9      0.07      0.00
   -2  -13    9     -1.40      0.00
   -1  -13    9      0.78      0.00
    0  -13    9      1.24      0.00
    1  -13    9     -0.12      0.00
   -7  -12    9      1.31      0.00
   -6  -12    9     -0.82      0.00
   -5  -12    9     -0.32      0.00
   -4  -12    9     -0.30      0.00
   -3  -12    9      0.91      0.00
   -2  -12    9      0.40      0.00
   -1  -12    9      0.83      0.00
    0  -12    9      0.98      0.00
    1  -12    9     -0.63      0.00
    2  -12    9      0.44      0.00
    3  -12    9     -0.29      0.00
   -8  -11    9     -0.14      0.00
   -7  -11    9      0.81      0.00
   -6  -11    9     -0.33      0.00
   -5  -11    9      0.59      0.00
   -4  -11    9     -0.07      0.00
   -3  -11    9      0.20      0.00
   -2  -11    9      0.18      0.00
   -1  -11    9      0.29      0.00
    0  -11    9      0.89      0.00
    1  -11    9     -1.03      0.00
    2  -11    9      0.26      0.00
    3  -11    9     -0.96      0.00
    4  -11    9     -1.11      0.00
   -9  -10    9      0.57      0.00
   -8  -10    9     -0.05      0.00
   -7  -10    9     -0.33      0.00
   -6  -10    9     -0.47      0.00
   -5  -10    9      0.74      0.00
   -4  -10    9     -0.05      0.00
   -3  -10    9      0.01      0.00
   -2  -10    9     -0.13      0.00
   -1  -10    9     -0.54      0.00
    0  -10    9     -0.45      0.00
    1  -10    9     -0.95      0.00
    2  -10    9      0.05      0.00
    3  -10    9     -2.06      0.00
    4  -10    9     -1.49      0.00
    5  -10    9     -0.12      0.00
    6  -10    9      0.69      0.00
   -9   -9    9      0.87      0.00
   -8   -9    9      0.56      0.00
   -7   -9    9      0.09      0.00
   -6   -9    9     -0.57      0.00
   -5   -9    9      0.00      0.00
   -4   -9    9     -0.23      0.00
   -3   -9    9     -0.29      0.00
   -2   -9    9     -0.46      0.00
   -1   -9    9      0.35      0.00
    0   -9    9     -0.37      0.00
    1   -9    9     -0.46      0.00
    2   -9    9      0.65      0.00
    3   -9    9     -1.69      0.00
    4   -9    9     -1.09      0.00
    5   -9    9     -0.57      0.00
    6   -9    9     -0.28      0.00
    7   -9    9     -0.06      0.00
  -10   -8    9      0.13      0.00
   -9   -8    9      0.35      0.00
   -8   -8    9     -0.59      0.00
   -7   -8    9      0.14      0.00
   -6   -8    9     -0.02      0.00
   -5   -8    9     -0.82      0.00
   -4   -8    9     -0.45      0.00
   -3   -8    9      0.10      0.00
   -2   -8    9     -0.44      0.00
   -1   -8    9      0.94      0.00
    0   -8    9      0.16      0.00
    1   -8    9     -1.10      0.00
    2   -8    9      0.48      0.00
    3   -8    9     -0.18      0.00
    4   -8    9     -0.47      0.00
    5   -8    9     -0.46      0.00
    6   -8    9     -1.06      0.00
    7   -8    9     -0.18      0.00
    8   -8    9     -0.52      0.00
  -10   -7    9      0.21      0.00
   -9   -7    9      0.44      0.00
   -8   -7    9     -0.71      0.00
   -7   -7    9      0.00      0.00
   -6   -7    9      0.38      0.00
   -5   -7    9     -0.59      0.00
   -4   -7    9     -0.61      0.00
   -3   -7    9      0.49      0.00
   -2   -7    9     -0.28      0.00
   -1   -7    9      0.51      0.00
    0   -7    9      1.18      0.00
    1   -7    9     -1.06      0.00
    2   -7    9     -1.02      0.00
    3   -7    9      0.24      0.00
    4   -7    9     -0.06      0.00
    5   -7    9     -0.93      0.00
    6   -7    9     -1.08      0.00
    7   -7    9     -0.06      0.00
    8   -7    9     -0.17      0.00
  -10   -6    9      0.14      0.00
   -9   -6    9      0.13      0.00
   -8   -6    9     -0.19      0.00
   -7   -6    9      0.58      0.00
   -6   -6    9      0.24      0.00
   -5   -6    9     -0.05      0.00
   -4   -6    9     -0.98      0.00
   -3   -6    9      0.30      0.00
   -2   -6    9      0.21      0.00
   -1   -6    9     -0.23      0.00
    0   -6    9      0.61      0.00
    1   -6    9     -0.32      0.00
    2   -6    9     -0.54      0.00
    3   -6    9      0.36      0.00
    4   -6    9      0.35      0.00
    5   -6    9     -1.10      0.00
    6   -6    9     -0.11      0.00
    7   -6    9      0.81      0.00
    8   -6    9     -0.09      0.00
    9   -6    9      0.93      0.00
  -11   -5    9      0.53      0.00
  -10   -5    9      0.72      0.00
   -9   -5    9      1.12      0.00
   -8   -5    9      0.11      0.00
   -7   -5    9      0.58      0.00
   -6   -5    9     -0.47      0.00
   -5   -5    9     -0.08      0.00
   -4   -5    9     -0.60      0.00
   -3   -5    9      0.66      0.00
   -2   -5    9      0.56      0.00
   -1   -5    9     -0.38      0.00
    0   -5    9     -0.11      0.00
    1   -5    9     -0.67      0.00
    2   -5    9     -0.73      0.00
    3   -5    9      0.27      0.00
    4   -5    9      0.36      0.00
    5   -5    9     -1.07      0.00
    6   -5    9     -0.56      0.00
    7   -5    9      1.22      0.00
    8   -5    9      0.56      0.00
    9   -5    9      0.25      0.00
   10   -5    9      0.29      0.00
  -11   -4    9      0.48      0.00
  -10   -4    9     -0.28      0.00
   -9   -4    9      0.93      0.00
   -8   -4    9      0.41      0.00
   -7   -4    9      0.20      0.00
   -6   -4    9     -0.96      0.00
   -5   -4    9     -1.21      0.00
   -4   -4    9     -1.06      0.00
   -3   -4    9      1.08      0.00
   -2   -4    9      1.22      0.00
   -1   -4    9     -0.20      0.00
    0   -4    9     -0.25      0.00
    1   -4    9      0.15      0.00
    2   -4    9     -0.34      0.00
    3   -4    9      0.41      0.00
    4   -4    9      0.44      0.00
    5   -4    9      0.05      0.00
    6   -4    9     -0.47      0.00
    7   -4    9     -0.36      0.00
    8   -4    9      0.26      0.00
    9   -4    9      0.42      0.00
   10   -4    9      0.25      0.00
  -11   -3    9      0.92      0.00
  -10   -3    9     -0.06      0.00
   -9   -3    9     -0.39      0.00
   -8   -3    9      0.01      0.00
   -7   -3    9      0.66      0.00
   -6   -3    9      0.62      0.00
   -5   -3    9     -0.51      0.00
   -4   -3    9     -1.15      0.00
   -3   -3    9      0.46      0.00
   -2   -3    9      0.95      0.00
   -1   -3    9     -0.52      0.00
    0   -3    9     -0.77      0.00
    1   -3    9     -0.03      0.00
    2   -3    9      0.29      0.00
    3   -3    9      1.01      0.00
    4   -3    9      0.49      0.00
    5   -3    9      0.35      0.00
    6   -3    9      0.68      0.00
    7   -3    9      0.00      0.00
    8   -3    9      0.00      0.00
    9   -3    9     -0.08      0.00
   10   -3    9      0.46      0.00
   11   -3    9      0.10      0.00
  -11   -2    9      0.20      0.00
  -10   -2    9      0.44      0.00
   -9   -2    9     -0.42      0.00
   -8   -2    9     -0.25      0.00
   -7   -2    9     -0.07      0.00
   -6   -2    9      0.44      0.00
   -5   -2    9      0.23      0.00
   -4   -2    9     -0.20      0.00
   -3   -2    9      0.09      0.00
   -2   -2    9      0.38      0.00
   -1   -2    9     -1.05      0.00
    0   -2    9     -0.67      0.00
    1   -2    9     -0.58      0.00
    2   -2    9     -0.60      0.00
    3   -2    9      1.06      0.00
    4   -2    9      0.80      0.00
    5   -2    9     -0.15      0.00
    6   -2    9      0.00      0.00
    7   -2    9     -0.55      0.00
    8   -2    9      0.12      0.00
    9   -2    9      0.17      0.00
   10   -2    9      0.24      0.00
   11   -2    9     -0.04      0.00
  -11   -1    9     -0.13      0.00
  -10   -1    9      0.51      0.00
   -9   -1    9     -0.40      0.00
   -8   -1    9      0.56      0.00
   -7   -1    9     -0.12      0.00
   -6   -1    9     -0.86      0.00
   -5   -1    9     -0.62      0.00
   -4   -1    9     -0.06      0.00
   -3   -1    9     -0.29      0.00
   -2   -1    9     -0.45      0.00
   -1   -1    9     -1.51      0.00
    0   -1    9      0.22      0.00
    1   -1    9      1.42      0.00
    2   -1    9     -1.17      0.00
    3   -1    9     -0.37      0.00
    4   -1    9      0.81      0.00
    5   -1    9      0.54      0.00
    6   -1    9      0.51      0.00
    7   -1    9     -0.44      0.00
    8   -1    9     -0.37      0.00
    9   -1    9     -0.26      0.00
   10   -1    9     -0.25      0.00
   11   -1    9     -0.13      0.00
   12   -1    9      0.36      0.00
  -11    0    9     -0.01      0.00
  -10    0    9      1.39      0.00
   -9    0    9     -0.52      0.00
   -8    0    9      0.42      0.00
   -7    0    9      0.19      0.00
   -6    0    9     -0.50      0.00
   -5    0    9     -0.33      0.00
   -4    0    9      0.71      0.00
   -3    0    9      0.12      0.00
   -2    0    9     -0.95      0.00
   -1    0    9     -2.27      0.00
    0    0    9     -0.42      0.00
    1    0    9      3.37      0.00
    2    0    9      0.20      0.00
    3    0    9     -1.40      0.00
    4    0    9     -0.19      0.00
    5    0    9      0.08      0.00
    6    0    9      0.70      0.00
    7    0    9     -0.19      0.00
    8    0    9     -0.13      0.00
    9    0    9      0.25      0.00
   10    0    9     -0.76      0.00
   11    0    9     -0.39      0.00
   12    0    9     -0.24      0.00
  -11    1    9     -0.57      0.00
  -10    1    9      1.02      0.00
   -9    1    9     -0.66      0.00
   -8    1    9     -0.47      0.00
   -7    1    9     -0.18      0.00
   -6    1    9      0.27      0.00
   -5    1    9     -0.32      0.00
   -4    1    9      0.14      0.00
   -3    1    9      0.27      0.00
   -2    1    9      0.69      0.00
   -1    1    9     -0.58      0.00
    0    1    9     -1.86      0.00
    1    1    9      1.10      0.00
    2    1    9      0.41      0.00
    3    1    9     -0.87      0.00
    4    1    9      1.10      0.00
    5    1    9      0.61      0.00
    6    1    9      1.18      0.00
    7    1    9     -0.21      0.00
    8    1    9     -1.41      0.00
    9    1    9      0.44      0.00
   10    1    9     -0.01      0.00
   11    1    9     -0.24      0.00
   12    1    9     -0.03      0.00
   13    1    9     -0.42      0.00
  -10    2    9      0.95      0.00
   -9    2    9      0.12      0.00
   -8    2    9     -0.27      0.00
   -7    2    9     -0.18      0.00
   -6    2    9      0.55      0.00
   -5    2    9      0.28      0.00
   -4    2    9     -0.10      0.00
   -3    2    9     -1.22      0.00
   -2    2    9      0.31      0.00
   -1    2    9      1.80      0.00
    0    2    9     -0.63      0.00
    1    2    9     -1.77      0.00
    2    2    9     -1.54      0.00
    3    2    9     -1.55      0.00
    4    2    9      1.42      0.00
    5    2    9      0.75      0.00
    6    2    9      1.30      0.00
    7    2    9      0.91      0.00
    8    2    9     -1.43      0.00
    9    2    9     -0.20      0.00
   10    2    9      0.28      0.00
   11    2    9     -0.26      0.00
   12    2    9     -0.14      0.00
   13    2    9     -0.47      0.00
  -10    3    9     -0.24      0.00
   -9    3    9     -0.01      0.00
   -8    3    9      0.01      0.00
   -7    3    9      0.43      0.00
   -6    3    9      0.22      0.00
   -5    3    9     -0.26      0.00
   -4    3    9      0.31      0.00
   -3    3    9     -0.43      0.00
   -2    3    9     -0.56      0.00
   -1    3    9      0.97      0.00
    0    3    9     -0.47      0.00
    1    3    9     -2.23      0.00
    2    3    9     -0.90      0.00
    3    3    9     -0.32      0.00
    4    3    9      2.06      0.00
    5    3    9     -0.27      0.00
    6    3    9     -0.95      0.00
    7    3    9      0.44      0.00
    8    3    9     -0.51      0.00
    9    3    9      0.70      0.00
   10    3    9      0.61      0.00
   11    3    9      0.12      0.00
   12    3    9      0.16      0.00
   13    3    9      0.42      0.00
  -10    4    9     -0.18      0.00
   -9    4    9     -0.59      0.00
   -8    4    9     -0.52      0.00
   -7    4    9      0.08      0.00
   -6    4    9      0.53      0.00
   -5    4    9      0.05      0.00
   -4    4    9     -0.40      0.00
   -3    4    9     -0.34      0.00
   -2    4    9     -0.32      0.00
   -1    4    9      0.54      0.00
    0    4    9     -0.10      0.00
    1    4    9     -1.44      0.00
    2    4    9      0.28      0.00
    3    4    9      0.24      0.00
    4    4    9      3.12      0.00
    5    4    9      1.10      0.00
    6    4    9     -1.43      0.00
    7    4    9      0.15      0.00
    8    4    9     -0.47      0.00
    9    4    9      0.73      0.00
   10    4    9      0.40      0.00
   11    4    9      0.38      0.00
   12    4    9      0.11      0.00
   13    4    9      0.17      0.00
  -10    5    9      0.01      0.00
   -9    5    9     -0.46      0.00
   -8    5    9     -0.10      0.00
   -7    5    9      0.09      0.00
   -6    5    9      0.29      0.00
   -5    5    9      0.69      0.00
   -4    5    9      0.20      0.00
   -3    5    9     -0.44      0.00
   -2    5    9      0.40      0.00
   -1    5    9      0.27      0.00
    0    5    9     -0.68      0.00
    1    5    9     -0.19      0.00
    2    5    9      2.25      0.00
    3    5    9     -0.38      0.00
    4    5    9      0.56      0.00
    5    5    9      0.95      0.00
    6    5    9     -0.37      0.00
    7    5    9      1.35      0.00
    8    5    9      0.50      0.00
    9    5    9      1.19      0.00
   10    5    9     -0.34      0.00
   11    5    9     -0.39      0.00
   12    5    9      0.68      0.00
   13    5    9     -0.41      0.00
   -9    6    9     -0.88      0.00
   -8    6    9     -0.49      0.00
   -7    6    9      0.41      0.00
   -6    6    9     -0.14      0.00
   -5    6    9     -0.35      0.00
   -4    6    9      0.53      0.00
   -3    6    9      0.01      0.00
   -2    6    9      1.31      0.00
   -1    6    9      1.93      0.00
    0    6    9     -0.52      0.00
    1    6    9     -0.93      0.00
    2    6    9      2.47      0.00
    3    6    9      1.04      0.00
    4    6    9     -0.49      0.00
    5    6    9     -0.05      0.00
    6    6    9     -0.72      0.00
    7    6    9      1.03      0.00
    8    6    9     -0.24      0.00
    9    6    9      0.90      0.00
   10    6    9      0.53      0.00
   11    6    9     -0.98      0.00
   12    6    9      0.52      0.00
   13    6    9     -0.11      0.00
   14    6    9     -0.46      0.00
   -9    7    9     -0.05      0.00
   -8    7    9     -0.30      0.00
   -7    7    9      0.87      0.00
   -6    7    9      0.16      0.00
   -5    7    9     -0.98      0.00
   -4    7    9     -0.02      0.00
   -3    7    9     -0.04      0.00
   -2    7    9      0.57      0.00
   -1    7    9      1.73      0.00
    0    7    9      0.70      0.00
    1    7    9     -0.24      0.00
    2    7    9      1.24      0.00
    3    7    9      1.84      0.00
    4    7    9      0.28      0.00
    5    7    9      0.70      0.00
    6    7    9     -0.04      0.00
    7    7    9      0.73      0.00
    8    7    9     -0.04      0.00
    9    7    9     -0.21      0.00
   10    7    9      1.00      0.00
   11    7    9     -0.19      0.00
   12    7    9      0.20      0.00
   13    7    9      1.20      0.00
   14    7    9     -0.01      0.00
   -8    8    9     -0.49      0.00
   -7    8    9      0.46      0.00
   -6    8    9      0.50      0.00
   -5    8    9     -0.43      0.00
   -4    8    9      0.17      0.00
   -3    8    9     -0.11      0.00
   -2    8    9     -0.74      0.00
   -1    8    9      0.20      0.00
    0    8    9      1.16      0.00
    1    8    9      1.01      0.00
    2    8    9      0.74      0.00
    3    8    9      0.60      0.00
    4    8    9      0.12      0.00
    5    8    9      0.54      0.00
    6    8    9      0.13      0.00
    7    8    9     -0.17      0.00
    8    8    9      0.68      0.00
    9    8    9      0.11      0.00
   10    8    9      1.37      0.00
   11    8    9      0.89      0.00
   12    8    9     -0.08      0.00
   13    8    9      0.96      0.00
   14    8    9      0.76      0.00
   -8    9    9     -0.20      0.00
   -7    9    9     -0.08      0.00
   -6    9    9      0.44      0.00
   -5    9    9     -0.01      0.00
   -4    9    9      0.07      0.00
   -3    9    9      0.83      0.00
   -2    9    9     -0.28      0.00
   -1    9    9     -1.00      0.00
    0    9    9      0.24      0.00
    1    9    9     -0.11      0.00
    2    9    9      0.65      0.00
    3    9    9     -0.18      0.00
    4    9    9     -0.74      0.00
    5    9    9      0.27      0.00
    6    9    9      0.78      0.00
    7    9    9     -0.24      0.00
    8    9    9      0.48      0.00
    9    9    9     -0.10      0.00
   10    9    9      0.79      0.00
   11    9    9      0.56      0.00
   12    9    9     -0.58      0.00
   13    9    9     -0.26      0.00
   14    9    9     -0.08      0.00
   -7   10    9      0.16      0.00
   -6   10    9      0.56      0.00
   -5   10    9      0.02      0.00
   -4   10    9     -0.73      0.00
   -3   10    9      0.37      0.00
   -2   10    9      0.65      0.00
   -1   10    9      0.09      0.00
    0   10    9      0.83      0.00
    1   10    9     -0.87      0.00
    2   10    9     -0.48      0.00
    3   10    9      0.18      0.00
    4   10    9     -0.30      0.00
    5   10    9      0.15      0.00
    6   10    9      0.66      0.00
    7   10    9      0.16      0.00
    8   10    9      0.65      0.00
    9   10    9      0.85      0.00
   10   10    9      0.46      0.00
   11   10    9      0.26      0.00
   12   10    9     -0.58      0.00
   13   10    9      0.00      0.00
   14   10    9     -0.20      0.00
   -7   11    9     -0.05      0.00
   -6   11    9      0.74      0.00
   -5   11    9      0.16      0.00
   -4   11    9     -0.45      0.00
   -3   11    9     -0.22      0.00
   -2   11    9     -0.59      0.00
   -1   11    9     -0.58      0.00
    0   11    9      0.70      0.00
    1   11    9      0.36      0.00
    2   11    9      0.58      0.00
    3   11    9      0.99      0.00
    4   11    9     -0.04      0.00
    5   11    9      0.53      0.00
    6   11    9      0.34      0.00
    7   11    9     -0.90      0.00
    8   11    9     -1.14      0.00
    9   11    9      0.61      0.00
   10   11    9      0.13      0.00
   11   11    9     -0.71      0.00
   12   11    9     -0.94      0.00
   13   11    9      0.39      0.00
   -6   12    9      0.43      0.00
   -5   12    9      0.04      0.00
   -4   12    9     -0.02      0.00
   -3   12    9      0.26      0.00
   -2   12    9      0.20      0.00
   -1   12    9     -0.43      0.00
    0   12    9      0.03      0.00
    1   12    9     -0.45      0.00
    2   12    9     -0.18      0.00
    3   12    9      0.65      0.00
    4   12    9     -0.28      0.00
    5   12    9      0.03      0.00
    6   12    9      1.11      0.00
    7   12    9      0.32      0.00
    8   12    9     -0.10      0.00
    9   12    9      0.27      0.00
   10   12    9      0.27      0.00
   11   12    9      0.02      0.00
   12   12    9     -0.27      0.00
   13   12    9      0.43      0.00
   -5   13    9      0.65      0.00
   -4   13    9      0.29      0.00
   -3   13    9     -1.09      0.00
   -2   13    9     -0.02      0.00
   -1   13    9      0.31      0.00
    0   13    9      0.62      0.00
    1   13    9     -0.13      0.00
    2   13    9     -0.23      0.00
    3   13    9     -0.23      0.00
    4   13    9     -0.21      0.00
    5   13    9     -0.72      0.00
    6   13    9      0.04      0.00
    7   13    9      0.27      0.00
    8   13    9      1.02      0.00
    9   13    9      0.70      0.00
   10   13    9     -0.29      0.00
   11   13    9      0.47      0.00
   12   13    9      0.56      0.00
   13   13    9      0.01      0.00
   -4   14    9      1.15      0.00
   -3   14    9     -0.61      0.00
   -2   14    9     -0.52      0.00
   -1   14    9     -0.42      0.00
    0   14    9     -0.34      0.00
    1   14    9     -0.97      0.00
    2   14    9     -0.99      0.00
    3   14    9      0.06      0.00
    4   14    9      0.23      0.00
    5   14    9     -0.16      0.00
    6   14    9     -0.81      0.00
    7   14    9     -0.36      0.00
    8   14    9     -0.27      0.00
    9   14    9      0.10      0.00
   10   14    9     -0.80      0.00
   11   14    9     -0.42      0.00
   12   14    9      0.18      0.00
   13   14    9     -0.59      0.00
   -3   15    9     -0.63      0.00
   -2   15    9     -0.64      0.00
   -1   15    9     -0.52      0.00
    0   15    9     -0.54      0.00
    1   15    9      0.86      0.00
    2   15    9     -0.81      0.00
    3   15    9      0.02      0.00
    4   15    9     -0.18      0.00
    5   15    9     -0.33      0.00
    6   15    9     -0.87      0.00
    7   15    9      0.20      0.00
    8   15    9     -0.47      0.00
    9   15    9     -0.22      0.00
   10   15    9      0.28      0.00
   11   15    9     -0.48      0.00
   12   15    9     -0.54      0.00
   -2   16    9     -0.60      0.00
   -1   16    9     -0.31      0.00
    0   16    9     -1.40      0.00
    1   16    9      0.85      0.00
    2   16    9      0.53      0.00
    3   16    9      0.36      0.00
    4   16    9      0.12      0.00
    5   16    9     -0.28      0.00
    6   16    9     -0.31      0.00
    7   16    9     -0.18      0.00
    8   16    9     -0.31      0.00
    9   16    9     -0.62      0.00
   10   16    9     -0.19      0.00
   11   16    9     -0.06      0.00
   12   16    9     -0.79      0.00
   -1   17    9      0.63      0.00
    0   17    9      0.20      0.00
    1   17    9      0.15      0.00
    2   17    9      0.29      0.00
    3   17    9     -0.64      0.00
    4   17    9      0.28      0.00
    5   17    9     -0.40      0.00
    6   17    9      0.25      0.00
    7   17    9     -0.94      0.00
    8   17    9     -0.84      0.00
    9   17    9      0.34      0.00
   10   17    9     -1.02      0.00
   11   17    9     -0.42      0.00
    1   18    9     -0.22      0.00
    2   18    9      1.28      0.00
    3   18    9     -0.68      0.00
    4   18    9      0.41      0.00
    5   18    9      0.30      0.00
    6   18    9      0.18      0.00
    7   18    9     -0.88      0.00
    8   18    9     -1.16      0.00
    9   18    9      1.45      0.00
   10   18    9      0.26      0.00
    3   19    9     -0.08      0.00
    4   19    9     -0.64      0.00
    5   19    9      0.32      0.00
    6   19    9      0.44      0.00
    7   19    9      0.30      0.00
    8   19    9     -0.59      0.00
   -3  -13   10     -0.91      0.00
   -2  -13   10      0.09      0.00
   -6  -12   10     -0.20      0.00
   -5  -12   10     -0.34      0.00
   -4  -12   10      0.47      0.00
   -3  -12   10     -0.22      0.00
   -2  -12   10     -0.47      0.00
   -1  -12   10      0.27      0.00
    0  -12   10     -0.02      0.00
    1  -12   10      0.61      0.00
    2  -12   10      0.17      0.00
   -7  -11   10      0.74      0.00
   -6  -11   10     -0.53      0.00
   -5  -11   10     -0.41      0.00
   -4  -11   10      0.07      0.00
   -3  -11   10      0.56      0.00
   -2  -11   10      0.55      0.00
   -1  -11   10      0.82      0.00
    0  -11   10     -0.36      0.00
    1  -11   10     -0.70      0.00
    2  -11   10     -0.03      0.00
    3  -11   10      0.76      0.00
   -8  -10   10      0.46      0.00
   -7  -10   10      0.53      0.00
   -6  -10   10     -0.17      0.00
   -5  -10   10      0.00      0.00
   -4  -10   10     -0.29      0.00
   -3  -10   10      0.32      0.00
   -2  -10   10     -0.16      0.00
   -1  -10   10     -0.35      0.00
    0  -10   10      0.01      0.00
    1  -10   10     -1.07      0.00
    2  -10   10     -0.46      0.00
    3  -10   10     -0.75      0.00
    4  -10   10     -0.19      0.00
    5  -10   10      0.62      0.00
   -9   -9   10      0.44      0.00
   -8   -9   10      0.50      0.00
   -7   -9   10     -0.58      0.00
   -6   -9   10     -0.16      0.00
   -5   -9   10      0.67      0.00
   -4   -9   10     -0.34      0.00
   -3   -9   10      0.02      0.00
   -2   -9   10     -0.33      0.00
   -1   -9   10     -1.17      0.00
    0   -9   10      0.01      0.00
    1   -9   10     -0.65      0.00
    2   -9   10     -0.76      0.00
    3   -9   10     -1.66      0.00
    4   -9   10     -0.93      0.00
    5   -9   10      0.11      0.00
    6   -9   10      1.30      0.00
   -9   -8   10      0.22      0.00
   -8   -8   10      0.32      0.00
   -7   -8   10     -0.82      0.00
   -6   -8   10     -0.67      0.00
   -5   -8   10     -0.07      0.00
   -4   -8   10     -0.33      0.00
   -3   -8   10     -0.27      0.00
   -2   -8   10     -0.12      0.00
   -1   -8   10     -0.47      0.00
    0   -8   10     -0.36      0.00
    1   -8   10      0.52      0.00
    2   -8   10      0.08      0.00
    3   -8   10     -1.65      0.00
    4   -8   10     -0.53      0.00
    5   -8   10     -0.59      0.00
    6   -8   10      0.25      0.00
    7   -8   10     -0.41      0.00
  -10   -7   10      0.53      0.00
   -9   -7   10      0.08      0.00
   -8   -7   10     -0.88      0.00
   -7   -7   10     -0.92      0.00
   -6   -7   10     -0.04      0.00
   -5   -7   10     -0.60      0.00
   -4   -7   10      0.10      0.00
   -3   -7   10     -0.10      0.00
   -2   -7   10     -0.21      0.00
   -1   -7   10      1.22      0.00
    0   -7   10     -0.27      0.00
    1   -7   10     -0.87      0.00
    2   -7   10      0.10      0.00
    3   -7   10     -0.54      0.00
    4   -7   10      0.02      0.00
    5   -7   10     -0.23      0.00
    6   -7   10     -0.44      0.00
    7   -7   10     -0.48      0.00
    8   -7   10     -0.90      0.00
  -10   -6   10     -0.05      0.00
   -9   -6   10      0.08      0.00
   -8   -6   10     -0.92      0.00
   -7   -6   10     -1.14      0.00
   -6   -6   10      0.49      0.00
   -5   -6   10     -0.63      0.00
   -4   -6   10      0.06      0.00
   -3   -6   10      0.55      0.00
   -2   -6   10     -0.13      0.00
   -1   -6   10      1.17      0.00
    0   -6   10      0.72      0.00
    1   -6   10     -0.87      0.00
    2   -6   10     -0.52      0.00
    3   -6   10      0.00      0.00
    4   -6   10      0.16      0.00
    5   -6   10     -0.43      0.00
    6   -6   10     -0.26      0.00
    7   -6   10     -0.57      0.00
    8   -6   10     -0.68      0.00
    9   -6   10      0.09      0.00
  -10   -5   10      0.34      0.00
   -9   -5   10      0.05      0.00
   -8   -5   10     -0.36      0.00
   -7   -5   10     -0.70      0.00
   -6   -5   10      0.29      0.00
   -5   -5   10     -0.09      0.00
   -4   -5   10     -0.33      0.00
   -3   -5   10     -0.02      0.00
   -2   -5   10     -0.32      0.00
   -1   -5   10      0.46      0.00
    0   -5   10      0.32      0.00
    1   -5   10     -0.65      0.00
    2   -5   10      0.01      0.00
    3   -5   10      0.31      0.00
    4   -5   10      0.49      0.00
    5   -5   10     -0.56      0.00
    6   -5   10      0.82      0.00
    7   -5   10      0.65      0.00
    8   -5   10     -0.66      0.00
    9   -5   10      0.59      0.00
  -10   -4   10      0.71      0.00
   -9   -4   10      1.18      0.00
   -8   -4   10     -0.25      0.00
   -7   -4   10     -0.61      0.00
   -6   -4   10     -0.44      0.00
   -5   -4   10      0.09      0.00
   -4   -4   10      0.06      0.00
   -3   -4   10      0.66      0.00
   -2   -4   10     -0.13      0.00
   -1   -4   10      0.16      0.00
    0   -4   10      0.24      0.00
    1   -4   10     -0.65      0.00
    2   -4   10     -0.04      0.00
    3   -4   10      0.40      0.00
    4   -4   10      0.38      0.00
    5   -4   10     -0.63      0.00
    6   -4   10      0.06      0.00
    7   -4   10      1.02      0.00
    8   -4   10     -0.04      0.00
    9   -4   10      0.09      0.00
   10   -4   10      0.20      0.00
  -10   -3   10     -0.28      0.00
   -9   -3   10      1.36      0.00
   -8   -3   10      0.18      0.00
   -7   -3   10     -0.35      0.00
   -6   -3   10     -0.82      0.00
   -5   -3   10     -0.75      0.00
   -4   -3   10     -0.81      0.00
   -3   -3   10      0.72      0.00
   -2   -3   10      0.30      0.00
   -1   -3   10      0.32      0.00
    0   -3   10      0.47      0.00
    1   -3   10      0.23      0.00
    2   -3   10      0.14      0.00
    3   -3   10      0.61      0.00
    4   -3   10      0.46      0.00
    5   -3   10      0.34      0.00
    6   -3   10     -0.17      0.00
    7   -3   10     -0.03      0.00
    8   -3   10     -0.50      0.00
    9   -3   10      0.13      0.00
   10   -3   10      0.17      0.00
   11   -3   10     -0.52      0.00
  -10   -2   10     -0.34      0.00
   -9   -2   10      0.62      0.00
   -8   -2   10      0.14      0.00
   -7   -2   10      0.39      0.00
   -6   -2   10      0.34      0.00
   -5   -2   10     -0.39      0.00
   -4   -2   10     -0.86      0.00
   -3   -2   10      0.36      0.00
   -2   -2   10      0.35      0.00
   -1   -2   10      0.15      0.00
    0   -2   10     -0.42      0.00
    1   -2   10     -0.37      0.00
    2   -2   10      0.83      0.00
    3   -2   10      1.30      0.00
    4   -2   10      0.06      0.00
    5   -2   10      0.42      0.00
    6   -2   10      0.25      0.00
    7   -2   10      0.16      0.00
    8   -2   10     -0.09      0.00
    9   -2   10      0.42      0.00
   10   -2   10      0.73      0.00
   11   -2   10     -0.45      0.00
  -10   -1   10     -0.49      0.00
   -9   -1   10      0.46      0.00
   -8   -1   10      0.19      0.00
   -7   -1   10     -0.18      0.00
   -6   -1   10     -0.03      0.00
   -5   -1   10     -0.50      0.00
   -4   -1   10     -0.41      0.00
   -3   -1   10      0.15      0.00
   -2   -1   10     -0.03      0.00
   -1   -1   10      0.15      0.00
    0   -1   10     -0.18      0.00
    1   -1   10     -1.57      0.00
    2   -1   10      0.10      0.00
    3   -1   10      1.88      0.00
    4   -1   10      0.32      0.00
    5   -1   10     -0.05      0.00
    6   -1   10     -0.22      0.00
    7   -1   10     -0.23      0.00
    8   -1   10      0.02      0.00
    9   -1   10      0.59      0.00
   10   -1   10      1.60      0.00
   11   -1   10     -0.30      0.00
   12   -1   10      0.15      0.00
  -10    0   10     -0.48      0.00
   -9    0   10     -0.18      0.00
   -8    0   10      0.59      0.00
   -7    0   10     -0.34      0.00
   -6    0   10     -0.67      0.00
   -5    0   10     -0.07      0.00
   -4    0   10      0.17      0.00
   -3    0   10     -0.23      0.00
   -2    0   10     -1.19      0.00
   -1    0   10     -0.61      0.00
    0    0   10      1.12      0.00
    1    0   10     -0.18      0.00
    2    0   10     -0.69      0.00
    3    0   10      0.86      0.00
    4    0   10      0.03      0.00
    5    0   10      0.46      0.00
    6    0   10     -0.10      0.00
    7    0   10     -0.11      0.00
    8    0   10      0.49      0.00
    9    0   10     -0.30      0.00
   10    0   10      0.59      0.00
   11    0   10     -0.42      0.00
   12    0   10      0.02      0.00
  -10    1   10      0.44      0.00
   -9    1   10     -0.55      0.00
   -8    1   10      0.34      0.00
   -7    1   10     -0.08      0.00
   -6    1   10     -0.89      0.00
   -5    1   10      0.13      0.00
   -4    1   10      1.23      0.00
   -3    1   10      0.31      0.00
   -2    1   10     -1.57      0.00
   -1    1   10     -1.60      0.00
    0    1   10      1.35      0.00
    1    1   10      1.90      0.00
    2    1   10     -0.53      0.00
    3    1   10      0.03      0.00
    4    1   10     -0.59      0.00
    5    1   10      0.33      0.00
    6    1   10      0.08      0.00
    7    1   10     -0.54      0.00
    8    1   10      0.70      0.00
    9    1   10      0.15      0.00
   10    1   10     -0.32      0.00
   11    1   10     -0.95      0.00
   12    1   10     -0.43      0.00
  -10    2   10      0.44      0.00
   -9    2   10     -0.87      0.00
   -8    2   10     -0.15      0.00
   -7    2   10      0.09      0.00
   -6    2   10      0.25      0.00
   -5    2   10     -0.10      0.00
   -4    2   10      0.43      0.00
   -3    2   10      0.12      0.00
   -2    2   10     -0.28      0.00
   -1    2   10     -0.59      0.00
    0    2   10      0.70      0.00
    1    2   10      1.43      0.00
    2    2   10     -0.91      0.00
    3    2   10     -0.65      0.00
    4    2   10      0.26      0.00
    5    2   10      1.11      0.00
    6    2   10      0.71      0.00
    7    2   10     -0.93      0.00
    8    2   10     -0.65      0.00
    9    2   10      0.16      0.00
   10    2   10      0.06      0.00
   11    2   10     -0.80      0.00
   12    2   10     -0.35      0.00
   13    2   10     -0.17      0.00
  -10    3   10      0.71      0.00
   -9    3   10     -0.18      0.00
   -8    3   10      0.39      0.00
   -7    3   10      0.39      0.00
   -6    3   10      0.69      0.00
   -5    3   10      0.33      0.00
   -4    3   10      0.60      0.00
   -3    3   10     -0.36      0.00
   -2    3   10     -0.28      0.00
   -1    3   10      0.05      0.00
    0    3   10      0.33      0.00
    1    3   10     -0.27      0.00
    2    3   10     -1.39      0.00
    3    3   10     -0.65      0.00
    4    3   10      0.12      0.00
    5    3   10      0.66      0.00
    6    3   10      1.23      0.00
    7    3   10     -0.13      0.00
    8    3   10     -0.82      0.00
    9    3   10     -0.17      0.00
   10    3   10      0.25      0.00
   11    3   10     -0.12      0.00
   12    3   10      0.18      0.00
   13    3   10     -0.43      0.00
   -9    4   10     -0.62      0.00
   -8    4   10     -0.13      0.00
   -7    4   10      0.53      0.00
   -6    4   10      0.48      0.00
   -5    4   10     -0.39      0.00
   -4    4   10      0.26      0.00
   -3    4   10      0.26      0.00
   -2    4   10      0.05      0.00
   -1    4   10      0.45      0.00
    0    4   10      0.51      0.00
    1    4   10     -1.03      0.00
    2    4   10     -1.89      0.00
    3    4   10      0.52      0.00
    4    4   10      1.44      0.00
    5    4   10     -0.46      0.00
    6    4   10     -0.13      0.00
    7    4   10     -0.03      0.00
    8    4   10      0.12      0.00
    9    4   10      0.91      0.00
   10    4   10      0.71      0.00
   11    4   10      0.33      0.00
   12    4   10      0.81      0.00
   13    4   10      0.67      0.00
   -9    5   10     -0.36      0.00
   -8    5   10     -0.49      0.00
   -7    5   10      0.05      0.00
   -6    5   10      0.74      0.00
   -5    5   10      0.17      0.00
   -4    5   10     -0.44      0.00
   -3    5   10     -0.16      0.00
   -2    5   10     -0.30      0.00
   -1    5   10      0.22      0.00
    0    5   10      1.64      0.00
    1    5   10      1.57      0.00
    2    5   10     -0.56      0.00
    3    5   10     -0.08      0.00
    4    5   10      1.97      0.00
    5    5   10      0.36      0.00
    6    5   10     -0.10      0.00
    7    5   10      0.08      0.00
    8    5   10      0.22      0.00
    9    5   10      0.78      0.00
   10    5   10      0.29      0.00
   11    5   10      0.54      0.00
   12    5   10      0.21      0.00
   13    5   10      0.19      0.00
   -9    6   10     -0.51      0.00
   -8    6   10     -0.37      0.00
   -7    6   10     -0.13      0.00
   -6    6   10      0.48      0.00
   -5    6   10      0.69      0.00
   -4    6   10      0.15      0.00
   -3    6   10      0.08      0.00
   -2    6   10      0.29      0.00
   -1    6   10     -0.26      0.00
    0    6   10     -0.37      0.00
    1    6   10      1.21      0.00
    2    6   10      0.93      0.00
    3    6   10     -0.69      0.00
    4    6   10      0.45      0.00
    5    6   10      0.25      0.00
    6    6   10      0.66      0.00
    7    6   10      0.96      0.00
    8    6   10      0.29      0.00
    9    6   10      1.01      0.00
   10    6   10     -0.73      0.00
   11    6   10     -0.31      0.00
   12    6   10      0.41      0.00
   13    6   10     -0.54      0.00
   -8    7   10     -0.26      0.00
   -7    7   10     -0.23      0.00
   -6    7   10     -0.49      0.00
   -5    7   10     -0.35      0.00
   -4    7   10     -0.05      0.00
   -3    7   10      0.17      0.00
   -2    7   10      0.92      0.00
   -1    7   10      0.73      0.00
    0    7   10     -0.60      0.00
    1    7   10      0.01      0.00
    2    7   10      1.13      0.00
    3    7   10      0.14      0.00
    4    7   10     -0.06      0.00
    5    7   10     -0.14      0.00
    6    7   10      0.23      0.00
    7    7   10      1.04      0.00
    8    7   10     -0.90      0.00
    9    7   10      0.54      0.00
   10    7   10     -0.14      0.00
   11    7   10     -0.91      0.00
   12    7   10      0.62      0.00
   13    7   10     -0.05      0.00
   14    7   10     -0.15      0.00
   -8    8   10      0.36      0.00
   -7    8   10      0.68      0.00
   -6    8   10     -0.70      0.00
   -5    8   10     -0.77      0.00
   -4    8   10     -0.34      0.00
   -3    8   10     -0.64      0.00
   -2    8   10      0.21      0.00
   -1    8   10      0.91      0.00
    0    8   10     -0.03      0.00
    1    8   10      0.29      0.00
    2    8   10      1.03      0.00
    3    8   10      1.48      0.00
    4    8   10      1.18      0.00
    5    8   10      0.45      0.00
    6    8   10     -0.10      0.00
    7    8   10      1.16      0.00
    8    8   10     -0.35      0.00
    9    8   10      0.12      0.00
   10    8   10      0.88      0.00
   11    8   10     -0.18      0.00
   12    8   10      0.57      0.00
   13    8   10      1.39      0.00
   14    8   10      0.48      0.00
   -7    9   10      0.70      0.00
   -6    9   10     -0.23      0.00
   -5    9   10     -0.27      0.00
   -4    9   10      0.28      0.00
   -3    9   10     -0.53      0.00
   -2    9   10     -1.22      0.00
   -1    9   10      0.06      0.00
    0    9   10      0.30      0.00
    1    9   10      0.75      0.00
    2    9   10      0.85      0.00
    3    9   10      0.33      0.00
    4    9   10      0.63      0.00
    5    9   10      0.06      0.00
    6    9   10     -0.78      0.00
    7    9   10      0.09      0.00
    8    9   10      0.19      0.00
    9    9   10      0.01      0.00
   10    9   10      1.65      0.00
   11    9   10      0.60      0.00
   12    9   10      0.27      0.00
   13    9   10      1.05      0.00
   14    9   10      0.83      0.00
   -7   10   10      0.33      0.00
   -6   10   10     -0.12      0.00
   -5   10   10      0.12      0.00
   -4   10   10      0.43      0.00
   -3   10   10      1.20      0.00
   -2   10   10      0.33      0.00
   -1   10   10      0.01      0.00
    0   10   10     -0.03      0.00
    1   10   10     -0.61      0.00
    2   10   10      0.51      0.00
    3   10   10     -0.06      0.00
    4   10   10      0.26      0.00
    5   10   10     -0.05      0.00
    6   10   10     -0.04      0.00
    7   10   10      0.41      0.00
    8   10   10      0.74      0.00
    9   10   10     -0.65      0.00
   10   10   10      0.95      0.00
   11   10   10     -0.06      0.00
   12   10   10     -0.31      0.00
   13   10   10     -0.17      0.00
   -6   11   10      0.11      0.00
   -5   11   10     -0.21      0.00
   -4   11   10     -0.77      0.00
   -3   11   10      0.37      0.00
   -2   11   10      1.24      0.00
   -1   11   10      1.19      0.00
    0   11   10      1.05      0.00
    1   11   10     -0.35      0.00
    2   11   10      0.58      0.00
    3   11   10     -0.02      0.00
    4   11   10      0.23      0.00
    5   11   10      0.06      0.00
    6   11   10     -0.05      0.00
    7   11   10      0.44      0.00
    8   11   10      1.24      0.00
    9   11   10      0.49      0.00
   10   11   10      0.53      0.00
   11   11   10     -0.70      0.00
   12   11   10     -0.17      0.00
   13   11   10      0.07      0.00
   -6   12   10      0.33      0.00
   -5   12   10     -0.23      0.00
   -4   12   10     -0.57      0.00
   -3   12   10     -0.25      0.00
   -2   12   10     -0.27      0.00
   -1   12   10     -0.05      0.00
    0   12   10      0.24      0.00
    1   12   10     -0.38      0.00
    2   12   10      1.04      0.00
    3   12   10      0.85      0.00
    4   12   10      0.10      0.00
    5   12   10      0.55      0.00
    6   12   10     -0.01      0.00
    7   12   10     -0.62      0.00
    8   12   10     -0.30      0.00
    9   12   10      0.60      0.00
   10   12   10      0.38      0.00
   11   12   10     -1.24      0.00
   12   12   10     -0.28      0.00
   13   12   10      0.41      0.00
   -5   13   10     -0.09      0.00
   -4   13   10     -0.63      0.00
   -3   13   10     -0.02      0.00
   -2   13   10      0.18      0.00
   -1   13   10      0.06      0.00
    0   13   10     -0.33      0.00
    1   13   10     -1.06      0.00
    2   13   10     -0.49      0.00
    3   13   10     -0.06      0.00
    4   13   10     -0.07      0.00
    5   13   10      0.61      0.00
    6   13   10      1.07      0.00
    7   13   10      0.16      0.00
    8   13   10      0.45      0.00
    9   13   10      0.53      0.00
   10   13   10      0.49      0.00
   11   13   10     -0.24      0.00
   12   13   10      0.32      0.00
   13   13   10      0.76      0.00
   -4   14   10     -0.05      0.00
   -3   14   10     -0.73      0.00
   -2   14   10     -0.23      0.00
   -1   14   10      0.33      0.00
    0   14   10     -0.11      0.00
    1   14   10     -1.46      0.00
    2   14   10     -0.84      0.00
    3   14   10     -0.80      0.00
    4   14   10      0.21      0.00
    5   14   10      0.21      0.00
    6   14   10      0.37      0.00
    7   14   10     -0.32      0.00
    8   14   10      0.87      0.00
    9   14   10      0.26      0.00
   10   14   10     -0.52      0.00
   11   14   10      0.11      0.00
   12   14   10      0.46      0.00
   -3   15   10     -0.40      0.00
   -2   15   10     -0.07      0.00
   -1   15   10      0.07      0.00
    0   15   10      0.85      0.00
    1   15   10     -1.12      0.00
    2   15   10     -1.70      0.00
    3   15   10     -0.90      0.00
    4   15   10      0.03      0.00
    5   15   10      0.19      0.00
    6   15   10     -0.41      0.00
    7   15   10     -0.88      0.00
    8   15   10     -0.35      0.00
    9   15   10     -0.10      0.00
   10   15   10     -0.47      0.00
   11   15   10     -0.64      0.00
   12   15   10      0.16      0.00
   -2   16   10     -0.48      0.00
   -1   16   10     -0.91      0.00
    0   16   10      0.73      0.00
    1   16   10      1.73      0.00
    2   16   10     -0.41      0.00
    3   16   10      0.25      0.00
    4   16   10     -0.54      0.00
    5   16   10     -0.21      0.00
    6   16   10     -0.48      0.00
    7   16   10      0.15      0.00
    8   16   10     -0.60      0.00
    9   16   10     -1.19      0.00
   10   16   10      0.89      0.00
   11   16   10      0.06      0.00
   -1   17   10     -0.67      0.00
    0   17   10     -0.43      0.00
    1   17   10      1.50      0.00
    2   17   10      0.10      0.00
    3   17   10      1.71      0.00
    4   17   10      0.22      0.00
    5   17   10     -0.30      0.00
    6   17   10     -0.16      0.00
    7   17   10     -0.02      0.00
    8   17   10     -0.25      0.00
    9   17   10     -1.80      0.00
   10   17   10     -0.18      0.00
   11   17   10      0.37      0.00
    1   18   10      1.36      0.00
    2   18   10      0.09      0.00
    3   18   10      1.10      0.00
    4   18   10      0.95      0.00
    5   18   10     -0.61      0.00
    6   18   10     -0.04      0.00
    7   18   10     -0.66      0.00
    8   18   10     -0.71      0.00
    9   18   10     -0.83      0.00
    4   19   10      1.35      0.00
    5   19   10     -0.01      0.00
    6   19   10     -0.13      0.00
    7   19   10     -0.58      0.00
   -4  -12   11      0.43      0.00
   -3  -12   11     -0.64      0.00
   -2  -12   11     -0.44      0.00
   -1  -12   11     -0.06      0.00
    0  -12   11      1.26      0.00
   -6  -11   11     -0.12      0.00
   -5  -11   11     -0.75      0.00
   -4  -11   11      0.65      0.00
   -3  -11   11     -0.20      0.00
   -2  -11   11     -0.47      0.00
   -1  -11   11     -0.77      0.00
    0  -11   11     -0.18      0.00
    1  -11   11      0.78      0.00
    2  -11   11      0.12      0.00
   -7  -10   11     -0.10      0.00
   -6  -10   11     -1.08      0.00
   -5  -10   11     -1.21      0.00
   -4  -10   11      0.72      0.00
   -3  -10   11      0.64      0.00
   -2  -10   11      0.32      0.00
   -1  -10   11     -0.05      0.00
    0  -10   11     -0.81      0.00
    1  -10   11     -0.22      0.00
    2  -10   11     -0.56      0.00
    3  -10   11      1.94      0.00
    4  -10   11      1.25      0.00
   -8   -9   11      0.32      0.00
   -7   -9   11     -0.01      0.00
   -6   -9   11     -0.65      0.00
   -5   -9   11     -1.02      0.00
   -4   -9   11      0.06      0.00
   -3   -9   11      0.57      0.00
   -2   -9   11     -0.39      0.00
   -1   -9   11     -0.46      0.00
    0   -9   11     -0.51      0.00
    1   -9   11     -1.01      0.00
    2   -9   11     -0.77      0.00
    3   -9   11      0.49      0.00
    4   -9   11      0.34      0.00
    5   -9   11      0.91      0.00
   -8   -8   11      0.32      0.00
   -7   -8   11     -0.98      0.00
   -6   -8   11     -0.57      0.00
   -5   -8   11     -0.20      0.00
   -4   -8   11     -0.16      0.00
   -3   -8   11      0.84      0.00
   -2   -8   11     -0.43      0.00
   -1   -8   11     -1.32      0.00
    0   -8   11      0.90      0.00
    1   -8   11     -0.02      0.00
    2   -8   11     -1.41      0.00
    3   -8   11     -0.41      0.00
    4   -8   11     -0.48      0.00
    5   -8   11      0.28      0.00
    6   -8   11      0.94      0.00
   -9   -7   11     -0.35      0.00
   -8   -7   11      0.09      0.00
   -7   -7   11     -1.17      0.00
   -6   -7   11     -0.94      0.00
   -5   -7   11     -0.46      0.00
   -4   -7   11     -0.77      0.00
   -3   -7   11     -0.19      0.00
   -2   -7   11      0.40      0.00
   -1   -7   11     -0.89      0.00
    0   -7   11     -0.06      0.00
    1   -7   11      1.09      0.00
    2   -7   11     -0.55      0.00
    3   -7   11     -0.56      0.00
    4   -7   11      0.03      0.00
    5   -7   11      0.08      0.00
    6   -7   11     -0.20      0.00
    7   -7   11     -0.99      0.00
   -9   -6   11     -0.26      0.00
   -8   -6   11     -0.33      0.00
   -7   -6   11     -0.43      0.00
   -6   -6   11      0.07      0.00
   -5   -6   11     -0.51      0.00
   -4   -6   11      0.23      0.00
   -3   -6   11     -0.23      0.00
   -2   -6   11      0.30      0.00
   -1   -6   11      0.99      0.00
    0   -6   11     -0.09      0.00
    1   -6   11     -0.04      0.00
    2   -6   11     -0.49      0.00
    3   -6   11     -0.13      0.00
    4   -6   11      0.14      0.00
    5   -6   11      0.60      0.00
    6   -6   11     -0.41      0.00
    7   -6   11     -1.10      0.00
    8   -6   11     -0.58      0.00
   -9   -5   11     -0.59      0.00
   -8   -5   11     -0.35      0.00
   -7   -5   11     -0.42      0.00
   -6   -5   11      0.74      0.00
   -5   -5   11     -0.90      0.00
   -4   -5   11      0.02      0.00
   -3   -5   11      0.10      0.00
   -2   -5   11      0.58      0.00
   -1   -5   11      1.32      0.00
    0   -5   11      0.32      0.00
    1   -5   11     -0.05      0.00
    2   -5   11     -0.25      0.00
    3   -5   11      0.39      0.00
    4   -5   11      0.28      0.00
    5   -5   11      0.20      0.00
    6   -5   11     -0.35      0.00
    7   -5   11     -1.32      0.00
    8   -5   11     -0.76      0.00
    9   -5   11      0.08      0.00
  -10   -4   11      0.30      0.00
   -9   -4   11     -0.54      0.00
   -8   -4   11      0.01      0.00
   -7   -4   11     -0.08      0.00
   -6   -4   11      0.96      0.00
   -5   -4   11     -0.50      0.00
   -4   -4   11     -0.14      0.00
   -3   -4   11     -0.64      0.00
   -2   -4   11      0.12      0.00
   -1   -4   11      0.81      0.00
    0   -4   11     -0.01      0.00
    1   -4   11      0.00      0.00
    2   -4   11      0.28      0.00
    3   -4   11      0.13      0.00
    4   -4   11      0.38      0.00
    5   -4   11      0.19      0.00
    6   -4   11      0.61      0.00
    7   -4   11     -0.20      0.00
    8   -4   11     -0.50      0.00
    9   -4   11      0.08      0.00
   10   -4   11      1.04      0.00
  -10   -3   11      0.71      0.00
   -9   -3   11      0.23      0.00
   -8   -3   11     -0.34      0.00
   -7   -3   11     -0.60      0.00
   -6   -3   11      0.29      0.00
   -5   -3   11     -0.25      0.00
   -4   -3   11      0.00      0.00
   -3   -3   11     -0.38      0.00
   -2   -3   11     -0.07      0.00
   -1   -3   11      0.68      0.00
    0   -3   11      0.09      0.00
    1   -3   11     -0.01      0.00
    2   -3   11      0.25      0.00
    3   -3   11      0.01      0.00
    4   -3   11      0.23      0.00
    5   -3   11     -0.22      0.00
    6   -3   11      0.07      0.00
    7   -3   11      0.00      0.00
    8   -3   11      0.03      0.00
    9   -3   11     -0.19      0.00
   10   -3   11      0.20      0.00
  -10   -2   11      0.28      0.00
   -9   -2   11      0.78      0.00
   -8   -2   11      0.03      0.00
   -7   -2   11     -0.13      0.00
   -6   -2   11     -0.04      0.00
   -5   -2   11     -0.41      0.00
   -4   -2   11     -0.75      0.00
   -3   -2   11     -0.21      0.00
   -2   -2   11     -0.05      0.00
   -1   -2   11      0.42      0.00
    0   -2   11      0.15      0.00
    1   -2   11      0.68      0.00
    2   -2   11      0.19      0.00
    3   -2   11     -0.35      0.00
    4   -2   11      0.27      0.00
    5   -2   11      0.37      0.00
    6   -2   11     -0.37      0.00
    7   -2   11     -0.48      0.00
    8   -2   11     -0.18      0.00
    9   -2   11      0.29      0.00
   10   -2   11     -0.02      0.00
   11   -2   11      0.08      0.00
  -10   -1   11      0.03      0.00
   -9   -1   11      0.86      0.00
   -8   -1   11     -0.02      0.00
   -7   -1   11      0.34      0.00
   -6   -1   11      0.16      0.00
   -5   -1   11     -0.27      0.00
   -4   -1   11     -0.58      0.00
   -3   -1   11     -0.01      0.00
   -2   -1   11      0.59      0.00
   -1   -1   11      0.57      0.00
    0   -1   11     -0.97      0.00
    1   -1   11      0.02      0.00
    2   -1   11      1.14      0.00
    3   -1   11      0.30      0.00
    4   -1   11     -0.31      0.00
    5   -1   11      0.36      0.00
    6   -1   11      0.09      0.00
    7   -1   11     -0.40      0.00
    8   -1   11     -0.30      0.00
    9   -1   11      1.42      0.00
   10   -1   11      0.85      0.00
   11   -1   11     -0.39      0.00
  -10    0   11     -0.85      0.00
   -9    0   11      0.68      0.00
   -8    0   11      0.09      0.00
   -7    0   11     -0.03      0.00
   -6    0   11      0.01      0.00
   -5    0   11     -0.74      0.00
   -4    0   11     -0.41      0.00
   -3    0   11      0.12      0.00
   -2    0   11      0.25      0.00
   -1    0   11      0.66      0.00
    0    0   11     -1.02      0.00
    1    0   11     -1.09      0.00
    2    0   11      1.23      0.00
    3    0   11      1.27      0.00
    4    0   11      0.07      0.00
    5    0   11     -0.21      0.00
    6    0   11      0.06      0.00
    7    0   11      0.38      0.00
    8    0   11     -0.27      0.00
    9    0   11      1.19      0.00
   10    0   11      2.00      0.00
   11    0   11     -0.10      0.00
   12    0   11     -0.39      0.00
  -10    1   11     -0.89      0.00
   -9    1   11     -0.05      0.00
   -8    1   11      0.07      0.00
   -7    1   11     -0.40      0.00
   -6    1   11     -0.12      0.00
   -5    1   11      0.43      0.00
   -4    1   11      0.25      0.00
   -3    1   11      0.03      0.00
   -2    1   11     -0.68      0.00
   -1    1   11      0.24      0.00
    0    1   11      0.30      0.00
    1    1   11     -0.48      0.00
    2    1   11      0.59      0.00
    3    1   11      0.68      0.00
    4    1   11     -0.22      0.00
    5    1   11      0.23      0.00
    6    1   11     -0.27      0.00
    7    1   11      0.42      0.00
    8    1   11      0.40      0.00
    9    1   11      0.18      0.00
   10    1   11      0.92      0.00
   11    1   11     -0.30      0.00
   12    1   11     -0.58      0.00
   -9    2   11     -0.43      0.00
   -8    2   11     -0.34      0.00
   -7    2   11     -0.11      0.00
   -6    2   11     -0.43      0.00
   -5    2   11      0.39      0.00
   -4    2   11      0.55      0.00
   -3    2   11      0.15      0.00
   -2    2   11     -1.13      0.00
   -1    2   11     -0.41      0.00
    0    2   11      1.23      0.00
    1    2   11      1.25      0.00
    2    2   11      0.14      0.00
    3    2   11      0.11      0.00
    4    2   11     -0.46      0.00
    5    2   11      0.40      0.00
    6    2   11     -0.42      0.00
    7    2   11      0.06      0.00
    8    2   11      0.60      0.00
    9    2   11     -0.03      0.00
   10    2   11      0.15      0.00
   11    2   11     -0.80      0.00
   12    2   11     -0.53      0.00
   -9    3   11     -0.36      0.00
   -8    3   11     -0.43      0.00
   -7    3   11      0.14      0.00
   -6    3   11      0.63      0.00
   -5    3   11      0.56      0.00
   -4    3   11      0.06      0.00
   -3    3   11     -0.04      0.00
   -2    3   11     -0.28      0.00
   -1    3   11      0.11      0.00
    0    3   11      0.95      0.00
    1    3   11      1.24      0.00
    2    3   11     -0.24      0.00
    3    3   11     -0.92      0.00
    4    3   11     -0.17      0.00
    5    3   11      1.44      0.00
    6    3   11     -0.21      0.00
    7    3   11     -0.74      0.00
    8    3   11     -0.08      0.00
    9    3   11     -0.23      0.00
   10    3   11      0.41      0.00
   11    3   11     -0.60      0.00
   12    3   11     -0.63      0.00
   13    3   11     -0.03      0.00
   -9    4   11      0.11      0.00
   -8    4   11      0.26      0.00
   -7    4   11      0.32      0.00
   -6    4   11      0.59      0.00
   -5    4   11      0.55      0.00
   -4    4   11      0.56      0.00
   -3    4   11      0.04      0.00
   -2    4   11     -0.08      0.00
   -1    4   11      0.24      0.00
    0    4   11      0.21      0.00
    1    4   11     -0.61      0.00
    2    4   11     -0.19      0.00
    3    4   11     -0.09      0.00
    4    4   11     -0.52      0.00
    5    4   11      0.76      0.00
    6    4   11      0.51      0.00
    7    4   11     -0.31      0.00
    8    4   11     -0.25      0.00
    9    4   11     -0.36      0.00
   10    4   11      0.47      0.00
   11    4   11      0.35      0.00
   12    4   11      0.32      0.00
   13    4   11     -0.30      0.00
   -9    5   11     -0.25      0.00
   -8    5   11     -0.38      0.00
   -7    5   11     -0.11      0.00
   -6    5   11      0.04      0.00
   -5    5   11     -0.44      0.00
   -4    5   11      0.07      0.00
   -3    5   11      0.35      0.00
   -2    5   11      0.19      0.00
   -1    5   11      0.83      0.00
    0    5   11      1.26      0.00
    1    5   11     -0.82      0.00
    2    5   11     -1.18      0.00
    3    5   11      0.77      0.00
    4    5   11      0.67      0.00
    5    5   11     -0.18      0.00
    6    5   11     -0.05      0.00
    7    5   11      0.23      0.00
    8    5   11      0.59      0.00
    9    5   11      0.56      0.00
   10    5   11      0.86      0.00
   11    5   11      0.56      0.00
   12    5   11      0.94      0.00
   13    5   11      0.59      0.00
   -8    6   11     -0.32      0.00
   -7    6   11     -0.31      0.00
   -6    6   11      0.12      0.00
   -5    6   11     -0.08      0.00
   -4    6   11     -0.35      0.00
   -3    6   11     -0.18      0.00
   -2    6   11     -0.40      0.00
   -1    6   11      0.55      0.00
    0    6   11      1.81      0.00
    1    6   11      1.39      0.00
    2    6   11     -0.32      0.00
    3    6   11      0.28      0.00
    4    6   11      0.84      0.00
    5    6   11     -0.03      0.00
    6    6   11     -0.12      0.00
    7    6   11      0.04      0.00
    8    6   11      0.46      0.00
    9    6   11      0.25      0.00
   10    6   11      0.36      0.00
   11    6   11      0.31      0.00
   12    6   11      0.13      0.00
   13    6   11     -0.20      0.00
   -8    7   11     -0.31      0.00
   -7    7   11     -0.55      0.00
   -6    7   11     -0.20      0.00
   -5    7   11     -0.14      0.00
   -4    7   11      0.03      0.00
   -3    7   11      0.03      0.00
   -2    7   11     -0.66      0.00
   -1    7   11     -0.12      0.00
    0    7   11      0.19      0.00
    1    7   11      0.75      0.00
    2    7   11     -0.16      0.00
    3    7   11     -0.27      0.00
    4    7   11      0.06      0.00
    5    7   11     -0.02      0.00
    6    7   11      0.41      0.00
    7    7   11      0.10      0.00
    8    7   11     -0.29      0.00
    9    7   11     -0.02      0.00
   10    7   11     -0.50      0.00
   11    7   11     -0.28      0.00
   12    7   11      0.18      0.00
   13    7   11     -0.91      0.00
   -8    8   11      0.42      0.00
   -7    8   11     -0.47      0.00
   -6    8   11     -1.00      0.00
   -5    8   11     -0.99      0.00
   -4    8   11     -0.34      0.00
   -3    8   11      0.16      0.00
   -2    8   11     -0.07      0.00
   -1    8   11     -0.08      0.00
    0    8   11     -0.30      0.00
    1    8   11      0.54      0.00
    2    8   11      0.27      0.00
    3    8   11      0.76      0.00
    4    8   11      0.31      0.00
    5    8   11     -0.21      0.00
    6    8   11      0.26      0.00
    7    8   11      0.41      0.00
    8    8   11     -1.12      0.00
    9    8   11     -0.13      0.00
   10    8   11     -0.42      0.00
   11    8   11     -0.38      0.00
   12    8   11      0.79      0.00
   13    8   11     -0.38      0.00
   -7    9   11      0.58      0.00
   -6    9   11     -0.99      0.00
   -5    9   11     -1.15      0.00
   -4    9   11     -0.37      0.00
   -3    9   11     -0.63      0.00
   -2    9   11     -0.18      0.00
   -1    9   11      0.55      0.00
    0    9   11      0.38      0.00
    1    9   11      1.45      0.00
    2    9   11      0.39      0.00
    3    9   11      1.06      0.00
    4    9   11      0.85      0.00
    5    9   11     -0.20      0.00
    6    9   11     -0.16      0.00
    7    9   11      0.87      0.00
    8    9   11     -0.51      0.00
    9    9   11      0.57      0.00
   10    9   11      0.52      0.00
   11    9   11      0.34      0.00
   12    9   11      1.02      0.00
   13    9   11      0.71      0.00
   -7   10   11      0.63      0.00
   -6   10   11     -0.14      0.00
   -5   10   11     -0.15      0.00
   -4   10   11      0.54      0.00
   -3   10   11      0.06      0.00
   -2   10   11     -0.75      0.00
   -1   10   11      0.04      0.00
    0   10   11      0.09      0.00
    1   10   11      1.37      0.00
    2   10   11      0.37      0.00
    3   10   11      0.31      0.00
    4   10   11      0.14      0.00
    5   10   11     -1.15      0.00
    6   10   11     -0.81      0.00
    7   10   11      0.39      0.00
    8   10   11     -0.32      0.00
    9   10   11      0.44      0.00
   10   10   11      1.16      0.00
   11   10   11      0.73      0.00
   12   10   11      0.60      0.00
   13   10   11      0.35      0.00
   -6   11   11     -0.05      0.00
   -5   11   11      0.33      0.00
   -4   11   11      0.51      0.00
   -3   11   11      1.76      0.00
   -2   11   11      1.29      0.00
   -1   11   11      0.76      0.00
    0   11   11     -0.01      0.00
    1   11   11      0.16      0.00
    2   11   11     -0.35      0.00
    3   11   11     -0.16      0.00
    4   11   11      0.54      0.00
    5   11   11     -0.85      0.00
    6   11   11      0.26      0.00
    7   11   11      1.06      0.00
    8   11   11      0.22      0.00
    9   11   11     -0.42      0.00
   10   11   11      0.58      0.00
   11   11   11     -0.15      0.00
   12   11   11      0.12      0.00
   13   11   11     -0.57      0.00
   -5   12   11      0.16      0.00
   -4   12   11     -0.46      0.00
   -3   12   11      0.50      0.00
   -2   12   11      1.15      0.00
   -1   12   11      0.83      0.00
    0   12   11      0.14      0.00
    1   12   11     -0.16      0.00
    2   12   11      0.46      0.00
    3   12   11      0.22      0.00
    4   12   11      0.62      0.00
    5   12   11     -0.77      0.00
    6   12   11      0.23      0.00
    7   12   11      0.90      0.00
    8   12   11      0.41      0.00
    9   12   11     -0.12      0.00
   10   12   11      0.44      0.00
   11   12   11     -0.87      0.00
   12   12   11      0.20      0.00
   13   12   11     -0.08      0.00
   -5   13   11     -0.30      0.00
   -4   13   11     -0.21      0.00
   -3   13   11      0.02      0.00
   -2   13   11     -0.19      0.00
   -1   13   11     -0.52      0.00
    0   13   11     -0.42      0.00
    1   13   11     -1.18      0.00
    2   13   11     -0.08      0.00
    3   13   11      0.65      0.00
    4   13   11      0.61      0.00
    5   13   11     -0.10      0.00
    6   13   11      0.20      0.00
    7   13   11      0.07      0.00
    8   13   11     -0.34      0.00
    9   13   11     -0.06      0.00
   10   13   11      0.51      0.00
   11   13   11     -0.95      0.00
   12   13   11     -0.07      0.00
   13   13   11      0.14      0.00
   -4   14   11     -0.12      0.00
   -3   14   11     -0.03      0.00
   -2   14   11     -0.33      0.00
   -1   14   11     -0.47      0.00
    0   14   11     -0.25      0.00
    1   14   11     -0.63      0.00
    2   14   11     -0.47      0.00
    3   14   11      0.21      0.00
    4   14   11      0.77      0.00
    5   14   11      0.48      0.00
    6   14   11      0.80      0.00
    7   14   11      0.21      0.00
    8   14   11      0.18      0.00
    9   14   11     -0.33      0.00
   10   14   11      0.52      0.00
   11   14   11      0.34      0.00
   12   14   11      0.04      0.00
   -3   15   11      0.21      0.00
   -2   15   11     -0.42      0.00
   -1   15   11      0.09      0.00
    0   15   11     -0.03      0.00
    1   15   11     -1.03      0.00
    2   15   11     -0.57      0.00
    3   15   11     -0.37      0.00
    4   15   11      1.30      0.00
    5   15   11      0.43      0.00
    6   15   11     -0.11      0.00
    7   15   11     -0.61      0.00
    8   15   11      0.67      0.00
    9   15   11     -0.51      0.00
   10   15   11     -0.96      0.00
   11   15   11      0.45      0.00
   12   15   11     -0.09      0.00
   -2   16   11     -0.06      0.00
   -1   16   11      0.39      0.00
    0   16   11      1.75      0.00
    1   16   11      0.30      0.00
    2   16   11     -0.30      0.00
    3   16   11     -1.29      0.00
    4   16   11      0.52      0.00
    5   16   11      0.54      0.00
    6   16   11     -0.76      0.00
    7   16   11     -0.90      0.00
    8   16   11     -0.31      0.00
    9   16   11     -0.22      0.00
   10   16   11      0.11      0.00
   11   16   11     -0.12      0.00
    0   17   11      1.05      0.00
    1   17   11      1.55      0.00
    2   17   11      1.50      0.00
    3   17   11      0.34      0.00
    4   17   11     -0.75      0.00
    5   17   11      0.07      0.00
    6   17   11     -0.62      0.00
    7   17   11      0.78      0.00
    8   17   11      0.12      0.00
    9   17   11     -1.57      0.00
   10   17   11      1.19      0.00
    2   18   11      0.61      0.00
    3   18   11      1.79      0.00
    4   18   11     -0.27      0.00
    5   18   11     -0.26      0.00
    6   18   11     -0.51      0.00
    7   18   11      0.51      0.00
    8   18   11      0.37      0.00
    9   18   11     -1.55      0.00
    5   19   11     -0.77      0.00
    6   19   11     -0.35      0.00
    7   19   11      0.36      0.00
   -4  -11   12      0.17      0.00
   -3  -11   12     -1.03      0.00
   -2  -11   12     -0.91      0.00
   -1  -11   12      0.13      0.00
    0  -11   12      0.90      0.00
   -6  -10   12     -0.19      0.00
   -5  -10   12     -0.17      0.00
   -4  -10   12      1.07      0.00
   -3  -10   12     -0.48      0.00
   -2  -10   12     -0.68      0.00
   -1  -10   12     -0.78      0.00
    0  -10   12      0.09      0.00
    1  -10   12     -0.21      0.00
    2  -10   12     -0.25      0.00
    3  -10   12      2.05      0.00
   -7   -9   12     -0.39      0.00
   -6   -9   12     -1.36      0.00
   -5   -9   12     -0.71      0.00
   -4   -9   12      1.40      0.00
   -3   -9   12      0.25      0.00
   -2   -9   12      0.52      0.00
   -1   -9   12     -0.55      0.00
    0   -9   12     -0.88      0.00
    1   -9   12     -0.01      0.00
    2   -9   12     -0.47      0.00
    3   -9   12      1.71      0.00
    4   -9   12      1.14      0.00
   -7   -8   12     -0.08      0.00
   -6   -8   12     -0.92      0.00
   -5   -8   12     -0.35      0.00
   -4   -8   12      1.46      0.00
   -3   -8   12      0.49      0.00
   -2   -8   12     -0.06      0.00
   -1   -8   12     -0.01      0.00
    0   -8   12     -0.38      0.00
    1   -8   12     -0.79      0.00
    2   -8   12     -0.49      0.00
    3   -8   12      0.66      0.00
    4   -8   12     -0.08      0.00
    5   -8   12      0.49      0.00
    6   -8   12      0.60      0.00
   -8   -7   12     -0.16      0.00
   -7   -7   12     -0.99      0.00
   -6   -7   12     -1.14      0.00
   -5   -7   12     -0.25      0.00
   -4   -7   12      0.40      0.00
   -3   -7   12      1.24      0.00
   -2   -7   12      0.14      0.00
   -1   -7   12     -0.78      0.00
    0   -7   12      1.39      0.00
    1   -7   12      0.73      0.00
    2   -7   12     -0.79      0.00
    3   -7   12     -0.06      0.00
    4   -7   12     -0.75      0.00
    5   -7   12     -0.82      0.00
    6   -7   12      0.29      0.00
    7   -7   12      0.47      0.00
   -8   -6   12      0.46      0.00
   -7   -6   12     -0.80      0.00
   -6   -6   12     -1.58      0.00
   -5   -6   12     -0.33      0.00
   -4   -6   12     -0.91      0.00
   -3   -6   12     -0.43      0.00
   -2   -6   12      0.46      0.00
   -1   -6   12     -0.56      0.00
    0   -6   12      0.50      0.00
    1   -6   12      0.99      0.00
    2   -6   12     -0.48      0.00
    3   -6   12      0.02      0.00
    4   -6   12     -0.05      0.00
    5   -6   12     -0.14      0.00
    6   -6   12     -0.57      0.00
    7   -6   12      0.08      0.00
    8   -6   12      0.28      0.00
   -9   -5   12      0.20      0.00
   -8   -5   12      0.83      0.00
   -7   -5   12      0.48      0.00
   -6   -5   12     -0.61      0.00
   -5   -5   12     -0.26      0.00
   -4   -5   12     -0.14      0.00
   -3   -5   12     -0.16      0.00
   -2   -5   12      0.42      0.00
   -1   -5   12      0.62      0.00
    0   -5   12      0.44      0.00
    1   -5   12      0.27      0.00
    2   -5   12     -0.74      0.00
    3   -5   12      0.25      0.00
    4   -5   12     -0.50      0.00
    5   -5   12     -0.03      0.00
    6   -5   12     -0.30      0.00
    7   -5   12      0.22      0.00
    8   -5   12     -0.07      0.00
   -9   -4   12     -0.32      0.00
   -8   -4   12      0.71      0.00
   -7   -4   12      0.53      0.00
   -6   -4   12     -0.36      0.00
   -5   -4   12     -0.87      0.00
   -4   -4   12     -0.38      0.00
   -3   -4   12      0.22      0.00
   -2   -4   12      0.67      0.00
   -1   -4   12      0.61      0.00
    0   -4   12      0.34      0.00
    1   -4   12      0.14      0.00
    2   -4   12     -0.58      0.00
    3   -4   12      0.56      0.00
    4   -4   12     -0.01      0.00
    5   -4   12     -0.41      0.00
    6   -4   12     -0.63      0.00
    7   -4   12      0.00      0.00
    8   -4   12     -0.71      0.00
    9   -4   12     -0.43      0.00
   -9   -3   12     -0.57      0.00
   -8   -3   12      0.41      0.00
   -7   -3   12      0.51      0.00
   -6   -3   12      0.35      0.00
   -5   -3   12     -0.61      0.00
   -4   -3   12     -0.31      0.00
   -3   -3   12     -0.24      0.00
   -2   -3   12      0.74      0.00
   -1   -3   12      0.15      0.00
    0   -3   12     -0.15      0.00
    1   -3   12      0.18      0.00
    2   -3   12     -0.06      0.00
    3   -3   12      0.06      0.00
    4   -3   12     -0.04      0.00
    5   -3   12     -0.05      0.00
    6   -3   12      0.07      0.00
    7   -3   12      0.44      0.00
    8   -3   12     -0.33      0.00
    9   -3   12     -0.83      0.00
   10   -3   12      0.19      0.00
   -9   -2   12     -0.53      0.00
   -8   -2   12     -0.30      0.00
   -7   -2   12     -0.65      0.00
   -6   -2   12     -0.09      0.00
   -5   -2   12     -0.67      0.00
   -4   -2   12     -0.25      0.00
   -3   -2   12     -0.69      0.00
   -2   -2   12     -0.04      0.00
   -1   -2   12     -0.06      0.00
    0   -2   12      0.09      0.00
    1   -2   12      0.20      0.00
    2   -2   12     -0.32      0.00
    3   -2   12      0.01      0.00
    4   -2   12      0.23      0.00
    5   -2   12     -0.25      0.00
    6   -2   12     -0.16      0.00
    7   -2   12      0.30      0.00
    8   -2   12      0.28      0.00
    9   -2   12     -1.15      0.00
   10   -2   12     -0.36      0.00
   -9   -1   12     -0.06      0.00
   -8   -1   12      0.02      0.00
   -7   -1   12      0.02      0.00
   -6   -1   12      0.33      0.00
   -5   -1   12     -0.35      0.00
   -4   -1   12     -0.66      0.00
   -3   -1   12     -0.17      0.00
   -2   -1   12      0.13      0.00
   -1   -1   12     -0.43      0.00
    0   -1   12      0.07      0.00
    1   -1   12      0.89      0.00
    2   -1   12     -0.51      0.00
    3   -1   12     -0.57      0.00
    4   -1   12      0.45      0.00
    5   -1   12      0.45      0.00
    6   -1   12     -0.72      0.00
    7   -1   12     -0.68      0.00
    8   -1   12      0.71      0.00
    9   -1   12     -0.09      0.00
   10   -1   12     -0.47      0.00
   11   -1   12      0.53      0.00
   -9    0   12      0.30      0.00
   -8    0   12      0.01      0.00
   -7    0   12      0.33      0.00
   -6    0   12      0.12      0.00
   -5    0   12     -0.45      0.00
   -4    0   12     -0.48      0.00
   -3    0   12      0.20      0.00
   -2    0   12      0.60      0.00
   -1    0   12     -0.19      0.00
    0    0   12     -0.59      0.00
    1    0   12      0.95      0.00
    2    0   12      0.63      0.00
    3    0   12     -0.07      0.00
    4    0   12     -0.19      0.00
    5    0   12      0.63      0.00
    6    0   12      0.51      0.00
    7    0   12     -1.04      0.00
    8    0   12     -0.24      0.00
    9    0   12      1.21      0.00
   10    0   12      0.48      0.00
   11    0   12      0.03      0.00
   -9    1   12      0.04      0.00
   -8    1   12      0.04      0.00
   -7    1   12      0.28      0.00
   -6    1   12      0.44      0.00
   -5    1   12     -0.70      0.00
   -4    1   12     -0.41      0.00
   -3    1   12      0.68      0.00
   -2    1   12      0.46      0.00
   -1    1   12     -0.47      0.00
    0    1   12     -1.22      0.00
    1    1   12      0.23      0.00
    2    1   12      1.46      0.00
    3    1   12      0.96      0.00
    4    1   12      0.13      0.00
    5    1   12     -0.18      0.00
    6    1   12      0.85      0.00
    7    1   12      0.14      0.00
    8    1   12     -0.15      0.00
    9    1   12      1.12      0.00
   10    1   12      1.26      0.00
   11    1   12      0.26      0.00
   12    1   12     -0.79      0.00
   -9    2   12     -0.34      0.00
   -8    2   12     -0.14      0.00
   -7    2   12     -0.15      0.00
   -6    2   12      0.36      0.00
   -5    2   12      0.38      0.00
   -4    2   12      0.11      0.00
   -3    2   12      0.22      0.00
   -2    2   12     -0.07      0.00
   -1    2   12     -0.08      0.00
    0    2   12     -0.24      0.00
    1    2   12      0.18      0.00
    2    2   12      0.98      0.00
    3    2   12      0.46      0.00
    4    2   12     -0.30      0.00
    5    2   12     -0.25      0.00
    6    2   12      0.46      0.00
    7    2   12     -0.02      0.00
    8    2   12     -0.24      0.00
    9    2   12      0.57      0.00
   10    2   12      0.54      0.00
   11    2   12      0.08      0.00
   12    2   12     -1.11      0.00
   -9    3   12     -0.47      0.00
   -8    3   12     -0.58      0.00
   -7    3   12     -0.02      0.00
   -6    3   12      0.12      0.00
   -5    3   12      0.21      0.00
   -4    3   12      0.04      0.00
   -3    3   12     -0.14      0.00
   -2    3   12     -0.85      0.00
   -1    3   12     -0.30      0.00
    0    3   12      0.57      0.00
    1    3   12      1.20      0.00
    2    3   12      0.46      0.00
    3    3   12      0.17      0.00
    4    3   12     -0.10      0.00
    5    3   12     -0.15      0.00
    6    3   12     -0.24      0.00
    7    3   12      0.37      0.00
    8    3   12      0.07      0.00
    9    3   12      0.10      0.00
   10    3   12      0.19      0.00
   11    3   12     -0.29      0.00
   12    3   12     -0.84      0.00
   -9    4   12      0.06      0.00
   -8    4   12     -0.28      0.00
   -7    4   12     -0.03      0.00
   -6    4   12      0.63      0.00
   -5    4   12      0.92      0.00
   -4    4   12     -0.02      0.00
   -3    4   12     -0.17      0.00
   -2    4   12     -0.04      0.00
   -1    4   12      0.31      0.00
    0    4   12      0.06      0.00
    1    4   12      0.86      0.00
    2    4   12      0.36      0.00
    3    4   12     -0.72      0.00
    4    4   12     -0.13      0.00
    5    4   12      0.89      0.00
    6    4   12     -0.78      0.00
    7    4   12     -0.46      0.00
    8    4   12      0.08      0.00
    9    4   12     -0.23      0.00
   10    4   12      0.35      0.00
   11    4   12     -0.05      0.00
   12    4   12     -0.98      0.00
   13    4   12      0.01      0.00
   -8    5   12      0.19      0.00
   -7    5   12     -0.33      0.00
   -6    5   12     -0.28      0.00
   -5    5   12      0.74      0.00
   -4    5   12      0.51      0.00
   -3    5   12     -0.33      0.00
   -2    5   12     -0.20      0.00
   -1    5   12      0.31      0.00
    0    5   12     -0.35      0.00
    1    5   12     -0.69      0.00
    2    5   12      0.65      0.00
    3    5   12      0.18      0.00
    4    5   12     -0.29      0.00
    5    5   12      0.64      0.00
    6    5   12     -0.16      0.00
    7    5   12     -0.43      0.00
    8    5   12     -0.16      0.00
    9    5   12     -0.60      0.00
   10    5   12     -0.08      0.00
   11    5   12      0.74      0.00
   12    5   12     -0.06      0.00
   13    5   12      0.13      0.00
   -8    6   12     -0.08      0.00
   -7    6   12     -0.74      0.00
   -6    6   12     -0.93      0.00
   -5    6   12     -0.08      0.00
   -4    6   12      0.15      0.00
   -3    6   12     -0.16      0.00
   -2    6   12      0.26      0.00
   -1    6   12      0.64      0.00
    0    6   12      0.47      0.00
    1    6   12     -0.53      0.00
    2    6   12      0.40      0.00
    3    6   12      0.64      0.00
    4    6   12      0.32      0.00
    5    6   12      0.03      0.00
    6    6   12      0.03      0.00
    7    6   12      0.32      0.00
    8    6   12      0.70      0.00
    9    6   12      0.23      0.00
   10    6   12     -0.37      0.00
   11    6   12      0.77      0.00
   12    6   12      0.36      0.00
   13    6   12      0.65      0.00
   -8    7   12     -0.09      0.00
   -7    7   12     -0.54      0.00
   -6    7   12     -0.58      0.00
   -5    7   12      0.24      0.00
   -4    7   12      0.00      0.00
   -3    7   12     -0.73      0.00
   -2    7   12     -0.19      0.00
   -1    7   12      1.01      0.00
    0    7   12      0.98      0.00
    1    7   12      0.22      0.00
    2    7   12      0.22      0.00
    3    7   12      0.11      0.00
    4    7   12      0.27      0.00
    5    7   12     -0.30      0.00
    6    7   12     -0.35      0.00
    7    7   12     -0.41      0.00
    8    7   12      0.16      0.00
    9    7   12      0.37      0.00
   10    7   12     -0.60      0.00
   11    7   12      0.11      0.00
   12    7   12     -0.36      0.00
   13    7   12     -0.32      0.00
   -7    8   12     -0.67      0.00
   -6    8   12     -0.57      0.00
   -5    8   12      0.02      0.00
   -4    8   12      0.35      0.00
   -3    8   12     -0.12      0.00
   -2    8   12     -0.83      0.00
   -1    8   12      0.01      0.00
    0    8   12      0.13      0.00
    1    8   12      0.25      0.00
    2    8   12      0.08      0.00
    3    8   12     -0.07      0.00
    4    8   12     -0.10      0.00
    5    8   12     -0.15      0.00
    6    8   12      0.03      0.00
    7    8   12     -0.40      0.00
    8    8   12     -0.55      0.00
    9    8   12     -0.16      0.00
   10    8   12     -0.79      0.00
   11    8   12      0.03      0.00
   12    8   12     -0.18      0.00
   13    8   12     -0.91      0.00
   -7    9   12     -0.36      0.00
   -6    9   12     -0.81      0.00
   -5    9   12     -0.62      0.00
   -4    9   12      0.20      0.00
   -3    9   12      0.52      0.00
   -2    9   12      0.14      0.00
   -1    9   12      0.18      0.00
    0    9   12     -0.22      0.00
    1    9   12      0.30      0.00
    2    9   12     -0.01      0.00
    3    9   12      0.64      0.00
    4    9   12      0.31      0.00
    5    9   12      0.22      0.00
    6    9   12     -0.11      0.00
    7    9   12     -0.10      0.00
    8    9   12     -0.34      0.00
    9    9   12      0.24      0.00
   10    9   12     -0.70      0.00
   11    9   12      0.39      0.00
   12    9   12      0.65      0.00
   13    9   12     -0.44      0.00
   -6   10   12     -0.37      0.00
   -5   10   12     -0.59      0.00
   -4   10   12      0.23      0.00
   -3   10   12     -0.11      0.00
   -2   10   12      0.01      0.00
   -1   10   12      0.68      0.00
    0   10   12      0.51      0.00
    1   10   12      1.19      0.00
    2   10   12     -0.05      0.00
    3   10   12      0.02      0.00
    4   10   12     -0.59      0.00
    5   10   12      0.06      0.00
    6   10   12     -0.27      0.00
    7   10   12      0.18      0.00
    8   10   12      0.22      0.00
    9   10   12      1.09      0.00
   10   10   12     -0.17      0.00
   11   10   12      0.91      0.00
   12   10   12      0.59      0.00
   13   10   12      0.40      0.00
   -6   11   12      0.35      0.00
   -5   11   12      0.31      0.00
   -4   11   12      0.96      0.00
   -3   11   12      0.53      0.00
   -2   11   12     -0.14      0.00
   -1   11   12      0.43      0.00
    0   11   12     -0.03      0.00
    1   11   12      0.34      0.00
    2   11   12     -0.69      0.00
    3   11   12     -0.10      0.00
    4   11   12     -0.83      0.00
    5   11   12     -0.43      0.00
    6   11   12     -0.20      0.00
    7   11   12      0.03      0.00
    8   11   12      0.10      0.00
    9   11   12      1.12      0.00
   10   11   12      0.02      0.00
   11   11   12      1.01      0.00
   12   11   12     -0.36      0.00
   13   11   12     -0.08      0.00
   -5   12   12      0.63      0.00
   -4   12   12      0.49      0.00
   -3   12   12      0.97      0.00
   -2   12   12      0.57      0.00
   -1   12   12      1.02      0.00
    0   12   12      0.13      0.00
    1   12   12      0.28      0.00
    2   12   12     -0.66      0.00
    3   12   12     -0.04      0.00
    4   12   12     -0.03      0.00
    5   12   12     -0.27      0.00
    6   12   12      0.83      0.00
    7   12   12      0.78      0.00
    8   12   12     -0.31      0.00
    9   12   12      0.19      0.00
   10   12   12     -0.06      0.00
   11   12   12      0.24      0.00
   12   12   12     -0.54      0.00
   13   12   12     -0.66      0.00
   -4   13   12      0.09      0.00
   -3   13   12      0.20      0.00
   -2   13   12     -0.32      0.00
   -1   13   12      0.20      0.00
    0   13   12     -0.58      0.00
    1   13   12     -0.35      0.00
    2   13   12      0.27      0.00
    3   13   12      0.72      0.00
    4   13   12      0.60      0.00
    5   13   12     -0.68      0.00
    6   13   12      0.46      0.00
    7   13   12      0.86      0.00
    8   13   12     -0.49      0.00
    9   13   12     -0.54      0.00
   10   13   12      0.07      0.00
   11   13   12     -0.48      0.00
   12   13   12     -0.28      0.00
   -3   14   12      0.00      0.00
   -2   14   12     -0.59      0.00
   -1   14   12     -0.20      0.00
    0   14   12      0.01      0.00
    1   14   12     -0.35      0.00
    2   14   12     -0.12      0.00
    3   14   12      0.08      0.00
    4   14   12      0.28      0.00
    5   14   12     -0.72      0.00
    6   14   12      0.07      0.00
    7   14   12      0.43      0.00
    8   14   12     -0.49      0.00
    9   14   12     -0.40      0.00
   10   14   12      0.53      0.00
   11   14   12     -0.63      0.00
   12   14   12     -0.45      0.00
   -2   15   12     -0.31      0.00
   -1   15   12     -0.10      0.00
    0   15   12      0.52      0.00
    1   15   12      1.13      0.00
    2   15   12      0.86      0.00
    3   15   12      0.19      0.00
    4   15   12      0.44      0.00
    5   15   12     -0.44      0.00
    6   15   12      0.36      0.00
    7   15   12      0.33      0.00
    8   15   12     -0.13      0.00
    9   15   12     -1.02      0.00
   10   15   12      0.32      0.00
   11   15   12      0.57      0.00
   12   15   12     -0.37      0.00
   -1   16   12      0.63      0.00
    0   16   12      0.50      0.00
    1   16   12      0.68      0.00
    2   16   12      0.07      0.00
    3   16   12     -0.62      0.00
    4   16   12      1.13      0.00
    5   16   12     -0.74      0.00
    6   16   12     -0.56      0.00
    7   16   12     -0.52      0.00
    8   16   12      0.50      0.00
    9   16   12     -0.49      0.00
   10   16   12     -1.27      0.00
   11   16   12      0.39      0.00
    0   17   12      1.01      0.00
    1   17   12      1.77      0.00
    2   17   12      0.55      0.00
    3   17   12     -2.23      0.00
    4   17   12      0.37      0.00
    5   17   12     -0.19      0.00
    6   17   12     -0.49      0.00
    7   17   12     -0.30      0.00
    8   17   12     -0.39      0.00
    9   17   12      0.00      0.00
   10   17   12      0.04      0.00
    2   18   12      1.50      0.00
    3   18   12     -0.76      0.00
    4   18   12     -0.70      0.00
    5   18   12     -0.55      0.00
    6   18   12     -0.28      0.00
    7   18   12      1.40      0.00
    8   18   12      0.68      0.00
    9   18   12     -1.10      0.00
   -4  -10   13     -0.60      0.00
   -3  -10   13     -1.01      0.00
   -2  -10   13     -1.01      0.00
   -1  -10   13      0.32      0.00
    0  -10   13      0.16      0.00
    1  -10   13     -0.55      0.00
   -5   -9   13      0.51      0.00
   -4   -9   13      0.49      0.00
   -3   -9   13     -0.24      0.00
   -2   -9   13     -0.89      0.00
   -1   -9   13     -0.53      0.00
    0   -9   13      0.46      0.00
    1   -9   13     -0.32      0.00
    2   -9   13     -0.10      0.00
    3   -9   13      1.29      0.00
   -6   -8   13     -0.49      0.00
   -5   -8   13      0.55      0.00
   -4   -8   13      0.81      0.00
   -3   -8   13     -0.25      0.00
   -2   -8   13      0.25      0.00
   -1   -8   13     -0.58      0.00
    0   -8   13     -0.51      0.00
    1   -8   13      0.04      0.00
    2   -8   13      0.30      0.00
    3   -8   13      0.76      0.00
    4   -8   13      0.13      0.00
    5   -8   13      0.66      0.00
   -7   -7   13      0.33      0.00
   -6   -7   13     -0.12      0.00
   -5   -7   13      1.05      0.00
   -4   -7   13      1.88      0.00
   -3   -7   13      0.59      0.00
   -2   -7   13      0.21      0.00
   -1   -7   13      0.18      0.00
    0   -7   13      0.20      0.00
    1   -7   13     -0.50      0.00
    2   -7   13     -0.07      0.00
    3   -7   13     -0.02      0.00
    4   -7   13     -1.34      0.00
    5   -7   13     -0.33      0.00
    6   -7   13      1.34      0.00
   -7   -6   13     -0.92      0.00
   -6   -6   13     -0.79      0.00
   -5   -6   13      0.48      0.00
   -4   -6   13      0.38      0.00
   -3   -6   13      0.68      0.00
   -2   -6   13      0.52      0.00
   -1   -6   13     -0.08      0.00
    0   -6   13      1.14      0.00
    1   -6   13      0.58      0.00
    2   -6   13     -0.08      0.00
    3   -6   13     -0.47      0.00
    4   -6   13     -1.22      0.00
    5   -6   13     -1.87      0.00
    6   -6   13      0.38      0.00
    7   -6   13      0.65      0.00
   -8   -5   13      0.36      0.00
   -7   -5   13     -0.61      0.00
   -6   -5   13     -1.14      0.00
   -5   -5   13      0.07      0.00
   -4   -5   13     -0.75      0.00
   -3   -5   13     -0.80      0.00
   -2   -5   13     -0.03      0.00
   -1   -5   13     -0.20      0.00
    0   -5   13      0.22      0.00
    1   -5   13     -0.04      0.00
    2   -5   13     -0.36      0.00
    3   -5   13     -0.29      0.00
    4   -5   13     -0.32      0.00
    5   -5   13      0.01      0.00
    6   -5   13      0.59      0.00
    7   -5   13      0.47      0.00
    8   -5   13      0.28      0.00
   -8   -4   13      0.38      0.00
   -7   -4   13     -0.08      0.00
   -6   -4   13     -0.56      0.00
   -5   -4   13      0.27      0.00
   -4   -4   13     -0.36      0.00
   -3   -4   13     -0.27      0.00
   -2   -4   13     -0.29      0.00
   -1   -4   13      0.47      0.00
    0   -4   13      0.08      0.00
    1   -4   13     -0.59      0.00
    2   -4   13     -0.82      0.00
    3   -4   13      0.20      0.00
    4   -4   13     -0.77      0.00
    5   -4   13     -0.08      0.00
    6   -4   13      1.19      0.00
    7   -4   13      0.61      0.00
    8   -4   13     -0.61      0.00
   -8   -3   13     -0.03      0.00
   -7   -3   13     -0.08      0.00
   -6   -3   13     -0.84      0.00
   -5   -3   13     -0.14      0.00
   -4   -3   13     -0.38      0.00
   -3   -3   13      0.82      0.00
   -2   -3   13     -0.15      0.00
   -1   -3   13     -0.06      0.00
    0   -3   13     -0.28      0.00
    1   -3   13     -0.41      0.00
    2   -3   13     -0.50      0.00
    3   -3   13      0.38      0.00
    4   -3   13     -0.20      0.00
    5   -3   13     -0.14      0.00
    6   -3   13      0.66      0.00
    7   -3   13      0.35      0.00
    8   -3   13     -1.70      0.00
    9   -3   13     -1.27      0.00
   -9   -2   13     -0.47      0.00
   -8   -2   13     -0.83      0.00
   -7   -2   13     -0.45      0.00
   -6   -2   13     -0.26      0.00
   -5   -2   13      0.48      0.00
   -4   -2   13     -0.19      0.00
   -3   -2   13      0.43      0.00
   -2   -2   13      0.37      0.00
   -1   -2   13      0.03      0.00
    0   -2   13     -0.50      0.00
    1   -2   13     -0.28      0.00
    2   -2   13      0.37      0.00
    3   -2   13      0.32      0.00
    4   -2   13     -0.25      0.00
    5   -2   13      0.10      0.00
    6   -2   13      0.77      0.00
    7   -2   13      0.24      0.00
    8   -2   13     -1.65      0.00
    9   -2   13     -1.68      0.00
   10   -2   13     -1.01      0.00
   -9   -1   13     -0.76      0.00
   -8   -1   13     -1.23      0.00
   -7   -1   13     -1.20      0.00
   -6   -1   13     -0.81      0.00
   -5   -1   13     -0.14      0.00
   -4   -1   13     -0.19      0.00
   -3   -1   13     -0.47      0.00
   -2   -1   13     -0.54      0.00
   -1   -1   13     -0.23      0.00
    0   -1   13      0.04      0.00
    1   -1   13     -0.20      0.00
    2   -1   13      0.22      0.00
    3   -1   13      0.51      0.00
    4   -1   13      0.18      0.00
    5   -1   13     -0.17      0.00
    6   -1   13      0.08      0.00
    7   -1   13      0.44      0.00
    8   -1   13     -0.72      0.00
    9   -1   13     -2.03      0.00
   10   -1   13     -0.98      0.00
   -9    0   13     -0.18      0.00
   -8    0   13     -0.52      0.00
   -7    0   13     -0.05      0.00
   -6    0   13      0.27      0.00
   -5    0   13      0.25      0.00
   -4    0   13     -0.36      0.00
   -3    0   13     -0.38      0.00
   -2    0   13      0.12      0.00
   -1    0   13      0.19      0.00
    0    0   13      0.52      0.00
    1    0   13      0.24      0.00
    2    0   13     -0.23      0.00
    3    0   13      0.10      0.00
    4    0   13      0.43      0.00
    5    0   13      0.54      0.00
    6    0   13     -1.13      0.00
    7    0   13     -0.84      0.00
    8    0   13      0.43      0.00
    9    0   13     -0.72      0.00
   10    0   13     -0.60      0.00
   11    0   13      0.79      0.00
   -9    1   13      0.14      0.00
   -8    1   13     -0.14      0.00
   -7    1   13      0.19      0.00
   -6    1   13      0.00      0.00
   -5    1   13     -0.21      0.00
   -4    1   13     -0.28      0.00
   -3    1   13     -0.22      0.00
   -2    1   13     -0.22      0.00
   -1    1   13      0.01      0.00
    0    1   13      0.46      0.00
    1    1   13      0.74      0.00
    2    1   13      0.39      0.00
    3    1   13      0.36      0.00
    4    1   13     -0.21      0.00
    5    1   13      0.84      0.00
    6    1   13      0.30      0.00
    7    1   13     -1.05      0.00
    8    1   13     -0.34      0.00
    9    1   13     -0.07      0.00
   10    1   13      0.12      0.00
   11    1   13      0.17      0.00
   -8    2   13      0.12      0.00
   -7    2   13      0.10      0.00
   -6    2   13      0.41      0.00
   -5    2   13     -0.04      0.00
   -4    2   13     -0.49      0.00
   -3    2   13      0.46      0.00
   -2    2   13      0.16      0.00
   -1    2   13     -0.69      0.00
    0    2   13     -0.45      0.00
    1    2   13      0.35      0.00
    2    2   13      0.87      0.00
    3    2   13      0.85      0.00
    4    2   13      0.08      0.00
    5    2   13      0.11      0.00
    6    2   13      0.64      0.00
    7    2   13     -0.41      0.00
    8    2   13      0.23      0.00
    9    2   13      0.22      0.00
   10    2   13      0.41      0.00
   11    2   13      0.20      0.00
   12    2   13     -0.80      0.00
   -8    3   13      0.09      0.00
   -7    3   13     -0.40      0.00
   -6    3   13     -0.08      0.00
   -5    3   13      0.58      0.00
   -4    3   13     -0.23      0.00
   -3    3   13     -0.50      0.00
   -2    3   13     -0.20      0.00
   -1    3   13     -0.22      0.00
    0    3   13      0.23      0.00
    1    3   13      0.22      0.00
    2    3   13      0.42      0.00
    3    3   13      0.26      0.00
    4    3   13     -0.37      0.00
    5    3   13     -0.48      0.00
    6    3   13      0.65      0.00
    7    3   13     -0.83      0.00
    8    3   13     -0.51      0.00
    9    3   13      0.21      0.00
   10    3   13      0.00      0.00
   11    3   13      0.03      0.00
   12    3   13     -1.10      0.00
   -8    4   13     -0.12      0.00
   -7    4   13     -0.17      0.00
   -6    4   13      0.02      0.00
   -5    4   13      0.16      0.00
   -4    4   13     -0.25      0.00
   -3    4   13     -0.47      0.00
   -2    4   13     -0.59      0.00
   -1    4   13     -0.51      0.00
    0    4   13      0.58      0.00
    1    4   13      0.85      0.00
    2    4   13     -0.02      0.00
    3    4   13      0.25      0.00
    4    4   13      0.35      0.00
    5    4   13     -0.47      0.00
    6    4   13      0.16      0.00
    7    4   13      0.29      0.00
    8    4   13     -0.09      0.00
    9    4   13      0.01      0.00
   10    4   13      0.17      0.00
   11    4   13     -0.02      0.00
   12    4   13     -0.85      0.00
   -8    5   13      0.09      0.00
   -7    5   13     -0.29      0.00
   -6    5   13      0.51      0.00
   -5    5   13      0.89      0.00
   -4    5   13     -0.26      0.00
   -3    5   13     -0.34      0.00
   -2    5   13      0.20      0.00
   -1    5   13      0.34      0.00
    0    5   13      0.42      0.00
    1    5   13      0.77      0.00
    2    5   13     -0.20      0.00
    3    5   13     -0.48      0.00
    4    5   13      0.35      0.00
    5    5   13      0.23      0.00
    6    5   13     -0.77      0.00
    7    5   13     -0.20      0.00
    8    5   13      0.08      0.00
    9    5   13     -0.51      0.00
   10    5   13      0.39      0.00
   11    5   13      0.29      0.00
   12    5   13     -0.67      0.00
   -7    6   13     -0.77      0.00
   -6    6   13     -0.45      0.00
   -5    6   13      0.49      0.00
   -4    6   13     -0.10      0.00
   -3    6   13     -0.32      0.00
   -2    6   13     -0.40      0.00
   -1    6   13     -0.42      0.00
    0    6   13      0.19      0.00
    1    6   13      0.71      0.00
    2    6   13      0.67      0.00
    3    6   13     -0.30      0.00
    4    6   13      0.16      0.00
    5    6   13      0.77      0.00
    6    6   13     -0.16      0.00
    7    6   13     -0.26      0.00
    8    6   13     -0.30      0.00
    9    6   13     -1.70      0.00
   10    6   13     -0.35      0.00
   11    6   13      1.00      0.00
   12    6   13      0.00      0.00
   13    6   13      0.73      0.00
   -7    7   13     -0.55      0.00
   -6    7   13     -0.32      0.00
   -5    7   13      0.16      0.00
   -4    7   13     -0.58      0.00
   -3    7   13      0.03      0.00
   -2    7   13      0.84      0.00
   -1    7   13      0.15      0.00
    0    7   13      0.02      0.00
    1    7   13      0.17      0.00
    2    7   13      1.21      0.00
    3    7   13     -0.05      0.00
    4    7   13     -0.04      0.00
    5    7   13      0.34      0.00
    6    7   13      0.35      0.00
    7    7   13      0.42      0.00
    8    7   13      0.93      0.00
    9    7   13     -0.75      0.00
   10    7   13     -1.14      0.00
   11    7   13      0.99      0.00
   12    7   13      0.25      0.00
   13    7   13      1.23      0.00
   -7    8   13     -0.20      0.00
   -6    8   13      0.56      0.00
   -5    8   13      0.82      0.00
   -4    8   13     -0.62      0.00
   -3    8   13     -0.68      0.00
   -2    8   13      0.34      0.00
   -1    8   13      0.78      0.00
    0    8   13      0.67      0.00
    1    8   13     -0.19      0.00
    2    8   13      0.42      0.00
    3    8   13     -0.73      0.00
    4    8   13     -0.42      0.00
    5    8   13     -0.31      0.00
    6    8   13      0.06      0.00
    7    8   13     -0.59      0.00
    8    8   13      0.04      0.00
    9    8   13     -0.10      0.00
   10    8   13     -0.84      0.00
   11    8   13      0.28      0.00
   12    8   13     -0.49      0.00
   13    8   13      0.66      0.00
   -6    9   13      0.52      0.00
   -5    9   13      0.89      0.00
   -4    9   13      0.16      0.00
   -3    9   13      0.05      0.00
   -2    9   13     -0.19      0.00
   -1    9   13     -0.36      0.00
    0    9   13     -0.39      0.00
    1    9   13     -0.14      0.00
    2    9   13      0.58      0.00
    3    9   13     -0.09      0.00
    4    9   13     -0.11      0.00
    5    9   13     -0.44      0.00
    6    9   13      0.45      0.00
    7    9   13      0.14      0.00
    8    9   13     -0.14      0.00
    9    9   13     -0.27      0.00
   10    9   13     -0.56      0.00
   11    9   13      0.38      0.00
   12    9   13     -0.27      0.00
   13    9   13      0.28      0.00
   -6   10   13      0.29      0.00
   -5   10   13      0.24      0.00
   -4   10   13      0.30      0.00
   -3   10   13      0.49      0.00
   -2   10   13      0.44      0.00
   -1   10   13      0.14      0.00
    0   10   13     -0.64      0.00
    1   10   13     -0.07      0.00
    2   10   13      0.06      0.00
    3   10   13     -0.02      0.00
    4   10   13      0.32      0.00
    5   10   13     -0.06      0.00
    6   10   13     -0.21      0.00
    7   10   13      0.52      0.00
    8   10   13      0.17      0.00
    9   10   13      0.14      0.00
   10   10   13     -0.19      0.00
   11   10   13      0.53      0.00
   12   10   13      0.72      0.00
   13   10   13      0.46      0.00
   -5   11   13      0.10      0.00
   -4   11   13      0.49      0.00
   -3   11   13     -0.08      0.00
   -2   11   13     -0.03      0.00
   -1   11   13      0.14      0.00
    0   11   13     -0.49      0.00
    1   11   13      0.21      0.00
    2   11   13     -0.13      0.00
    3   11   13     -0.50      0.00
    4   11   13     -0.43      0.00
    5   11   13      0.32      0.00
    6   11   13     -0.73      0.00
    7   11   13      0.37      0.00
    8   11   13      0.54      0.00
    9   11   13      0.14      0.00
   10   11   13     -0.39      0.00
   11   11   13      0.31      0.00
   12   11   13      0.22      0.00
   13   11   13      0.96      0.00
   -4   12   13      0.50      0.00
   -3   12   13     -0.02      0.00
   -2   12   13      0.28      0.00
   -1   12   13      0.69      0.00
    0   12   13     -0.21      0.00
    1   12   13     -0.17      0.00
    2   12   13     -0.88      0.00
    3   12   13     -0.44      0.00
    4   12   13     -0.31      0.00
    5   12   13      0.93      0.00
    6   12   13      0.02      0.00
    7   12   13      0.12      0.00
    8   12   13      0.36      0.00
    9   12   13      0.62      0.00
   10   12   13     -0.56      0.00
   11   12   13      0.30      0.00
   12   12   13     -1.02      0.00
   -4   13   13      0.13      0.00
   -3   13   13     -0.35      0.00
   -2   13   13     -0.15      0.00
   -1   13   13      0.89      0.00
    0   13   13      0.39      0.00
    1   13   13      0.95      0.00
    2   13   13      0.12      0.00
    3   13   13      0.65      0.00
    4   13   13      0.18      0.00
    5   13   13      0.43      0.00
    6   13   13      0.36      0.00
    7   13   13      0.59      0.00
    8   13   13     -0.52      0.00
    9   13   13      0.10      0.00
   10   13   13     -0.43      0.00
   11   13   13      0.18      0.00
   12   13   13     -0.79      0.00
   -3   14   13      0.08      0.00
   -2   14   13     -0.42      0.00
   -1   14   13      0.14      0.00
    0   14   13     -0.43      0.00
    1   14   13      0.30      0.00
    2   14   13     -0.19      0.00
    3   14   13      0.75      0.00
    4   14   13      0.35      0.00
    5   14   13     -0.48      0.00
    6   14   13     -0.29      0.00
    7   14   13      0.85      0.00
    8   14   13     -0.25      0.00
    9   14   13     -0.38      0.00
   10   14   13     -0.68      0.00
   11   14   13     -0.29      0.00
   12   14   13     -0.17      0.00
   -2   15   13      0.01      0.00
   -1   15   13      0.33      0.00
    0   15   13      0.48      0.00
    1   15   13      0.87      0.00
    2   15   13     -0.70      0.00
    3   15   13     -0.98      0.00
    4   15   13     -0.75      0.00
    5   15   13     -0.96      0.00
    6   15   13     -0.81      0.00
    7   15   13      0.08      0.00
    8   15   13      0.20      0.00
    9   15   13      0.37      0.00
   10   15   13     -0.17      0.00
   11   15   13     -0.74      0.00
   -1   16   13      0.35      0.00
    0   16   13      0.47      0.00
    1   16   13      1.29      0.00
    2   16   13      0.25      0.00
    3   16   13     -0.59      0.00
    4   16   13     -0.84      0.00
    5   16   13     -0.71      0.00
    6   16   13     -0.03      0.00
    7   16   13     -0.69      0.00
    8   16   13      0.04      0.00
    9   16   13     -0.33      0.00
   10   16   13     -0.39      0.00
   11   16   13      0.03      0.00
    1   17   13      0.39      0.00
    2   17   13     -1.01      0.00
    3   17   13     -1.04      0.00
    4   17   13      0.25      0.00
    5   17   13     -0.66      0.00
    6   17   13     -0.38      0.00
    7   17   13     -1.82      0.00
    8   17   13     -0.02      0.00
    9   17   13      0.26      0.00
   10   17   13     -1.25      0.00
    3   18   13     -1.89      0.00
    4   18   13     -0.11      0.00
    5   18   13      0.30      0.00
    6   18   13      0.60      0.00
    7   18   13     -1.08      0.00
    8   18   13     -0.96      0.00
   -3   -9   14     -0.68      0.00
   -2   -9   14     -1.40      0.00
   -1   -9   14      0.92      0.00
    0   -9   14      0.32      0.00
    1   -9   14     -0.06      0.00
   -5   -8   14      0.21      0.00
   -4   -8   14      0.00      0.00
   -3   -8   14     -0.09      0.00
   -2   -8   14     -1.31      0.00
   -1   -8   14      0.54      0.00
    0   -8   14      0.52      0.00
    1   -8   14      0.20      0.00
    2   -8   14     -0.10      0.00
    3   -8   14     -0.38      0.00
   -6   -7   14      0.29      0.00
   -5   -7   14      0.79      0.00
   -4   -7   14      0.49      0.00
   -3   -7   14     -0.41      0.00
   -2   -7   14     -1.10      0.00
   -1   -7   14      0.12      0.00
    0   -7   14     -0.35      0.00
    1   -7   14     -0.11      0.00
    2   -7   14      0.58      0.00
    3   -7   14     -0.62      0.00
    4   -7   14     -0.91      0.00
    5   -7   14      1.20      0.00
   -6   -6   14      0.75      0.00
   -5   -6   14      1.43      0.00
   -4   -6   14      1.52      0.00
   -3   -6   14      0.94      0.00
   -2   -6   14     -0.08      0.00
   -1   -6   14      0.34      0.00
    0   -6   14     -0.09      0.00
    1   -6   14     -0.55      0.00
    2   -6   14      0.17      0.00
    3   -6   14     -0.87      0.00
    4   -6   14     -2.21      0.00
    5   -6   14     -0.50      0.00
    6   -6   14      0.97      0.00
   -7   -5   14     -0.56      0.00
   -6   -5   14     -0.39      0.00
   -5   -5   14      0.76      0.00
   -4   -5   14      0.48      0.00
   -3   -5   14      0.07      0.00
   -2   -5   14      0.09      0.00
   -1   -5   14      0.00      0.00
    0   -5   14      0.09      0.00
    1   -5   14     -0.03      0.00
    2   -5   14      0.25      0.00
    3   -5   14     -0.83      0.00
    4   -5   14     -0.98      0.00
    5   -5   14     -1.23      0.00
    6   -5   14     -0.38      0.00
    7   -5   14     -0.15      0.00
   -7   -4   14     -0.08      0.00
   -6   -4   14     -0.27      0.00
   -5   -4   14     -0.15      0.00
   -4   -4   14     -0.21      0.00
   -3   -4   14     -1.00      0.00
   -2   -4   14     -0.15      0.00
   -1   -4   14     -0.44      0.00
    0   -4   14     -1.00      0.00
    1   -4   14     -0.66      0.00
    2   -4   14      0.02      0.00
    3   -4   14     -0.28      0.00
    4   -4   14      0.11      0.00
    5   -4   14      1.08      0.00
    6   -4   14      0.67      0.00
    7   -4   14     -0.46      0.00
    8   -4   14      0.63      0.00
   -8   -3   14     -0.61      0.00
   -7   -3   14     -0.46      0.00
   -6   -3   14     -0.07      0.00
   -5   -3   14     -0.23      0.00
   -4   -3   14      0.00      0.00
   -3   -3   14     -0.63      0.00
   -2   -3   14     -0.40      0.00
   -1   -3   14      0.13      0.00
    0   -3   14     -0.94      0.00
    1   -3   14     -0.62      0.00
    2   -3   14     -0.36      0.00
    3   -3   14      0.29      0.00
    4   -3   14     -0.01      0.00
    5   -3   14      1.00      0.00
    6   -3   14      1.14      0.00
    7   -3   14     -0.67      0.00
    8   -3   14     -0.80      0.00
    9   -3   14     -0.66      0.00
   -8   -2   14     -1.00      0.00
   -7   -2   14     -0.44      0.00
   -6   -2   14      0.05      0.00
   -5   -2   14     -0.09      0.00
   -4   -2   14     -0.25      0.00
   -3   -2   14      0.77      0.00
   -2   -2   14      0.10      0.00
   -1   -2   14     -0.07      0.00
    0   -2   14     -1.32      0.00
    1   -2   14     -0.05      0.00
    2   -2   14      0.22      0.00
    3   -2   14      0.42      0.00
    4   -2   14     -0.02      0.00
    5   -2   14      0.65      0.00
    6   -2   14      0.70      0.00
    7   -2   14     -0.86      0.00
    8   -2   14     -1.80      0.00
    9   -2   14     -1.44      0.00
   -8   -1   14     -1.61      0.00
   -7   -1   14     -1.15      0.00
   -6   -1   14      0.07      0.00
   -5   -1   14      1.17      0.00
   -4   -1   14     -0.11      0.00
   -3   -1   14      0.44      0.00
   -2   -1   14      0.29      0.00
   -1   -1   14      0.56      0.00
    0   -1   14     -1.12      0.00
    1   -1   14      0.06      0.00
    2   -1   14      0.73      0.00
    3   -1   14      0.32      0.00
    4   -1   14     -0.19      0.00
    5   -1   14      0.14      0.00
    6   -1   14      0.55      0.00
    7   -1   14     -1.07      0.00
    8   -1   14     -2.09      0.00
    9   -1   14     -1.51      0.00
   10   -1   14     -1.16      0.00
   -8    0   14     -1.44      0.00
   -7    0   14     -1.17      0.00
   -6    0   14     -0.63      0.00
   -5    0   14      0.46      0.00
   -4    0   14     -0.61      0.00
   -3    0   14     -0.27      0.00
   -2    0   14     -0.05      0.00
   -1    0   14      0.53      0.00
    0    0   14     -0.59      0.00
    1    0   14     -0.10      0.00
    2    0   14      0.58      0.00
    3    0   14      0.20      0.00
    4    0   14     -0.02      0.00
    5    0   14     -0.73      0.00
    6    0   14     -0.30      0.00
    7    0   14     -0.03      0.00
    8    0   14     -0.91      0.00
    9    0   14     -1.66      0.00
   10    0   14     -1.09      0.00
   -8    1   14     -0.63      0.00
   -7    1   14      0.10      0.00
   -6    1   14      0.42      0.00
   -5    1   14      0.93      0.00
   -4    1   14     -0.54      0.00
   -3    1   14     -0.81      0.00
   -2    1   14      0.50      0.00
   -1    1   14      1.41      0.00
    0    1   14      0.23      0.00
    1    1   14     -0.26      0.00
    2    1   14      0.07      0.00
    3    1   14      0.07      0.00
    4    1   14      0.14      0.00
    5    1   14     -0.18      0.00
    6    1   14     -1.47      0.00
    7    1   14     -0.65      0.00
    8    1   14      0.18      0.00
    9    1   14     -0.51      0.00
   10    1   14     -0.73      0.00
   11    1   14      0.30      0.00
   -8    2   14     -0.34      0.00
   -7    2   14      0.09      0.00
   -6    2   14      0.12      0.00
   -5    2   14      0.15      0.00
   -4    2   14     -0.31      0.00
   -3    2   14     -0.41      0.00
   -2    2   14     -0.47      0.00
   -1    2   14      0.56      0.00
    0    2   14      0.39      0.00
    1    2   14     -0.15      0.00
    2    2   14     -0.07      0.00
    3    2   14      0.67      0.00
    4    2   14     -0.04      0.00
    5    2   14      0.29      0.00
    6    2   14     -0.31      0.00
    7    2   14     -0.08      0.00
    8    2   14     -0.04      0.00
    9    2   14     -0.54      0.00
   10    2   14     -0.27      0.00
   11    2   14     -0.47      0.00
   -8    3   14     -0.14      0.00
   -7    3   14     -0.32      0.00
   -6    3   14      0.35      0.00
   -5    3   14      0.43      0.00
   -4    3   14     -0.61      0.00
   -3    3   14      0.40      0.00
   -2    3   14     -0.09      0.00
   -1    3   14     -0.18      0.00
    0    3   14     -0.03      0.00
    1    3   14     -0.02      0.00
    2    3   14     -0.08      0.00
    3    3   14      0.77      0.00
    4    3   14      0.21      0.00
    5    3   14      0.13      0.00
    6    3   14     -0.16      0.00
    7    3   14     -0.31      0.00
    8    3   14      0.61      0.00
    9    3   14     -0.23      0.00
   10    3   14      0.01      0.00
   11    3   14     -0.24      0.00
   -7    4   14     -0.76      0.00
   -6    4   14     -0.63      0.00
   -5    4   14      0.39      0.00
   -4    4   14     -0.23      0.00
   -3    4   14     -0.02      0.00
   -2    4   14     -0.66      0.00
   -1    4   14     -0.32      0.00
    0    4   14      0.59      0.00
    1    4   14      0.09      0.00
    2    4   14     -0.03      0.00
    3    4   14      0.54      0.00
    4    4   14     -0.30      0.00
    5    4   14     -0.50      0.00
    6    4   14      0.21      0.00
    7    4   14     -1.17      0.00
    8    4   14     -0.28      0.00
    9    4   14      0.05      0.00
   10    4   14     -0.14      0.00
   11    4   14     -0.31      0.00
   12    4   14     -0.43      0.00
   -7    5   14      0.13      0.00
   -6    5   14     -0.08      0.00
   -5    5   14     -0.13      0.00
   -4    5   14     -0.06      0.00
   -3    5   14      0.60      0.00
   -2    5   14     -0.05      0.00
   -1    5   14     -0.44      0.00
    0    5   14      0.82      0.00
    1    5   14      0.19      0.00
    2    5   14     -0.39      0.00
    3    5   14      0.89      0.00
    4    5   14      0.30      0.00
    5    5   14     -0.51      0.00
    6    5   14      0.65      0.00
    7    5   14      0.02      0.00
    8    5   14      0.01      0.00
    9    5   14      0.36      0.00
   10    5   14      0.39      0.00
   11    5   14     -0.18      0.00
   12    5   14     -0.18      0.00
   -7    6   14      0.10      0.00
   -6    6   14      0.34      0.00
   -5    6   14      0.28      0.00
   -4    6   14      0.20      0.00
   -3    6   14      0.31      0.00
   -2    6   14      0.09      0.00
   -1    6   14      0.29      0.00
    0    6   14      1.41      0.00
    1    6   14      0.61      0.00
    2    6   14     -1.02      0.00
    3    6   14      0.01      0.00
    4    6   14      0.20      0.00
    5    6   14     -0.22      0.00
    6    6   14      0.19      0.00
    7    6   14     -0.03      0.00
    8    6   14     -0.32      0.00
    9    6   14     -0.25      0.00
   10    6   14      0.93      0.00
   11    6   14     -0.14      0.00
   12    6   14      0.17      0.00
   -7    7   14     -0.22      0.00
   -6    7   14     -0.42      0.00
   -5    7   14     -0.39      0.00
   -4    7   14      0.17      0.00
   -3    7   14      0.40      0.00
   -2    7   14     -0.51      0.00
   -1    7   14     -0.96      0.00
    0    7   14      0.45      0.00
    1    7   14      1.21      0.00
    2    7   14      0.22      0.00
    3    7   14     -0.34      0.00
    4    7   14     -0.31      0.00
    5    7   14      0.49      0.00
    6    7   14      1.01      0.00
    7    7   14      0.44      0.00
    8    7   14     -0.68      0.00
    9    7   14     -1.91      0.00
   10    7   14      0.33      0.00
   11    7   14      0.45      0.00
   12    7   14      0.62      0.00
   -6    8   14      0.20      0.00
   -5    8   14     -0.45      0.00
   -4    8   14     -0.53      0.00
   -3    8   14      0.45      0.00
   -2    8   14      0.94      0.00
   -1    8   14      0.38      0.00
    0    8   14     -0.07      0.00
    1    8   14     -0.32      0.00
    2    8   14      0.46      0.00
    3    8   14     -0.24      0.00
    4    8   14     -0.64      0.00
    5    8   14     -0.01      0.00
    6    8   14      1.01      0.00
    7    8   14      0.86      0.00
    8    8   14      0.70      0.00
    9    8   14     -0.70      0.00
   10    8   14     -0.05      0.00
   11    8   14      0.39      0.00
   12    8   14      0.88      0.00
   -6    9   14      1.01      0.00
   -5    9   14      0.65      0.00
   -4    9   14     -0.73      0.00
   -3    9   14     -0.55      0.00
   -2    9   14      0.16      0.00
   -1    9   14      0.53      0.00
    0    9   14      0.56      0.00
    1    9   14     -0.89      0.00
    2    9   14     -0.13      0.00
    3    9   14     -0.80      0.00
    4    9   14     -0.94      0.00
    5    9   14     -0.56      0.00
    6    9   14      0.72      0.00
    7    9   14     -0.23      0.00
    8    9   14     -0.07      0.00
    9    9   14     -0.21      0.00
   10    9   14      0.33      0.00
   11    9   14     -0.06      0.00
   12    9   14      0.15      0.00
   -5   10   14      0.89      0.00
   -4   10   14      0.09      0.00
   -3   10   14     -0.01      0.00
   -2   10   14      0.04      0.00
   -1   10   14     -0.31      0.00
    0   10   14     -0.02      0.00
    1   10   14     -0.61      0.00
    2   10   14      0.36      0.00
    3   10   14      0.20      0.00
    4   10   14     -0.46      0.00
    5   10   14     -0.92      0.00
    6   10   14      1.30      0.00
    7   10   14      0.42      0.00
    8   10   14      0.05      0.00
    9   10   14      0.25      0.00
   10   10   14      0.31      0.00
   11   10   14      0.05      0.00
   12   10   14      0.20      0.00
   -5   11   14      0.51      0.00
   -4   11   14      0.33      0.00
   -3   11   14     -0.02      0.00
   -2   11   14     -0.02      0.00
   -1   11   14     -0.20      0.00
    0   11   14      0.16      0.00
    1   11   14      0.08      0.00
    2   11   14      0.23      0.00
    3   11   14      0.39      0.00
    4   11   14     -0.30      0.00
    5   11   14     -1.49      0.00
    6   11   14      0.22      0.00
    7   11   14      0.68      0.00
    8   11   14     -0.40      0.00
    9   11   14      0.20      0.00
   10   11   14      0.33      0.00
   11   11   14      0.03      0.00
   12   11   14      1.31      0.00
   -4   12   14      0.56      0.00
   -3   12   14      0.10      0.00
   -2   12   14     -0.08      0.00
   -1   12   14     -0.70      0.00
    0   12   14     -0.18      0.00
    1   12   14     -0.04      0.00
    2   12   14     -0.32      0.00
    3   12   14      0.17      0.00
    4   12   14      0.02      0.00
    5   12   14     -0.41      0.00
    6   12   14     -0.73      0.00
    7   12   14      0.04      0.00
    8   12   14     -0.21      0.00
    9   12   14     -0.30      0.00
   10   12   14     -0.52      0.00
   11   12   14     -0.77      0.00
   12   12   14      0.67      0.00
   -3   13   14     -0.28      0.00
   -2   13   14      0.69      0.00
   -1   13   14      0.31      0.00
    0   13   14      0.53      0.00
    1   13   14      0.20      0.00
    2   13   14     -0.21      0.00
    3   13   14      0.20      0.00
    4   13   14     -0.09      0.00
    5   13   14      0.69      0.00
    6   13   14      0.07      0.00
    7   13   14     -0.16      0.00
    8   13   14     -0.12      0.00
    9   13   14      0.44      0.00
   10   13   14     -0.36      0.00
   11   13   14     -0.61      0.00
   12   13   14     -0.34      0.00
   -2   14   14      0.03      0.00
   -1   14   14      0.18      0.00
    0   14   14      0.67      0.00
    1   14   14      0.57      0.00
    2   14   14      0.81      0.00
    3   14   14      1.57      0.00
    4   14   14      0.00      0.00
    5   14   14     -0.03      0.00
    6   14   14     -0.62      0.00
    7   14   14      0.12      0.00
    8   14   14     -0.60      0.00
    9   14   14     -0.05      0.00
   10   14   14     -0.15      0.00
   11   14   14      0.03      0.00
   -1   15   14     -0.14      0.00
    0   15   14     -0.12      0.00
    1   15   14     -0.56      0.00
    2   15   14     -0.61      0.00
    3   15   14      0.83      0.00
    4   15   14     -0.27      0.00
    5   15   14     -0.63      0.00
    6   15   14     -1.76      0.00
    7   15   14      0.74      0.00
    8   15   14      0.46      0.00
    9   15   14     -0.32      0.00
   10   15   14     -1.02      0.00
   11   15   14     -0.02      0.00
    0   16   14      0.11      0.00
    1   16   14     -0.32      0.00
    2   16   14     -1.36      0.00
    3   16   14     -1.10      0.00
    4   16   14     -1.16      0.00
    5   16   14     -0.17      0.00
    6   16   14     -2.40      0.00
    7   16   14     -0.48      0.00
    8   16   14      1.03      0.00
    9   16   14      0.54      0.00
   10   16   14     -0.92      0.00
    2   17   14     -0.59      0.00
    3   17   14     -0.57      0.00
    4   17   14     -0.85      0.00
    5   17   14      0.36      0.00
    6   17   14     -1.23      0.00
    7   17   14     -1.57      0.00
    8   17   14      0.35      0.00
    9   17   14      0.06      0.00
    4   18   14      0.59      0.00
    5   18   14      0.87      0.00
    6   18   14     -0.97      0.00
    7   18   14     -2.44      0.00
   -2   -8   15     -0.83      0.00
   -1   -8   15      0.32      0.00
    0   -8   15      0.03      0.00
    1   -8   15      0.20      0.00
   -4   -7   15      0.11      0.00
   -3   -7   15     -0.87      0.00
   -2   -7   15     -0.87      0.00
   -1   -7   15      0.70      0.00
    0   -7   15     -0.13      0.00
    1   -7   15      0.26      0.00
    2   -7   15     -1.01      0.00
    3   -7   15     -1.31      0.00
   -5   -6   15      0.54      0.00
   -4   -6   15      0.68      0.00
   -3   -6   15     -0.75      0.00
   -2   -6   15     -1.56      0.00
   -1   -6   15      0.05      0.00
    0   -6   15     -0.59      0.00
    1   -6   15      0.07      0.00
    2   -6   15     -0.03      0.00
    3   -6   15     -1.07      0.00
    4   -6   15     -0.50      0.00
    5   -6   15      1.32      0.00
   -6   -5   15      0.87      0.00
   -5   -5   15      1.57      0.00
   -4   -5   15      0.99      0.00
   -3   -5   15      0.40      0.00
   -2   -5   15     -0.30      0.00
   -1   -5   15      0.53      0.00
    0   -5   15     -0.39      0.00
    1   -5   15     -0.44      0.00
    2   -5   15      0.04      0.00
    3   -5   15     -0.87      0.00
    4   -5   15     -1.12      0.00
    5   -5   15     -0.25      0.00
    6   -5   15      0.16      0.00
   -6   -4   15     -0.65      0.00
   -5   -4   15      1.16      0.00
   -4   -4   15      0.64      0.00
   -3   -4   15     -0.23      0.00
   -2   -4   15     -0.55      0.00
   -1   -4   15     -0.07      0.00
    0   -4   15      0.08      0.00
    1   -4   15     -0.12      0.00
    2   -4   15      0.36      0.00
    3   -4   15     -0.81      0.00
    4   -4   15     -0.01      0.00
    5   -4   15     -0.13      0.00
    6   -4   15     -0.94      0.00
    7   -4   15     -0.05      0.00
   -7   -3   15     -0.05      0.00
   -6   -3   15     -0.71      0.00
   -5   -3   15      0.07      0.00
   -4   -3   15      0.37      0.00
   -3   -3   15     -0.85      0.00
   -2   -3   15     -0.14      0.00
   -1   -3   15     -0.67      0.00
    0   -3   15     -0.60      0.00
    1   -3   15     -0.58      0.00
    2   -3   15      0.11      0.00
    3   -3   15     -0.15      0.00
    4   -3   15      0.56      0.00
    5   -3   15      1.31      0.00
    6   -3   15      0.05      0.00
    7   -3   15     -0.28      0.00
    8   -3   15      0.87      0.00
   -7   -2   15     -0.45      0.00
   -6   -2   15     -0.75      0.00
   -5   -2   15     -1.05      0.00
   -4   -2   15      0.54      0.00
   -3   -2   15     -0.42      0.00
   -2   -2   15      0.26      0.00
   -1   -2   15     -0.41      0.00
    0   -2   15     -0.44      0.00
    1   -2   15     -0.02      0.00
    2   -2   15     -0.11      0.00
    3   -2   15      0.02      0.00
    4   -2   15      0.05      0.00
    5   -2   15      1.09      0.00
    6   -2   15      0.41      0.00
    7   -2   15     -0.51      0.00
    8   -2   15     -0.52      0.00
   -7   -1   15     -0.31      0.00
   -6   -1   15      0.38      0.00
   -5   -1   15     -0.62      0.00
   -4   -1   15      0.26      0.00
   -3   -1   15      0.34      0.00
   -2   -1   15      0.79      0.00
   -1   -1   15     -0.20      0.00
    0   -1   15     -0.85      0.00
    1   -1   15      0.25      0.00
    2   -1   15      0.22      0.00
    3   -1   15      0.45      0.00
    4   -1   15     -0.46      0.00
    5   -1   15      0.37      0.00
    6   -1   15      0.13      0.00
    7   -1   15     -0.41      0.00
    8   -1   15     -0.88      0.00
    9   -1   15     -0.66      0.00
   -7    0   15     -1.11      0.00
   -6    0   15      0.28      0.00
   -5    0   15      0.47      0.00
   -4    0   15      0.56      0.00
   -3    0   15      0.44      0.00
   -2    0   15      0.22      0.00
   -1    0   15      0.06      0.00
    0    0   15     -0.90      0.00
    1    0   15      0.17      0.00
    2    0   15     -0.26      0.00
    3    0   15      0.20      0.00
    4    0   15     -0.46      0.00
    5    0   15     -0.17      0.00
    6    0   15      0.25      0.00
    7    0   15     -0.66      0.00
    8    0   15     -1.22      0.00
    9    0   15     -0.70      0.00
   10    0   15     -0.46      0.00
   -7    1   15     -0.74      0.00
   -6    1   15     -0.15      0.00
   -5    1   15      0.02      0.00
   -4    1   15     -0.30      0.00
   -3    1   15      0.04      0.00
   -2    1   15      0.05      0.00
   -1    1   15      0.34      0.00
    0    1   15     -0.56      0.00
    1    1   15      0.30      0.00
    2    1   15     -0.40      0.00
    3    1   15     -0.40      0.00
    4    1   15     -0.22      0.00
    5    1   15     -0.89      0.00
    6    1   15     -0.09      0.00
    7    1   15      0.33      0.00
    8    1   15     -0.19      0.00
    9    1   15     -1.15      0.00
   10    1   15     -0.83      0.00
   -7    2   15      0.22      0.00
   -6    2   15      0.47      0.00
   -5    2   15      0.68      0.00
   -4    2   15      0.24      0.00
   -3    2   15     -0.53      0.00
   -2    2   15     -0.07      0.00
   -1    2   15      0.69      0.00
    0    2   15     -0.27      0.00
    1    2   15     -0.02      0.00
    2    2   15      0.01      0.00
    3    2   15     -0.19      0.00
    4    2   15     -0.07      0.00
    5    2   15     -0.44      0.00
    6    2   15     -0.53      0.00
    7    2   15      0.29      0.00
    8    2   15      0.45      0.00
    9    2   15     -0.59      0.00
   10    2   15     -1.15      0.00
   11    2   15     -0.18      0.00
   -7    3   15      0.20      0.00
   -6    3   15      0.14      0.00
   -5    3   15     -0.08      0.00
   -4    3   15      0.63      0.00
   -3    3   15     -0.03      0.00
   -2    3   15     -0.54      0.00
   -1    3   15      0.00      0.00
    0    3   15     -0.25      0.00
    1    3   15     -0.24      0.00
    2    3   15     -0.32      0.00
    3    3   15      0.61      0.00
    4    3   15      0.31      0.00
    5    3   15      0.18      0.00
    6    3   15     -0.11      0.00
    7    3   15      1.02      0.00
    8    3   15      0.51      0.00
    9    3   15     -0.60      0.00
   10    3   15     -0.63      0.00
   11    3   15     -0.81      0.00
   -7    4   15     -0.48      0.00
   -6    4   15      0.18      0.00
   -5    4   15      0.42      0.00
   -4    4   15      0.58      0.00
   -3    4   15      0.23      0.00
   -2    4   15     -0.49      0.00
   -1    4   15     -0.11      0.00
    0    4   15     -0.32      0.00
    1    4   15      0.56      0.00
    2    4   15     -0.05      0.00
    3    4   15      0.23      0.00
    4    4   15     -0.06      0.00
    5    4   15      0.26      0.00
    6    4   15     -0.54      0.00
    7    4   15      0.36      0.00
    8    4   15      0.93      0.00
    9    4   15     -0.43      0.00
   10    4   15     -0.01      0.00
   11    4   15     -0.21      0.00
   -7    5   15     -0.81      0.00
   -6    5   15     -0.86      0.00
   -5    5   15      0.16      0.00
   -4    5   15      0.72      0.00
   -3    5   15      0.51      0.00
   -2    5   15     -0.66      0.00
   -1    5   15     -0.29      0.00
    0    5   15     -0.19      0.00
    1    5   15      0.56      0.00
    2    5   15      0.68      0.00
    3    5   15      0.37      0.00
    4    5   15     -1.00      0.00
    5    5   15     -0.37      0.00
    6    5   15     -0.54      0.00
    7    5   15     -0.64      0.00
    8    5   15      0.65      0.00
    9    5   15      0.12      0.00
   10    5   15     -0.03      0.00
   11    5   15     -0.22      0.00
   -6    6   15      0.04      0.00
   -5    6   15      0.49      0.00
   -4    6   15      0.54      0.00
   -3    6   15      0.47      0.00
   -2    6   15      0.44      0.00
   -1    6   15      0.22      0.00
    0    6   15      0.12      0.00
    1    6   15     -0.22      0.00
    2    6   15      0.09      0.00
    3    6   15      0.86      0.00
    4    6   15     -0.74      0.00
    5    6   15     -0.33      0.00
    6    6   15      0.41      0.00
    7    6   15      0.10      0.00
    8    6   15      0.67      0.00
    9    6   15      0.73      0.00
   10    6   15      0.22      0.00
   11    6   15     -0.46      0.00
   12    6   15      0.15      0.00
   -6    7   15     -0.07      0.00
   -5    7   15      0.87      0.00
   -4    7   15      0.76      0.00
   -3    7   15     -0.66      0.00
   -2    7   15     -0.24      0.00
   -1    7   15      0.12      0.00
    0    7   15      0.87      0.00
    1    7   15      0.22      0.00
    2    7   15     -0.68      0.00
    3    7   15     -0.01      0.00
    4    7   15     -0.93      0.00
    5    7   15      0.03      0.00
    6    7   15      0.91      0.00
    7    7   15      0.46      0.00
    8    7   15     -0.07      0.00
    9    7   15      0.08      0.00
   10    7   15      0.65      0.00
   11    7   15     -0.83      0.00
   12    7   15      0.19      0.00
   -6    8   15     -0.90      0.00
   -5    8   15      0.20      0.00
   -4    8   15      0.74      0.00
   -3    8   15     -0.71      0.00
   -2    8   15     -0.42      0.00
   -1    8   15     -0.83      0.00
    0    8   15     -0.39      0.00
    1    8   15      0.19      0.00
    2    8   15      0.22      0.00
    3    8   15      0.23      0.00
    4    8   15     -1.36      0.00
    5    8   15      0.23      0.00
    6    8   15      1.74      0.00
    7    8   15      1.20      0.00
    8    8   15     -0.29      0.00
    9    8   15     -1.12      0.00
   10    8   15      0.24      0.00
   11    8   15     -0.41      0.00
   12    8   15      0.43      0.00
   -5    9   15     -0.06      0.00
   -4    9   15     -0.03      0.00
   -3    9   15     -0.65      0.00
   -2    9   15      0.64      0.00
   -1    9   15      0.74      0.00
    0    9   15     -0.25      0.00
    1    9   15     -1.12      0.00
    2    9   15     -0.16      0.00
    3    9   15      0.62      0.00
    4    9   15     -0.82      0.00
    5    9   15     -0.51      0.00
    6    9   15      0.95      0.00
    7    9   15      1.36      0.00
    8    9   15      0.64      0.00
    9    9   15     -0.03      0.00
   10    9   15      0.81      0.00
   11    9   15     -0.13      0.00
   12    9   15      0.79      0.00
   -5   10   15      0.78      0.00
   -4   10   15     -0.20      0.00
   -3   10   15     -0.79      0.00
   -2   10   15      0.07      0.00
   -1   10   15      0.51      0.00
    0   10   15      0.22      0.00
    1   10   15     -1.36      0.00
    2   10   15     -0.49      0.00
    3   10   15     -0.23      0.00
    4   10   15     -0.45      0.00
    5   10   15     -0.56      0.00
    6   10   15     -0.01      0.00
    7   10   15      0.17      0.00
    8   10   15      0.56      0.00
    9   10   15     -0.21      0.00
   10   10   15      0.84      0.00
   11   10   15     -0.19      0.00
   12   10   15      0.34      0.00
   -4   11   15      0.00      0.00
   -3   11   15     -0.07      0.00
   -2   11   15      0.40      0.00
   -1   11   15      0.47      0.00
    0   11   15      0.51      0.00
    1   11   15     -0.64      0.00
    2   11   15      0.53      0.00
    3   11   15     -0.27      0.00
    4   11   15     -0.93      0.00
    5   11   15     -0.68      0.00
    6   11   15      0.80      0.00
    7   11   15      0.06      0.00
    8   11   15      0.65      0.00
    9   11   15      0.31      0.00
   10   11   15      0.52      0.00
   11   11   15      0.01      0.00
   12   11   15      0.21      0.00
   -3   12   15     -0.04      0.00
   -2   12   15     -0.39      0.00
   -1   12   15      0.04      0.00
    0   12   15      0.64      0.00
    1   12   15     -0.30      0.00
    2   12   15      0.67      0.00
    3   12   15      0.08      0.00
    4   12   15     -1.29      0.00
    5   12   15     -1.84      0.00
    6   12   15     -0.06      0.00
    7   12   15      0.14      0.00
    8   12   15      0.07      0.00
    9   12   15      0.06      0.00
   10   12   15     -0.05      0.00
   11   12   15      0.07      0.00
   12   12   15      1.10      0.00
   -2   13   15     -0.18      0.00
   -1   13   15     -0.67      0.00
    0   13   15      0.05      0.00
    1   13   15     -0.69      0.00
    2   13   15     -0.27      0.00
    3   13   15     -0.29      0.00
    4   13   15     -0.62      0.00
    5   13   15     -0.60      0.00
    6   13   15     -0.46      0.00
    7   13   15     -0.70      0.00
    8   13   15     -0.22      0.00
    9   13   15      0.16      0.00
   10   13   15     -0.79      0.00
   11   13   15     -0.94      0.00
   -2   14   15      0.31      0.00
   -1   14   15     -0.15      0.00
    0   14   15      0.25      0.00
    1   14   15     -0.29      0.00
    2   14   15      0.50      0.00
    3   14   15      0.14      0.00
    4   14   15     -0.49      0.00
    5   14   15     -0.03      0.00
    6   14   15      0.13      0.00
    7   14   15     -0.53      0.00
    8   14   15     -0.38      0.00
    9   14   15      0.94      0.00
   10   14   15      0.22      0.00
   11   14   15     -0.88      0.00
   -1   15   15     -0.22      0.00
    0   15   15      0.03      0.00
    1   15   15     -0.40      0.00
    2   15   15      1.09      0.00
    3   15   15      1.00      0.00
    4   15   15     -0.26      0.00
    5   15   15     -0.82      0.00
    6   15   15     -0.91      0.00
    7   15   15     -0.35      0.00
    8   15   15     -1.11      0.00
    9   15   15      0.13      0.00
   10   15   15      0.77      0.00
    1   16   15     -0.97      0.00
    2   16   15      0.04      0.00
    3   16   15      0.33      0.00
    4   16   15     -0.06      0.00
    5   16   15     -0.89      0.00
    6   16   15     -2.10      0.00
    7   16   15      0.77      0.00
    8   16   15     -0.22      0.00
    9   16   15     -0.50      0.00
    3   17   15     -0.97      0.00
    4   17   15     -0.50      0.00
    5   17   15      0.31      0.00
    6   17   15     -2.39      0.00
    7   17   15     -0.16      0.00
    8   17   15      0.15      0.00
   -1   -7   16     -1.06      0.00
    0   -7   16      0.01      0.00
    1   -7   16     -0.15      0.00
   -3   -6   16     -1.24      0.00
   -2   -6   16     -0.11      0.00
   -1   -6   16      0.29      0.00
    0   -6   16      0.67      0.00
    1   -6   16     -0.07      0.00
    2   -6   16     -1.34      0.00
    3   -6   16     -0.51      0.00
   -4   -5   16     -0.05      0.00
   -3   -5   16     -0.94      0.00
   -2   -5   16     -0.35      0.00
   -1   -5   16      0.04      0.00
    0   -5   16      0.47      0.00
    1   -5   16      0.48      0.00
    2   -5   16     -0.09      0.00
    3   -5   16      0.40      0.00
    4   -5   16      0.50      0.00
    5   -5   16      0.88      0.00
   -5   -4   16      1.16      0.00
   -4   -4   16      0.08      0.00
   -3   -4   16     -0.39      0.00
   -2   -4   16      0.24      0.00
   -1   -4   16      1.25      0.00
    0   -4   16      0.47      0.00
    1   -4   16     -0.24      0.00
    2   -4   16     -0.06      0.00
    3   -4   16      0.15      0.00
    4   -4   16      0.67      0.00
    5   -4   16     -0.08      0.00
    6   -4   16      0.19      0.00
   -6   -3   16     -0.25      0.00
   -5   -3   16      1.46      0.00
   -4   -3   16      0.13      0.00
   -3   -3   16     -0.31      0.00
   -2   -3   16     -0.57      0.00
   -1   -3   16      0.83      0.00
    0   -3   16      0.85      0.00
    1   -3   16     -0.48      0.00
    2   -3   16      0.31      0.00
    3   -3   16     -0.45      0.00
    4   -3   16      0.90      0.00
    5   -3   16      0.23      0.00
    6   -3   16     -0.28      0.00
    7   -3   16      0.14      0.00
   -6   -2   16     -1.07      0.00
   -5   -2   16      0.71      0.00
   -4   -2   16      0.34      0.00
   -3   -2   16     -0.41      0.00
   -2   -2   16     -0.59      0.00
   -1   -2   16     -0.24      0.00
    0   -2   16      0.40      0.00
    1   -2   16     -1.00      0.00
    2   -2   16     -0.27      0.00
    3   -2   16     -0.54      0.00
    4   -2   16      0.82      0.00
    5   -2   16      0.86      0.00
    6   -2   16      0.26      0.00
    7   -2   16     -0.02      0.00
    8   -2   16      0.64      0.00
   -6   -1   16     -1.22      0.00
   -5   -1   16     -0.80      0.00
   -4   -1   16      0.31      0.00
   -3   -1   16     -0.14      0.00
   -2   -1   16      0.39      0.00
   -1   -1   16     -0.24      0.00
    0   -1   16      0.35      0.00
    1   -1   16     -0.30      0.00
    2   -1   16      0.17      0.00
    3   -1   16     -0.58      0.00
    4   -1   16     -0.11      0.00
    5   -1   16      0.68      0.00
    6   -1   16      0.78      0.00
    7   -1   16      0.04      0.00
    8   -1   16     -0.25      0.00
   -6    0   16      0.08      0.00
   -5    0   16     -0.25      0.00
   -4    0   16      0.64      0.00
   -3    0   16     -0.45      0.00
   -2    0   16      0.25      0.00
   -1    0   16     -0.47      0.00
    0    0   16      0.03      0.00
    1    0   16     -0.35      0.00
    2    0   16      0.50      0.00
    3    0   16      0.36      0.00
    4    0   16     -0.44      0.00
    5    0   16      0.28      0.00
    6    0   16      0.42      0.00
    7    0   16      0.36      0.00
    8    0   16     -0.22      0.00
    9    0   16      0.86      0.00
   -6    1   16     -0.01      0.00
   -5    1   16      0.16      0.00
   -4    1   16      1.18      0.00
   -3    1   16     -0.18      0.00
   -2    1   16     -0.19      0.00
   -1    1   16     -0.54      0.00
    0    1   16     -0.14      0.00
    1    1   16     -0.46      0.00
    2    1   16     -0.68      0.00
    3    1   16      0.40      0.00
    4    1   16      0.01      0.00
    5    1   16      0.44      0.00
    6    1   16      0.41      0.00
    7    1   16     -0.08      0.00
    8    1   16     -1.00      0.00
    9    1   16      0.71      0.00
   -6    2   16     -0.04      0.00
   -5    2   16      0.01      0.00
   -4    2   16      0.44      0.00
   -3    2   16     -0.59      0.00
   -2    2   16     -0.65      0.00
   -1    2   16     -0.16      0.00
    0    2   16      0.46      0.00
    1    2   16      0.72      0.00
    2    2   16     -0.85      0.00
    3    2   16     -0.65      0.00
    4    2   16      0.15      0.00
    5    2   16      0.30      0.00
    6    2   16      0.48      0.00
    7    2   16      0.24      0.00
    8    2   16     -0.89      0.00
    9    2   16     -0.70      0.00
   10    2   16      0.22      0.00
   -6    3   16      0.17      0.00
   -5    3   16      0.68      0.00
   -4    3   16      1.09      0.00
   -3    3   16     -0.38      0.00
   -2    3   16     -0.72      0.00
   -1    3   16     -0.62      0.00
    0    3   16     -0.02      0.00
    1    3   16      0.47      0.00
    2    3   16      0.00      0.00
    3    3   16     -0.21      0.00
    4    3   16      0.27      0.00
    5    3   16      0.04      0.00
    6    3   16      0.43      0.00
    7    3   16      0.62      0.00
    8    3   16     -0.35      0.00
    9    3   16     -0.88      0.00
   10    3   16     -0.76      0.00
   -6    4   16      0.16      0.00
   -5    4   16      0.29      0.00
   -4    4   16      0.99      0.00
   -3    4   16     -0.23      0.00
   -2    4   16     -0.11      0.00
   -1    4   16     -0.65      0.00
    0    4   16     -0.07      0.00
    1    4   16      0.28      0.00
    2    4   16     -0.71      0.00
    3    4   16     -0.02      0.00
    4    4   16      1.06      0.00
    5    4   16      0.31      0.00
    6    4   16      0.23      0.00
    7    4   16      1.08      0.00
    8    4   16     -0.25      0.00
    9    4   16     -0.50      0.00
   10    4   16     -0.15      0.00
   11    4   16     -0.68      0.00
   -6    5   16      0.05      0.00
   -5    5   16      0.65      0.00
   -4    5   16      1.01      0.00
   -3    5   16     -0.32      0.00
   -2    5   16     -0.33      0.00
   -1    5   16     -0.65      0.00
    0    5   16     -0.34      0.00
    1    5   16      1.20      0.00
    2    5   16     -0.27      0.00
    3    5   16     -0.91      0.00
    4    5   16      0.08      0.00
    5    5   16      0.08      0.00
    6    5   16     -0.35      0.00
    7    5   16      1.15      0.00
    8    5   16      0.29      0.00
    9    5   16     -0.43      0.00
   10    5   16      0.60      0.00
   11    5   16     -0.11      0.00
   -6    6   16     -0.35      0.00
   -5    6   16      0.20      0.00
   -4    6   16      0.25      0.00
   -3    6   16      0.19      0.00
   -2    6   16      0.14      0.00
   -1    6   16     -0.42      0.00
    0    6   16     -0.66      0.00
    1    6   16      0.87      0.00
    2    6   16      0.45      0.00
    3    6   16     -0.37      0.00
    4    6   16     -0.98      0.00
    5    6   16     -0.75      0.00
    6    6   16     -0.90      0.00
    7    6   16      0.56      0.00
    8    6   16      0.90      0.00
    9    6   16      0.27      0.00
   10    6   16      0.53      0.00
   11    6   16     -0.10      0.00
   -5    7   16      0.96      0.00
   -4    7   16     -0.30      0.00
   -3    7   16     -0.47      0.00
   -2    7   16      0.48      0.00
   -1    7   16      0.12      0.00
    0    7   16     -0.20      0.00
    1    7   16      0.10      0.00
    2    7   16     -0.33      0.00
    3    7   16     -0.04      0.00
    4    7   16     -0.61      0.00
    5    7   16     -0.48      0.00
    6    7   16     -0.09      0.00
    7    7   16      0.68      0.00
    8    7   16      0.39      0.00
    9    7   16      0.33      0.00
   10    7   16      0.17      0.00
   11    7   16     -0.77      0.00
   -5    8   16      1.08      0.00
   -4    8   16     -0.32      0.00
   -3    8   16     -1.46      0.00
   -2    8   16     -0.47      0.00
   -1    8   16     -0.54      0.00
    0    8   16      0.14      0.00
    1    8   16      0.40      0.00
    2    8   16     -0.29      0.00
    3    8   16     -0.59      0.00
    4    8   16     -0.85      0.00
    5    8   16      0.09      0.00
    6    8   16      0.72      0.00
    7    8   16      1.06      0.00
    8    8   16     -0.29      0.00
    9    8   16     -0.56      0.00
   10    8   16     -0.03      0.00
   11    8   16     -1.07      0.00
   -4    9   16      0.02      0.00
   -3    9   16     -1.15      0.00
   -2    9   16     -0.07      0.00
   -1    9   16     -0.64      0.00
    0    9   16     -0.37      0.00
    1    9   16     -0.08      0.00
    2    9   16      0.47      0.00
    3    9   16      0.44      0.00
    4    9   16     -1.15      0.00
    5    9   16     -0.09      0.00
    6    9   16      1.01      0.00
    7    9   16      1.13      0.00
    8    9   16     -0.62      0.00
    9    9   16     -0.80      0.00
   10    9   16     -0.19      0.00
   11    9   16     -0.78      0.00
   -4   10   16     -0.18      0.00
   -3   10   16     -0.89      0.00
   -2   10   16      0.54      0.00
   -1   10   16      0.41      0.00
    0   10   16      0.18      0.00
    1   10   16     -0.51      0.00
    2   10   16     -0.05      0.00
    3   10   16      1.50      0.00
    4   10   16      0.18      0.00
    5   10   16     -0.83      0.00
    6   10   16     -0.03      0.00
    7   10   16      1.44      0.00
    8   10   16      0.01      0.00
    9   10   16     -0.02      0.00
   10   10   16      1.12      0.00
   11   10   16      0.17      0.00
   -3   11   16     -0.16      0.00
   -2   11   16      0.49      0.00
   -1   11   16     -0.09      0.00
    0   11   16     -0.09      0.00
    1   11   16     -0.33      0.00
    2   11   16     -0.85      0.00
    3   11   16     -0.14      0.00
    4   11   16      1.20      0.00
    5   11   16     -0.51      0.00
    6   11   16     -1.52      0.00
    7   11   16      0.10      0.00
    8   11   16      0.37      0.00
    9   11   16     -0.45      0.00
   10   11   16      0.97      0.00
   11   11   16      0.15      0.00
   -3   12   16      0.06      0.00
   -2   12   16      0.74      0.00
   -1   12   16      0.32      0.00
    0   12   16     -0.19      0.00
    1   12   16      0.44      0.00
    2   12   16      0.32      0.00
    3   12   16     -1.40      0.00
    4   12   16      0.45      0.00
    5   12   16     -0.06      0.00
    6   12   16     -0.50      0.00
    7   12   16     -0.07      0.00
    8   12   16      0.44      0.00
    9   12   16     -0.64      0.00
   10   12   16      0.70      0.00
   11   12   16      0.20      0.00
   -2   13   16     -0.39      0.00
   -1   13   16     -0.01      0.00
    0   13   16     -0.64      0.00
    1   13   16     -0.28      0.00
    2   13   16      0.07      0.00
    3   13   16     -1.52      0.00
    4   13   16     -0.08      0.00
    5   13   16     -0.41      0.00
    6   13   16     -0.51      0.00
    7   13   16     -0.23      0.00
    8   13   16      0.62      0.00
    9   13   16     -0.60      0.00
   10   13   16     -0.27      0.00
   11   13   16      0.16      0.00
   -1   14   16     -0.35      0.00
    0   14   16     -0.78      0.00
    1   14   16     -0.69      0.00
    2   14   16     -0.63      0.00
    3   14   16     -1.39      0.00
    4   14   16     -0.09      0.00
    5   14   16      0.31      0.00
    6   14   16      0.38      0.00
    7   14   16     -0.95      0.00
    8   14   16     -0.09      0.00
    9   14   16      0.22      0.00
   10   14   16     -0.75      0.00
    0   15   16     -0.55      0.00
    1   15   16     -0.41      0.00
    2   15   16     -0.20      0.00
    3   15   16     -0.24      0.00
    4   15   16      0.18      0.00
    5   15   16      0.07      0.00
    6   15   16      0.93      0.00
    7   15   16     -0.72      0.00
    8   15   16     -0.32      0.00
    9   15   16      1.12      0.00
    2   16   16      0.08      0.00
    3   16   16      0.10      0.00
    4   16   16      0.02      0.00
    5   16   16     -0.96      0.00
    6   16   16      0.25      0.00
    7   16   16     -0.82      0.00
    8   16   16     -1.30      0.00
    5   17   16     -0.70      0.00
    6   17   16     -0.63      0.00
   -2   -5   17      0.48      0.00
   -1   -5   17      1.24      0.00
    0   -5   17      2.00      0.00
    1   -5   17     -0.02      0.00
    2   -5   17     -0.50      0.00
    3   -5   17      0.22      0.00
   -3   -4   17     -0.29      0.00
   -2   -4   17      0.82      0.00
   -1   -4   17      0.57      0.00
    0   -4   17      1.66      0.00
    1   -4   17      0.83      0.00
    2   -4   17      0.41      0.00
    3   -4   17      1.68      0.00
    4   -4   17      0.30      0.00
   -4   -3   17      0.00      0.00
   -3   -3   17     -0.06      0.00
   -2   -3   17      0.91      0.00
   -1   -3   17      1.09      0.00
    0   -3   17      0.89      0.00
    1   -3   17      0.21      0.00
    2   -3   17      0.07      0.00
    3   -3   17      1.01      0.00
    4   -3   17      0.77      0.00
    5   -3   17     -0.30      0.00
    6   -3   17      0.15      0.00
   -5   -2   17      0.82      0.00
   -4   -2   17     -0.01      0.00
   -3   -2   17     -0.16      0.00
   -2   -2   17     -0.44      0.00
   -1   -2   17      0.78      0.00
    0   -2   17      0.89      0.00
    1   -2   17     -0.35      0.00
    2   -2   17      0.19      0.00
    3   -2   17      0.26      0.00
    4   -2   17      1.01      0.00
    5   -2   17     -0.23      0.00
    6   -2   17     -0.07      0.00
    7   -2   17      0.04      0.00
   -5   -1   17      0.28      0.00
   -4   -1   17     -0.13      0.00
   -3   -1   17      0.08      0.00
   -2   -1   17     -0.99      0.00
   -1   -1   17     -0.51      0.00
    0   -1   17      0.30      0.00
    1   -1   17     -0.50      0.00
    2   -1   17     -0.31      0.00
    3   -1   17     -0.53      0.00
    4   -1   17      0.85      0.00
    5   -1   17      0.11      0.00
    6   -1   17      0.09      0.00
    7   -1   17     -0.29      0.00
   -5    0   17     -0.38      0.00
   -4    0   17     -0.66      0.00
   -3    0   17     -0.13      0.00
   -2    0   17     -0.01      0.00
   -1    0   17      0.05      0.00
    0    0   17      0.47      0.00
    1    0   17      0.29      0.00
    2    0   17      0.77      0.00
    3    0   17     -0.59      0.00
    4    0   17      0.24      0.00
    5    0   17     -0.04      0.00
    6    0   17      0.69      0.00
    7    0   17     -0.09      0.00
    8    0   17      0.50      0.00
   -5    1   17      0.31      0.00
   -4    1   17     -0.04      0.00
   -3    1   17     -0.60      0.00
   -2    1   17     -0.32      0.00
   -1    1   17     -0.71      0.00
    0    1   17      0.07      0.00
    1    1   17     -0.08      0.00
    2    1   17      1.32      0.00
    3    1   17      0.18      0.00
    4    1   17      0.00      0.00
    5    1   17     -0.29      0.00
    6    1   17      0.22      0.00
    7    1   17      0.14      0.00
    8    1   17      0.62      0.00
    9    1   17      1.92      0.00
   -5    2   17      0.35      0.00
   -4    2   17      0.44      0.00
   -3    2   17     -0.36      0.00
   -2    2   17      0.17      0.00
   -1    2   17     -0.17      0.00
    0    2   17      0.24      0.00
    1    2   17     -0.56      0.00
    2    2   17     -0.14      0.00
    3    2   17      0.21      0.00
    4    2   17      0.64      0.00
    5    2   17      0.53      0.00
    6    2   17     -0.09      0.00
    7    2   17     -0.63      0.00
    8    2   17     -0.76      0.00
    9    2   17      2.17      0.00
   -5    3   17      0.34      0.00
   -4    3   17      0.16      0.00
   -3    3   17     -0.58      0.00
   -2    3   17     -0.69      0.00
   -1    3   17     -0.01      0.00
    0    3   17      0.99      0.00
    1    3   17      0.60      0.00
    2    3   17     -0.29      0.00
    3    3   17     -0.94      0.00
    4    3   17     -0.15      0.00
    5    3   17      0.80      0.00
    6    3   17      0.53      0.00
    7    3   17     -0.46      0.00
    8    3   17     -1.72      0.00
    9    3   17      0.35      0.00
   10    3   17      0.54      0.00
   -5    4   17      0.61      0.00
   -4    4   17      0.58      0.00
   -3    4   17      0.42      0.00
   -2    4   17     -0.30      0.00
   -1    4   17     -0.60      0.00
    0    4   17      0.18      0.00
    1    4   17     -0.16      0.00
    2    4   17      0.10      0.00
    3    4   17      0.17      0.00
    4    4   17      0.03      0.00
    5    4   17     -0.10      0.00
    6    4   17      0.59      0.00
    7    4   17      0.16      0.00
    8    4   17     -0.84      0.00
    9    4   17      0.17      0.00
   10    4   17     -0.46      0.00
   -5    5   17      0.50      0.00
   -4    5   17      0.31      0.00
   -3    5   17     -0.06      0.00
   -2    5   17      0.03      0.00
   -1    5   17     -0.20      0.00
    0    5   17      0.25      0.00
    1    5   17     -0.37      0.00
    2    5   17     -0.85      0.00
    3    5   17     -0.04      0.00
    4    5   17      1.14      0.00
    5    5   17     -0.02      0.00
    6    5   17      0.43      0.00
    7    5   17     -0.04      0.00
    8    5   17     -1.15      0.00
    9    5   17      0.68      0.00
   10    5   17      0.09      0.00
   -5    6   17      0.14      0.00
   -4    6   17      0.45      0.00
   -3    6   17     -0.07      0.00
   -2    6   17     -0.64      0.00
   -1    6   17     -0.39      0.00
    0    6   17     -0.14      0.00
    1    6   17      0.15      0.00
    2    6   17     -0.25      0.00
    3    6   17     -0.73      0.00
    4    6   17      0.20      0.00
    5    6   17     -0.44      0.00
    6    6   17      0.33      0.00
    7    6   17      0.86      0.00
    8    6   17     -0.42      0.00
    9    6   17      0.64      0.00
   10    6   17      0.71      0.00
   -4    7   17     -0.35      0.00
   -3    7   17     -0.01      0.00
   -2    7   17     -0.44      0.00
   -1    7   17      0.17      0.00
    0    7   17      0.02      0.00
    1    7   17      0.06      0.00
    2    7   17      0.01      0.00
    3    7   17      0.06      0.00
    4    7   17     -0.47      0.00
    5    7   17     -1.31      0.00
    6    7   17     -0.75      0.00
    7    7   17      0.34      0.00
    8    7   17      0.36      0.00
    9    7   17      1.08      0.00
   10    7   17      0.79      0.00
   11    7   17     -0.09      0.00
   -4    8   17     -0.44      0.00
   -3    8   17     -0.43      0.00
   -2    8   17     -0.90      0.00
   -1    8   17      0.07      0.00
    0    8   17      0.36      0.00
    1    8   17      0.31      0.00
    2    8   17     -0.67      0.00
    3    8   17      0.08      0.00
    4    8   17     -0.13      0.00
    5    8   17     -0.93      0.00
    6    8   17     -0.28      0.00
    7    8   17     -0.07      0.00
    8    8   17     -0.61      0.00
    9    8   17     -0.09      0.00
   10    8   17      0.29      0.00
   11    8   17     -0.70      0.00
   -4    9   17     -0.35      0.00
   -3    9   17     -0.62      0.00
   -2    9   17     -1.19      0.00
   -1    9   17     -0.42      0.00
    0    9   17      0.16      0.00
    1    9   17      0.64      0.00
    2    9   17     -0.25      0.00
    3    9   17     -0.28      0.00
    4    9   17     -0.28      0.00
    5    9   17     -0.87      0.00
    6    9   17     -0.07      0.00
    7    9   17     -0.04      0.00
    8    9   17     -0.81      0.00
    9    9   17     -1.00      0.00
   10    9   17     -0.49      0.00
   11    9   17     -0.71      0.00
   -3   10   17     -0.05      0.00
   -2   10   17     -0.04      0.00
   -1   10   17      0.18      0.00
    0   10   17      0.17      0.00
    1   10   17      0.21      0.00
    2   10   17      0.52      0.00
    3   10   17      0.76      0.00
    4   10   17     -0.25      0.00
    5   10   17     -0.71      0.00
    6   10   17     -0.13      0.00
    7   10   17     -0.39      0.00
    8   10   17     -1.37      0.00
    9   10   17     -0.57      0.00
   10   10   17     -0.32      0.00
   11   10   17     -0.64      0.00
   -2   11   17      0.20      0.00
   -1   11   17      0.41      0.00
    0   11   17      0.73      0.00
    1   11   17     -0.07      0.00
    2   11   17     -0.07      0.00
    3   11   17      2.32      0.00
    4   11   17      1.10      0.00
    5   11   17     -0.73      0.00
    6   11   17     -0.61      0.00
    7   11   17      0.47      0.00
    8   11   17     -0.38      0.00
    9   11   17      0.27      0.00
   10   11   17      0.94      0.00
   11   11   17      0.52      0.00
   -2   12   17      0.52      0.00
   -1   12   17     -0.53      0.00
    0   12   17      0.31      0.00
    1   12   17      0.36      0.00
    2   12   17     -1.52      0.00
    3   12   17      0.82      0.00
    4   12   17      1.95      0.00
    5   12   17     -0.63      0.00
    6   12   17     -1.86      0.00
    7   12   17     -0.88      0.00
    8   12   17     -0.62      0.00
    9   12   17     -0.13      0.00
   10   12   17      0.85      0.00
   -1   13   17     -0.49      0.00
    0   13   17     -0.23      0.00
    1   13   17      1.04      0.00
    2   13   17     -0.92      0.00
    3   13   17     -0.47      0.00
    4   13   17      2.32      0.00
    5   13   17      0.15      0.00
    6   13   17     -1.18      0.00
    7   13   17     -0.40      0.00
    8   13   17     -0.37      0.00
    9   13   17     -1.18      0.00
   10   13   17      0.68      0.00
    0   14   17     -0.77      0.00
    1   14   17      0.17      0.00
    2   14   17     -1.22      0.00
    3   14   17     -1.63      0.00
    4   14   17      1.61      0.00
    5   14   17      0.95      0.00
    6   14   17     -0.66      0.00
    7   14   17     -0.76      0.00
    8   14   17      0.41      0.00
    9   14   17     -0.97      0.00
    2   15   17     -0.84      0.00
    3   15   17     -0.92      0.00
    4   15   17      0.65      0.00
    5   15   17      1.01      0.00
    6   15   17      0.77      0.00
    7   15   17     -0.83      0.00
    8   15   17     -0.08      0.00
    4   16   17      0.47      0.00
    5   16   17      0.49      0.00
    6   16   17      1.27      0.00
    7   16   17     -0.45      0.00
   -1   -4   18      1.66      0.00
    0   -4   18      1.78      0.00
    1   -4   18      0.57      0.00
    2   -4   18      0.14      0.00
   -2   -3   18      0.20      0.00
   -1   -3   18      0.12      0.00
    0   -3   18      1.42      0.00
    1   -3   18      1.11      0.00
    2   -3   18      0.56      0.00
    3   -3   18      1.14      0.00
    4   -3   18     -0.63      0.00
   -3   -2   18      0.25      0.00
   -2   -2   18      0.54      0.00
   -1   -2   18      0.04      0.00
    0   -2   18      0.75      0.00
    1   -2   18      0.63      0.00
    2   -2   18      0.30      0.00
    3   -2   18      1.00      0.00
    4   -2   18     -0.37      0.00
    5   -2   18     -0.35      0.00
   -4   -1   18      0.41      0.00
   -3   -1   18     -0.20      0.00
   -2   -1   18     -0.70      0.00
   -1   -1   18     -0.11      0.00
    0   -1   18      1.30      0.00
    1   -1   18      0.32      0.00
    2   -1   18     -0.08      0.00
    3   -1   18      0.59      0.00
    4   -1   18      0.29      0.00
    5   -1   18     -0.41      0.00
    6   -1   18     -0.42      0.00
   -4    0   18     -0.25      0.00
   -3    0   18      0.08      0.00
   -2    0   18     -0.83      0.00
   -1    0   18     -0.58      0.00
    0    0   18      0.84      0.00
    1    0   18      0.45      0.00
    2    0   18     -0.48      0.00
    3    0   18     -0.21      0.00
    4    0   18      0.22      0.00
    5    0   18     -0.41      0.00
    6    0   18     -0.38      0.00
    7    0   18     -0.08      0.00
   -4    1   18     -0.70      0.00
   -3    1   18     -0.09      0.00
   -2    1   18     -0.47      0.00
   -1    1   18      0.23      0.00
    0    1   18      1.11      0.00
    1    1   18      1.10      0.00
    2    1   18      0.28      0.00
    3    1   18     -0.68      0.00
    4    1   18     -0.14      0.00
    5    1   18     -0.64      0.00
    6    1   18      0.43      0.00
    7    1   18      0.11      0.00
    8    1   18      0.64      0.00
   -4    2   18     -0.21      0.00
   -3    2   18      0.02      0.00
   -2    2   18     -0.34      0.00
   -1    2   18     -0.77      0.00
    0    2   18     -0.15      0.00
    1    2   18      0.38      0.00
    2    2   18      0.78      0.00
    3    2   18     -0.42      0.00
    4    2   18     -0.35      0.00
    5    2   18     -1.21      0.00
    6    2   18      0.11      0.00
    7    2   18      0.27      0.00
    8    2   18      1.27      0.00
   -4    3   18      0.13      0.00
   -3    3   18      0.01      0.00
   -2    3   18      0.55      0.00
   -1    3   18      0.30      0.00
    0    3   18     -0.14      0.00
    1    3   18     -0.14      0.00
    2    3   18     -0.10      0.00
    3    3   18     -0.87      0.00
    4    3   18      0.56      0.00
    5    3   18      0.39      0.00
    6    3   18     -0.03      0.00
    7    3   18     -0.73      0.00
    8    3   18      0.04      0.00
    9    3   18      1.86      0.00
   -4    4   18      0.23      0.00
   -3    4   18     -0.03      0.00
   -2    4   18     -0.40      0.00
   -1    4   18      0.11      0.00
    0    4   18      0.13      0.00
    1    4   18      0.37      0.00
    2    4   18      0.51      0.00
    3    4   18     -1.53      0.00
    4    4   18     -0.90      0.00
    5    4   18      0.92      0.00
    6    4   18      0.91      0.00
    7    4   18     -0.11      0.00
    8    4   18     -0.92      0.00
    9    4   18      0.54      0.00
   -4    5   18      0.28      0.00
   -3    5   18      0.73      0.00
   -2    5   18      0.40      0.00
   -1    5   18      0.00      0.00
    0    5   18     -0.48      0.00
    1    5   18     -0.39      0.00
    2    5   18      0.71      0.00
    3    5   18      0.02      0.00
    4    5   18     -0.55      0.00
    5    5   18      0.10      0.00
    6    5   18      0.38      0.00
    7    5   18      0.12      0.00
    8    5   18      0.15      0.00
    9    5   18      0.92      0.00
   -4    6   18      0.28      0.00
   -3    6   18     -0.14      0.00
   -2    6   18      0.09      0.00
   -1    6   18      0.42      0.00
    0    6   18     -0.49      0.00
    1    6   18     -0.35      0.00
    2    6   18      0.18      0.00
    3    6   18     -0.40      0.00
    4    6   18      0.10      0.00
    5    6   18      0.00      0.00
    6    6   18      0.14      0.00
    7    6   18     -1.04      0.00
    8    6   18     -1.05      0.00
    9    6   18      0.96      0.00
   10    6   18     -0.29      0.00
   -3    7   18     -0.29      0.00
   -2    7   18     -0.33      0.00
   -1    7   18      0.61      0.00
    0    7   18     -0.70      0.00
    1    7   18     -0.19      0.00
    2    7   18      0.85      0.00
    3    7   18     -0.60      0.00
    4    7   18     -0.44      0.00
    5    7   18     -0.71      0.00
    6    7   18      0.33      0.00
    7    7   18      0.11      0.00
    8    7   18     -0.60      0.00
    9    7   18      0.92      0.00
   10    7   18      0.01      0.00
   -3    8   18     -0.72      0.00
   -2    8   18     -0.70      0.00
   -1    8   18      1.11      0.00
    0    8   18      0.07      0.00
    1    8   18      0.07      0.00
    2    8   18      0.77      0.00
    3    8   18     -0.18      0.00
    4    8   18     -0.69      0.00
    5    8   18     -1.08      0.00
    6    8   18     -0.84      0.00
    7    8   18     -0.22      0.00
    8    8   18     -0.40      0.00
    9    8   18      1.10      0.00
   10    8   18      0.45      0.00
   -3    9   18     -0.73      0.00
   -2    9   18     -1.17      0.00
   -1    9   18      0.58      0.00
    0    9   18      0.22      0.00
    1    9   18      0.48      0.00
    2    9   18      0.42      0.00
    3    9   18      0.19      0.00
    4    9   18     -1.06      0.00
    5    9   18     -0.69      0.00
    6    9   18     -0.14      0.00
    7    9   18     -0.24      0.00
    8    9   18     -0.91      0.00
    9    9   18     -0.63      0.00
   10    9   18      0.34      0.00
   -2   10   18     -0.90      0.00
   -1   10   18      0.19      0.00
    0   10   18     -0.17      0.00
    1   10   18      0.51      0.00
    2   10   18      0.31      0.00
    3   10   18      0.49      0.00
    4   10   18     -0.93      0.00
    5   10   18     -1.45      0.00
    6   10   18     -0.38      0.00
    7   10   18     -0.80      0.00
    8   10   18     -0.71      0.00
    9   10   18     -1.11      0.00
   10   10   18     -0.52      0.00
   -1   11   18      1.04      0.00
    0   11   18     -0.25      0.00
    1   11   18     -0.03      0.00
    2   11   18      0.91      0.00
    3   11   18      1.15      0.00
    4   11   18     -0.20      0.00
    5   11   18     -0.50      0.00
    6   11   18     -0.06      0.00
    7   11   18     -0.93      0.00
    8   11   18     -1.28      0.00
    9   11   18     -0.67      0.00
   10   11   18     -0.36      0.00
   -1   12   18      0.85      0.00
    0   12   18      0.31      0.00
    1   12   18     -0.61      0.00
    2   12   18      0.58      0.00
    3   12   18      2.15      0.00
    4   12   18      0.12      0.00
    5   12   18      0.50      0.00
    6   12   18      0.16      0.00
    7   12   18     -0.25      0.00
    8   12   18     -0.17      0.00
    9   12   18      0.53      0.00
    0   13   18      0.46      0.00
    1   13   18     -0.31      0.00
    2   13   18     -0.59      0.00
    3   13   18      1.56      0.00
    4   13   18     -0.12      0.00
    5   13   18     -0.31      0.00
    6   13   18     -0.71      0.00
    7   13   18     -1.37      0.00
    8   13   18     -1.37      0.00
    9   13   18      0.05      0.00
    2   14   18     -0.85      0.00
    3   14   18      0.67      0.00
    4   14   18      1.36      0.00
    5   14   18      0.16      0.00
    6   14   18     -0.99      0.00
    7   14   18     -0.48      0.00
    8   14   18     -0.60      0.00
    4   15   18      0.72      0.00
    5   15   18      0.98      0.00
    6   15   18     -0.68      0.00
    7   15   18     -0.69      0.00
    0   -2   19      0.21      0.00
    1   -2   19      1.00      0.00
    2   -2   19      0.48      0.00
    3   -2   19      0.08      0.00
   -2   -1   19      0.32      0.00
   -1   -1   19      0.10      0.00
    0   -1   19      0.45      0.00
    1   -1   19      0.37      0.00
    2   -1   19      0.29      0.00
    3   -1   19      0.56      0.00
    4   -1   19     -0.44      0.00
   -2    0   19     -0.25      0.00
   -1    0   19      0.01      0.00
    0    0   19      1.47      0.00
    1    0   19      0.16      0.00
    2    0   19     -0.46      0.00
    3    0   19      0.30      0.00
    4    0   19     -0.01      0.00
    5    0   19      0.01      0.00
   -3    1   19     -0.24      0.00
   -2    1   19     -0.21      0.00
   -1    1   19      0.22      0.00
    0    1   19      1.39      0.00
    1    1   19      0.09      0.00
    2    1   19     -0.89      0.00
    3    1   19     -0.04      0.00
    4    1   19      0.08      0.00
    5    1   19      0.05      0.00
    6    1   19     -0.44      0.00
   -3    2   19     -0.14      0.00
   -2    2   19     -0.64      0.00
   -1    2   19      0.09      0.00
    0    2   19      1.24      0.00
    1    2   19      0.37      0.00
    2    2   19     -0.62      0.00
    3    2   19     -0.69      0.00
    4    2   19     -0.64      0.00
    5    2   19     -0.18      0.00
    6    2   19      0.71      0.00
    7    2   19      0.35      0.00
   -3    3   19      0.08      0.00
   -2    3   19     -0.23      0.00
   -1    3   19     -0.94      0.00
    0    3   19     -0.27      0.00
    1    3   19      0.09      0.00
    2    3   19     -0.26      0.00
    3    3   19     -0.27      0.00
    4    3   19     -0.37      0.00
    5    3   19     -1.06      0.00
    6    3   19      0.40      0.00
    7    3   19      0.52      0.00
    8    3   19      1.16      0.00
   -3    4   19     -0.25      0.00
   -2    4   19      0.48      0.00
   -1    4   19      0.08      0.00
    0    4   19     -0.35      0.00
    1    4   19      0.43      0.00
    2    4   19     -0.19      0.00
    3    4   19     -0.97      0.00
    4    4   19      0.64      0.00
    5    4   19      0.69      0.00
    6    4   19      0.63      0.00
    7    4   19     -0.48      0.00
    8    4   19      0.27      0.00
   -3    5   19     -0.11      0.00
   -2    5   19      0.02      0.00
   -1    5   19     -0.16      0.00
    0    5   19     -0.11      0.00
    1    5   19      0.77      0.00
    2    5   19      0.84      0.00
    3    5   19     -1.07      0.00
    4    5   19     -0.63      0.00
    5    5   19      0.75      0.00
    6    5   19      1.16      0.00
    7    5   19      0.40      0.00
    8    5   19     -0.22      0.00
   -3    6   19      0.24      0.00
   -2    6   19      0.88      0.00
   -1    6   19     -0.14      0.00
    0    6   19     -0.24      0.00
    1    6   19      0.32      0.00
    2    6   19      0.64      0.00
    3    6   19     -0.41      0.00
    4    6   19     -0.53      0.00
    5    6   19      0.21      0.00
    6    6   19     -0.06      0.00
    7    6   19      0.00      0.00
    8    6   19      0.28      0.00
    9    6   19      0.39      0.00
   -2    7   19      0.77      0.00
   -1    7   19     -0.15      0.00
    0    7   19     -0.60      0.00
    1    7   19      0.18      0.00
    2    7   19      0.36      0.00
    3    7   19     -1.13      0.00
    4    7   19     -1.11      0.00
    5    7   19     -0.20      0.00
    6    7   19     -0.28      0.00
    7    7   19     -1.65      0.00
    8    7   19     -1.49      0.00
    9    7   19     -0.16      0.00
   -2    8   19      0.82      0.00
   -1    8   19      0.46      0.00
    0    8   19     -0.69      0.00
    1    8   19     -0.01      0.00
    2    8   19      0.55      0.00
    3    8   19     -0.89      0.00
    4    8   19     -0.62      0.00
    5    8   19     -0.75      0.00
    6    8   19      0.38      0.00
    7    8   19     -0.54      0.00
    8    8   19     -1.37      0.00
    9    8   19      0.20      0.00
   -1    9   19      0.81      0.00
    0    9   19     -0.20      0.00
    1    9   19      0.28      0.00
    2    9   19      0.73      0.00
    3    9   19     -1.26      0.00
    4    9   19     -0.11      0.00
    5    9   19      0.29      0.00
    6    9   19      0.05      0.00
    7    9   19     -0.04      0.00
    8    9   19     -1.50      0.00
    9    9   19      0.56      0.00
   -1   10   19      0.61      0.00
    0   10   19      0.13      0.00
    1   10   19      0.29      0.00
    2   10   19      1.25      0.00
    3   10   19     -0.39      0.00
    5   10   19      0.93      0.00
    6   10   19      0.89      0.00
    7   10   19      0.69      0.00
    8   10   19     -0.94      0.00
    9   10   19     -0.51      0.00
    0   11   19     -0.21      0.00
    1   11   19      0.17      0.00
    2   11   19      0.84      0.00
    3   11   19      0.37      0.00
    4   11   19     -0.89      0.00
    5   11   19     -0.32      0.00
    6   11   19      0.19      0.00
    7   11   19     -0.53      0.00
    8   11   19     -0.91      0.00
    9   11   19     -0.73      0.00
    1   12   19     -0.10      0.00
    2   12   19      0.95      0.00
    3   12   19      0.13      0.00
    4   12   19      0.14      0.00
    5   12   19      0.92      0.00
    6   12   19      0.58      0.00
    7   12   19     -0.55      0.00
    8   12   19     -0.97      0.00
    2   13   19      1.04      0.00
    3   13   19     -0.23      0.00
    4   13   19     -0.92      0.00
    5   13   19      2.00      0.00
    6   13   19      1.04      0.00
    7   13   19     -0.64      0.00
    4   14   19     -1.92      0.00
    5   14   19      0.38      0.00
    6   14   19      0.31      0.00
    1    0   20      0.18      0.00
    2    0   20      0.03      0.00
    0    1   20      0.76      0.00
    1    1   20      0.03      0.00
    2    1   20     -0.44      0.00
    3    1   20      0.19      0.00
    4    1   20      0.20      0.00
   -1    2   20      0.25      0.00
    0    2   20      0.96      0.00
    1    2   20     -0.07      0.00
    2    2   20     -0.46      0.00
    3    2   20      0.22      0.00
    4    2   20      0.48      0.00
    5    2   20      0.75      0.00
   -1    3   20     -0.36      0.00
    0    3   20      0.70      0.00
    1    3   20     -0.28      0.00
    2    3   20     -0.24      0.00
    3    3   20     -0.11      0.00
    4    3   20     -0.83      0.00
    5    3   20      0.17      0.00
    6    3   20      0.72      0.00
   -1    4   20     -0.88      0.00
    0    4   20      0.00      0.00
    1    4   20      0.02      0.00
    2    4   20     -0.07      0.00
    3    4   20      0.45      0.00
    4    4   20     -0.27      0.00
    5    4   20     -0.59      0.00
    6    4   20      0.18      0.00
    7    4   20      0.29      0.00
   -1    5   20      0.17      0.00
    0    5   20      0.09      0.00
    1    5   20      0.67      0.00
    2    5   20      0.27      0.00
    3    5   20     -0.30      0.00
    4    5   20     -0.05      0.00
    5    5   20      0.46      0.00
    6    5   20      0.54      0.00
    7    5   20     -0.73      0.00
   -1    6   20      0.22      0.00
    0    6   20      0.36      0.00
    1    6   20      0.70      0.00
    2    6   20      0.84      0.00
    3    6   20     -0.01      0.00
    4    6   20     -0.58      0.00
    5    6   20      0.12      0.00
    6    6   20      0.70      0.00
    7    6   20     -0.12      0.00
   -1    7   20     -0.09      0.00
    0    7   20      0.12      0.00
    1    7   20      0.00      0.00
    2    7   20      0.12      0.00
    3    7   20     -0.70      0.00
    4    7   20     -0.85      0.00
    5    7   20      0.13      0.00
    6    7   20     -0.39      0.00
    7    7   20     -0.54      0.00
    0    8   20     -0.49      0.00
    1    8   20     -0.65      0.00
    2    8   20      0.16      0.00
    3    8   20     -0.88      0.00
    4    8   20     -1.88      0.00
    5    8   20     -0.35      0.00
    6    8   20     -0.43      0.00
    7    8   20     -1.88      0.00
    8    8   20     -1.19      0.00
    0    9   20     -0.50      0.00
    1    9   20     -0.81      0.00
    2    9   20     -0.21      0.00
    3    9   20     -0.01      0.00
    4    9   20      0.18      0.00
    5    9   20     -0.34      0.00
    6    9   20      0.35      0.00
    7    9   20     -1.13      0.00
    8    9   20     -1.03      0.00
    1   10   20     -0.30      0.00
    2   10   20      0.10      0.00
    3   10   20     -0.78      0.00
    4   10   20      1.57      0.00
    5   10   20      1.33      0.00
    6   10   20      0.62      0.00
    7   10   20     -0.06      0.00
    2   11   20      1.02      0.00
    3   11   20     -0.13      0.00
    4   11   20      0.70      0.00
    6   11   20      0.84      0.00
    7   11   20      0.81      0.00
    3   12   20      0.29      0.00
    4   12   20      0.45      0.00
    5   12   20     -0.14      0.00
    6   12   20     -0.20      0.00
    2    4   21      0.13      0.00
    3    4   21      0.19      0.00
    4    4   21     -0.89      0.00
    1    5   21      0.00      0.00
    2    5   21     -0.08      0.00
    3    5   21      0.20      0.00
    4    5   21     -0.26      0.00
    5    5   21     -0.30      0.00
    1    6   21      0.50      0.00
    2    6   21      0.17      0.00
    3    6   21     -0.39      0.00
    4    6   21     -0.69      0.00
    5    6   21      0.18      0.00
    2    7   21      0.28      0.00
    3    7   21      0.27      0.00
    4    7   21     -0.18      0.00
    5    7   21      0.25      0.00
    2    8   21     -0.33      0.00
    3    8   21     -1.01      0.00
    4    8   21     -0.83      0.00
    5    8   21      0.55      0.00
    3    9   21     -0.33      0.00
    4    9   21     -1.75      0.00
    5    9   21     -0.19      0.00
    1    0    0     53.57      0.00
   13    0    0     -0.75      0.00
    0    1    0     87.88      0.00
    3    1    0      0.37      0.00
    4    1    0      0.49      0.00
    7    1    0     -3.68      0.00
   13    1    0     -0.52      0.00
    6    2    0      5.73      0.00
    7    2    0      1.24      0.00
    8    2    0     -0.13      0.00
    9    2    0     -0.27      0.00
   10    3    0     -1.34      0.00
   12    4    0      0.21      0.00
   12    5    0     -0.99      0.00
   13    5    0      0.38      0.00
  -13   -5    1     -1.19      0.00
  -12   -5    1     -0.75      0.00
  -12   -4    1     -1.01      0.00
   -7   -1    1      2.39      0.00
   -3   -1    1     -5.44      0.00
   13    0    1      0.22      0.00
   13    1    1     -0.22      0.00
   13    2    1      0.31      0.00
   13    3    1      0.14      0.00
  -13   -5    2      0.46      0.00
  -12   -5    2      1.30      0.00
  -12   -4    2      0.41      0.00
   13    2    2      0.04      0.00
  -13   -5    3      1.73      0.00
  -12   -5    3      0.43      0.00
  -12   -4    3      1.31      0.00
  -11   -4    3     -0.55      0.00
  -12   -4    4      0.58      0.00
  -11   -4    4     -0.09      0.00
  -12   -3    4      1.03      0.00
  -11   -3    4     -0.31      0.00
  -12   -4    5      0.24      0.00
  -12   -3    5      1.52      0.00
  -11   -3    5     -0.07      0.00
  -11   -2    5      0.41      0.00
  -12   -3    6     -0.31      0.00
  -11   -3    6     -1.15      0.00
  -11   -2    6     -0.20      0.00
  -11   -2    7     -0.84      0.00
  -10   -1    7     -1.35      0.00
  -11    3    7      0.87      0.00
  -11    1    8      1.36      0.00
    4   10   19     -1.03      0.00
    5   11   20      1.50      0.00
    0    0    0      0.00      0.00
loop_
  _platon_squeeze_void_nr
  _platon_squeeze_void_average_x
  _platon_squeeze_void_average_y
  _platon_squeeze_void_average_z
  _platon_squeeze_void_volume
  _platon_squeeze_void_count_electrons
  _platon_squeeze_void_content
   1 -0.014  0.000  0.000       691       180 ' '
loop_
  _platon_missing_refln_index_h
  _platon_missing_refln_index_k
  _platon_missing_refln_index_l
  _platon_missing_refln_theta
    1    0    0     2.034
    0    1    0     1.560
    3    1    0     5.814
    4    1    0     7.811
   -3   -1    1     6.246
_platon_squeeze_void_probe_radius                  1.20
_platon_squeeze_details
)
TITL UPS2591MS_MK_Cu_CHO_0m in P1     New: P-1
CELL   10.8479   14.6207   15.9745     70.08     76.39     68.53
SPGR P-1
C101 0.127 0.612 0.328 !       2.24 eA-3
C102 0.239 0.721 0.317 !       2.19 eA-3
C103 0.250 0.825 0.290 !       2.17 eA-3
C104 0.981 0.970 0.032 !       2.07 eA-3
C105 0.362 0.932 0.294 !       2.04 eA-3
C106 0.357 0.851 0.307 !       1.90 eA-3
C107 0.813 0.896 0.132 !       1.88 eA-3
C108 0.876 0.976 0.045 !       1.79 eA-3
C109 0.120 0.707 0.306 !       1.77 eA-3
C110 0.218 0.698 0.286 !       1.58 eA-3
C111 0.279 0.881 0.305 !       1.49 eA-3
C112 0.888 0.904 0.098 !       1.48 eA-3
Q113 0.812 0.658 0.192 !       0.66 eA-3
Q114 0.832 0.740 0.163 !       0.64 eA-3
Q115 0.455 0.383 0.160 !       0.61 eA-3
Q116 0.362 0.260 0.268 !       0.60 eA-3
Q117 0.529 0.513 0.486 !       0.58 eA-3
Q118 0.875 0.796 0.218 !       0.53 eA-3
Q119 0.481 0.435 0.186 !       0.51 eA-3
C120 0.751 0.066 0.003 !       0.50 eA-3
)
;
_shelx_fab_checksum              12489
loop_
_space_group_symop_operation_xyz
'x, y, z'
'-x, -y, -z'
loop_
_atom_site_label
_atom_site_type_symbol
_atom_site_fract_x
_atom_site_fract_y
_atom_site_fract_z
_atom_site_U_iso_or_equiv
_atom_site_adp_type
_atom_site_occupancy
_atom_site_site_symmetry_order
_atom_site_calc_flag
_atom_site_refinement_flags_posn
_atom_site_refinement_flags_adp
_atom_site_refinement_flags_occupancy
Cu1 Cu 0.5000 0.5000 0.5000 0.04121(15) Uani 1 2 d S . P
O1 O 0.2611(3) 0.3951(2) 1.10118(13) 0.1212(10) Uani 1 1 d . . .
H1 H 0.2931 0.3578 1.1497 0.145 Uiso 1 1 d R U .
O2 O 0.06236(19) 0.07695(14) 0.49825(13) 0.0741(6) Uani 1 1 d . . .
H2 H -0.0064 0.0905 0.4745 0.111 Uiso 1 1 d R U .
N1 N 0.39537(17) 0.41763(13) 0.59514(12) 0.0428(4) Uani 1 1 d . . .
N2 N 0.52167(17) 0.55760(13) 0.59074(12) 0.0427(4) Uani 1 1 d . . .
C1 C 0.3326(2) 0.35697(16) 0.58387(15) 0.0445(5) Uani 1 1 d . . .
C2 C 0.2550(2) 0.32006(19) 0.66674(17) 0.0563(6) Uani 1 1 d . . .
H4 H 0.2011 0.2779 0.6763 0.068 Uiso 1 1 calc R U .
C3 C 0.2733(3) 0.35655(19) 0.72776(17) 0.0565(6) Uani 1 1 d . . .
H3 H 0.2350 0.3445 0.7889 0.068 Uiso 1 1 calc R U .
C4 C 0.3607(2) 0.41682(17) 0.68433(15) 0.0456(5) Uani 1 1 d . . .
C5 C 0.4007(2) 0.46849(17) 0.72659(15) 0.0457(5) Uani 1 1 d . . .
C6 C 0.3625(2) 0.45088(18) 0.82595(15) 0.0501(6) Uani 1 1 d . . .
C7 C 0.4045(3) 0.35244(19) 0.88324(17) 0.0575(6) Uani 1 1 d . . .
H7 H 0.4582 0.2981 0.8580 0.069 Uiso 1 1 calc R U .
C8 C 0.3715(3) 0.3304(2) 0.97539(17) 0.0645(7) Uani 1 1 d . . .
C9 C 0.4138(4) 0.2189(2) 1.0348(2) 0.0915(11) Uani 1 1 d . . .
C10 C 0.4936(5) 0.1446(3) 0.9796(3) 0.1341(18) Uani 1 1 d . . .
H10A H 0.5720 0.1641 0.9448 0.201 Uiso 1 1 d R U .
H10B H 0.4376 0.1465 0.9387 0.201 Uiso 1 1 d R U .
H10C H 0.5227 0.0751 1.0199 0.201 Uiso 1 1 d R U .
C11 C 0.2868(5) 0.1884(3) 1.0826(3) 0.147(2) Uani 1 1 d . . .
H11A H 0.3126 0.1189 1.1233 0.221 Uiso 1 1 d R U .
H11B H 0.2370 0.1906 1.0377 0.221 Uiso 1 1 d R U .
H11C H 0.2304 0.2364 1.1171 0.221 Uiso 1 1 d R U .
C12 C 0.5034(6) 0.2041(3) 1.1010(3) 0.155(2) Uani 1 1 d . . .
H12A H 0.5180 0.1352 1.1429 0.232 Uiso 1 1 d R U .
H12B H 0.4608 0.2552 1.1345 0.232 Uiso 1 1 d R U .
H12C H 0.5894 0.2121 1.0689 0.232 Uiso 1 1 d R U .
C13 C 0.2983(3) 0.4121(2) 1.00927(18) 0.0732(8) Uani 1 1 d . . .
C14 C 0.2543(3) 0.5142(2) 0.95519(17) 0.0640(7) Uani 1 1 d . . .
C15 C 0.2866(2) 0.52922(19) 0.86285(16) 0.0545(6) Uani 1 1 d . . .
H15 H 0.2549 0.5962 0.8240 0.065 Uiso 1 1 calc R U .
C16 C 0.1770(4) 0.6052(3) 0.9957(2) 0.0882(10) Uani 1 1 d . . .
C17 C 0.0414(4) 0.5942(3) 1.0502(3) 0.1279(15) Uani 1 1 d . . .
H17A H 0.0576 0.5329 1.1016 0.192 Uiso 1 1 d R U .
H17B H -0.0118 0.5882 1.0116 0.192 Uiso 1 1 d R U .
H17C H -0.0073 0.6548 1.0716 0.192 Uiso 1 1 d R U .
C18 C 0.2608(5) 0.6132(3) 1.0559(3) 0.1264(16) Uani 1 1 d . . .
H18A H 0.3514 0.6083 1.0247 0.190 Uiso 1 1 d R U .
H18B H 0.2648 0.5573 1.1117 0.190 Uiso 1 1 d R U .
H18C H 0.2203 0.6790 1.0698 0.190 Uiso 1 1 d R U .
C19 C 0.1452(4) 0.7079(3) 0.9206(2) 0.1109(14) Uani 1 1 d . . .
H19A H 0.0877 0.7067 0.8822 0.166 Uiso 1 1 d R U .
H19B H 0.2285 0.7174 0.8844 0.166 Uiso 1 1 d R U .
H19C H 0.0992 0.7645 0.9476 0.166 Uiso 1 1 d R U .
C20 C 0.4749(2) 0.53556(17) 0.68187(15) 0.0451(5) Uani 1 1 d . . .
C21 C 0.5140(2) 0.59111(18) 0.72325(16) 0.0511(6) Uani 1 1 d . . .
H21 H 0.4964 0.5877 0.7852 0.061 Uiso 1 1 calc R U .
C22 C 0.5807(2) 0.64959(18) 0.65845(16) 0.0508(6) Uani 1 1 d . . .
C23 C 0.5883(2) 0.62723(16) 0.57651(15) 0.0430(5) Uani 1 1 d . . .
C24 C 0.3406(2) 0.33359(16) 0.50531(15) 0.0439(5) Uani 1 1 d . . .
C25 C 0.2650(2) 0.26557(17) 0.50551(16) 0.0468(5) Uani 1 1 d . . .
C26 C 0.1646(2) 0.30265(18) 0.45146(17) 0.0534(6) Uani 1 1 d . . .
H26 H 0.1411 0.3726 0.4175 0.064 Uiso 1 1 calc R U .
C27 C 0.0970(2) 0.24144(19) 0.44504(16) 0.0528(6) Uani 1 1 d . . .
C28 C -0.0056(3) 0.2848(2) 0.3765(2) 0.0699(8) Uani 1 1 d . . .
C29 C -0.1469(3) 0.2865(3) 0.4262(3) 0.1053(13) Uani 1 1 d . . .
H29A H -0.2111 0.3165 0.3825 0.158 Uiso 1 1 d R U .
H29B H -0.1720 0.3279 0.4682 0.158 Uiso 1 1 d R U .
H29C H -0.1472 0.2165 0.4594 0.158 Uiso 1 1 d R U .
C30 C -0.0158(4) 0.3958(2) 0.3229(2) 0.1049(13) Uani 1 1 d . . .
H30A H 0.0718 0.3991 0.2904 0.157 Uiso 1 1 d R U .
H30B H -0.0456 0.4384 0.3642 0.157 Uiso 1 1 d R U .
H30C H -0.0803 0.4208 0.2800 0.157 Uiso 1 1 d R U .
C31 C 0.0379(4) 0.2207(3) 0.3108(2) 0.1068(13) Uani 1 1 d . . .
H31A H -0.0238 0.2507 0.2656 0.160 Uiso 1 1 d R U .
H31B H 0.0373 0.1506 0.3433 0.160 Uiso 1 1 d R U .
H31C H 0.1283 0.2196 0.2813 0.160 Uiso 1 1 d R U .
C32 C 0.1299(2) 0.14075(19) 0.49902(17) 0.0524(6) Uani 1 1 d . . .
C33 C 0.2301(2) 0.09898(17) 0.55614(16) 0.0496(6) Uani 1 1 d . . .
C34 C 0.2680(3) -0.0127(2) 0.61300(19) 0.0669(8) Uani 1 1 d . . .
C35 C 0.3828(4) -0.0384(2) 0.6668(2) 0.1037(13) Uani 1 1 d . . .
H35A H 0.4631 -0.0306 0.6253 0.156 Uiso 1 1 d R U .
H35B H 0.4012 -0.1092 0.7053 0.156 Uiso 1 1 d R U .
H35C H 0.3571 0.0083 0.7042 0.156 Uiso 1 1 d R U .
C36 C 0.1474(4) -0.0327(3) 0.6818(2) 0.1016(12) Uani 1 1 d . . .
H36A H 0.1153 0.0168 0.7169 0.152 Uiso 1 1 d R U .
H36B H 0.1748 -0.1023 0.7220 0.152 Uiso 1 1 d R U .
H36C H 0.0757 -0.0252 0.6500 0.152 Uiso 1 1 d R U .
C37 C 0.3182(4) -0.0858(2) 0.5529(3) 0.0926(11) Uani 1 1 d . . .
H37A H 0.3446 -0.1569 0.5904 0.139 Uiso 1 1 d R U .
H37B H 0.3952 -0.0719 0.5106 0.139 Uiso 1 1 d R U .
H37C H 0.2466 -0.0749 0.5195 0.139 Uiso 1 1 d R U .
C38 C 0.2969(2) 0.16479(17) 0.55611(16) 0.0489(6) Uani 1 1 d . . .
H38 H 0.3668 0.1388 0.5924 0.059 Uiso 1 1 calc R U .
O5 O 0.3634(8) 0.2738(6) 0.2599(4) 0.160(3) Uani 0.5 1 d . . P
C61 C 0.3838(7) 0.2754(6) 0.3329(5) 0.095(2) Uani 0.5 1 d . . P
H61 H 0.3737 0.2212 0.3849 0.114 Uiso 0.5 1 calc R U P
loop_
_atom_site_aniso_label
_atom_site_aniso_U_11
_atom_site_aniso_U_22
_atom_site_aniso_U_33
_atom_site_aniso_U_23
_atom_site_aniso_U_13
_atom_site_aniso_U_12
Cu1 0.0437(2) 0.0370(2) 0.0436(2) -0.00133(17) -0.01004(16) -0.01981(16)
O1 0.175(3) 0.1117(19) 0.0396(12) -0.0062(12) 0.0015(13) -0.0262(18)
O2 0.0782(12) 0.0676(12) 0.0981(15) -0.0122(11) -0.0289(11) -0.0465(10)
N1 0.0481(10) 0.0395(10) 0.0427(11) -0.0030(8) -0.0099(8) -0.0209(8)
N2 0.0470(10) 0.0373(10) 0.0436(11) -0.0002(8) -0.0114(8) -0.0199(8)
C1 0.0478(12) 0.0392(12) 0.0478(13) -0.0004(10) -0.0102(10) -0.0235(10)
C2 0.0628(15) 0.0541(15) 0.0574(15) -0.0038(12) -0.0061(12) -0.0362(12)
C3 0.0678(16) 0.0584(15) 0.0486(14) -0.0068(12) -0.0002(12) -0.0378(13)
C4 0.0492(12) 0.0439(13) 0.0439(13) -0.0036(10) -0.0061(10) -0.0226(10)
C5 0.0510(12) 0.0395(12) 0.0448(13) -0.0023(10) -0.0100(10) -0.0183(10)
C6 0.0573(14) 0.0516(14) 0.0428(13) -0.0065(11) -0.0058(10) -0.0254(12)
C7 0.0680(16) 0.0497(14) 0.0526(15) -0.0079(12) -0.0073(12) -0.0223(12)
C8 0.0817(18) 0.0566(16) 0.0478(15) -0.0011(13) -0.0111(13) -0.0241(14)
C9 0.129(3) 0.068(2) 0.0567(19) 0.0099(16) -0.0159(19) -0.030(2)
C10 0.198(5) 0.053(2) 0.099(3) 0.012(2) -0.017(3) -0.010(2)
C11 0.191(5) 0.096(3) 0.116(3) 0.028(3) 0.013(3) -0.074(3)
C12 0.217(5) 0.107(3) 0.123(4) 0.023(3) -0.101(4) -0.033(3)
C13 0.090(2) 0.082(2) 0.0410(15) -0.0082(14) -0.0044(14) -0.0301(17)
C14 0.0728(17) 0.0674(18) 0.0503(15) -0.0132(13) -0.0053(13) -0.0248(14)
C15 0.0623(15) 0.0508(14) 0.0496(15) -0.0070(12) -0.0103(11) -0.0214(12)
C16 0.111(3) 0.079(2) 0.068(2) -0.0297(18) -0.0042(18) -0.0193(19)
C17 0.121(3) 0.122(3) 0.122(3) -0.055(3) 0.026(3) -0.024(3)
C18 0.177(4) 0.130(4) 0.100(3) -0.056(3) -0.043(3) -0.042(3)
C19 0.159(4) 0.069(2) 0.093(3) -0.033(2) -0.025(2) -0.007(2)
C20 0.0479(12) 0.0411(12) 0.0445(13) -0.0025(10) -0.0135(10) -0.0161(10)
C21 0.0597(14) 0.0528(14) 0.0479(14) -0.0089(11) -0.0143(11) -0.0258(12)
C22 0.0590(14) 0.0463(14) 0.0544(15) -0.0113(12) -0.0135(11) -0.0235(11)
C23 0.0450(12) 0.0353(11) 0.0496(14) -0.0042(10) -0.0127(10) -0.0165(9)
C24 0.0447(11) 0.0339(11) 0.0538(14) -0.0009(10) -0.0166(10) -0.0172(9)
C25 0.0509(13) 0.0418(12) 0.0522(14) -0.0033(11) -0.0114(10) -0.0256(10)
C26 0.0575(14) 0.0448(13) 0.0595(15) 0.0013(11) -0.0194(12) -0.0251(11)
C27 0.0521(13) 0.0541(15) 0.0566(15) -0.0037(12) -0.0181(11) -0.0255(11)
C28 0.0759(18) 0.0661(18) 0.0750(19) 0.0034(15) -0.0368(15) -0.0351(15)
C29 0.0678(19) 0.102(3) 0.145(3) -0.005(2) -0.050(2) -0.0315(19)
C30 0.121(3) 0.080(2) 0.118(3) 0.028(2) -0.083(2) -0.046(2)
C31 0.149(3) 0.107(3) 0.085(2) -0.015(2) -0.055(2) -0.050(3)
C32 0.0558(14) 0.0506(14) 0.0585(15) -0.0072(12) -0.0121(11) -0.0296(11)
C33 0.0556(13) 0.0424(13) 0.0547(14) -0.0046(11) -0.0097(11) -0.0264(11)
C34 0.0815(18) 0.0492(15) 0.0748(19) 0.0055(13) -0.0291(15) -0.0351(14)
C35 0.129(3) 0.0569(19) 0.125(3) 0.0306(19) -0.079(2) -0.0424(19)
C36 0.133(3) 0.086(2) 0.083(2) 0.0183(19) -0.015(2) -0.070(2)
C37 0.101(2) 0.0497(17) 0.131(3) -0.0196(19) -0.038(2) -0.0192(16)
C38 0.0529(13) 0.0476(14) 0.0503(14) -0.0045(11) -0.0140(10) -0.0242(11)
O5 0.210(7) 0.196(7) 0.109(5) -0.056(5) -0.040(5) -0.080(6)
C61 0.101(5) 0.129(6) 0.059(4) -0.022(4) -0.014(4) -0.041(5)
loop_
_atom_type_symbol
_atom_type_description
_atom_type_scat_dispersion_real
_atom_type_scat_dispersion_imag
_atom_type_scat_source
C C 0.0033 0.0016 'International Tables Vol C Tables 4.2.6.8 and 6.1.1.4'
H H 0.0000 0.0000 'International Tables Vol C Tables 4.2.6.8 and 6.1.1.4'
Cu Cu 0.3201 1.2651 'International Tables Vol C Tables 4.2.6.8 and 6.1.1.4'
N N 0.0061 0.0033 'International Tables Vol C Tables 4.2.6.8 and 6.1.1.4'
O O 0.0106 0.0060 'International Tables Vol C Tables 4.2.6.8 and 6.1.1.4'
loop_
_geom_angle_atom_site_label_1
_geom_angle_atom_site_label_2
_geom_angle_atom_site_label_3
_geom_angle
_geom_angle_site_symmetry_1
_geom_angle_site_symmetry_3
N1 Cu1 N1 180.00(8) 2_666 .
N1 Cu1 N2 89.90(7) 2_666 2_666
N1 Cu1 N2 90.10(7) . 2_666
N1 Cu1 N2 90.10(7) 2_666 .
N1 Cu1 N2 89.90(7) . .
N2 Cu1 N2 180.0 2_666 .
C13 O1 H1 139.2 . .
C32 O2 H2 130.2 . .
C1 N1 C4 105.48(18) . .
C1 N1 Cu1 127.05(15) . .
C4 N1 Cu1 127.24(15) . .
C23 N2 C20 104.92(18) . .
C23 N2 Cu1 127.36(15) . .
C20 N2 Cu1 127.71(15) . .
N1 C1 C24 126.2(2) . .
N1 C1 C2 110.0(2) . .
C24 C1 C2 123.8(2) . .
C3 C2 C1 106.9(2) . .
C3 C2 H4 126.5 . .
C1 C2 H4 126.5 . .
C2 C3 C4 107.7(2) . .
C2 C3 H3 126.1 . .
C4 C3 H3 126.1 . .
N1 C4 C5 126.1(2) . .
N1 C4 C3 109.8(2) . .
C5 C4 C3 124.1(2) . .
C4 C5 C20 123.8(2) . .
C4 C5 C6 118.2(2) . .
C20 C5 C6 118.0(2) . .
C15 C6 C7 118.4(2) . .
C15 C6 C5 122.0(2) . .
C7 C6 C5 119.7(2) . .
C8 C7 C6 122.8(2) . .
C8 C7 H7 118.6 . .
C6 C7 H7 118.6 . .
C13 C8 C7 116.6(2) . .
C13 C8 C9 123.1(3) . .
C7 C8 C9 120.3(3) . .
C12 C9 C10 105.7(4) . .
C12 C9 C8 111.7(3) . .
C10 C9 C8 111.8(3) . .
C12 C9 C11 111.7(3) . .
C10 C9 C11 106.8(4) . .
C8 C9 C11 108.9(3) . .
C9 C10 H10A 109.5 . .
C9 C10 H10B 109.5 . .
H10A C10 H10B 109.5 . .
C9 C10 H10C 109.4 . .
H10A C10 H10C 109.5 . .
H10B C10 H10C 109.5 . .
C9 C11 H11A 109.5 . .
C9 C11 H11B 109.4 . .
H11A C11 H11B 109.5 . .
C9 C11 H11C 109.5 . .
H11A C11 H11C 109.5 . .
H11B C11 H11C 109.5 . .
C9 C12 H12A 109.3 . .
C9 C12 H12B 109.5 . .
H12A C12 H12B 109.5 . .
C9 C12 H12C 109.7 . .
H12A C12 H12C 109.5 . .
H12B C12 H12C 109.5 . .
C8 C13 O1 119.4(3) . .
C8 C13 C14 123.6(2) . .
O1 C13 C14 116.9(3) . .
C15 C14 C13 116.2(2) . .
C15 C14 C16 121.5(2) . .
C13 C14 C16 122.3(2) . .
C6 C15 C14 122.4(2) . .
C6 C15 H15 118.8 . .
C14 C15 H15 118.8 . .
C18 C16 C19 107.2(3) . .
C18 C16 C14 110.6(3) . .
C19 C16 C14 110.7(2) . .
C18 C16 C17 109.8(3) . .
C19 C16 C17 107.1(3) . .
C14 C16 C17 111.3(3) . .
C16 C17 H17A 109.6 . .
C16 C17 H17B 109.6 . .
H17A C17 H17B 109.5 . .
C16 C17 H17C 109.2 . .
H17A C17 H17C 109.5 . .
H17B C17 H17C 109.5 . .
C16 C18 H18A 109.4 . .
C16 C18 H18B 109.5 . .
H18A C18 H18B 109.5 . .
C16 C18 H18C 109.5 . .
H18A C18 H18C 109.5 . .
H18B C18 H18C 109.5 . .
C16 C19 H19A 109.4 . .
C16 C19 H19B 109.6 . .
H19A C19 H19B 109.5 . .
C16 C19 H19C 109.4 . .
H19A C19 H19C 109.5 . .
H19B C19 H19C 109.5 . .
N2 C20 C5 125.1(2) . .
N2 C20 C21 110.1(2) . .
C5 C20 C21 124.8(2) . .
C22 C21 C20 107.6(2) . .
C22 C21 H21 126.2 . .
C20 C21 H21 126.2 . .
C61 C22 C21 126.0(4) 2_666 .
C61 C22 C23 126.4(4) 2_666 .
C21 C22 C23 107.0(2) . .
N2 C23 C24 125.1(2) . 2_666
N2 C23 C22 110.33(19) . .
C24 C23 C22 124.5(2) 2_666 .
C1 C24 C23 123.9(2) . 2_666
C1 C24 C25 118.8(2) . .
C23 C24 C25 117.2(2) 2_666 .
C38 C25 C26 118.6(2) . .
C38 C25 C24 121.2(2) . .
C26 C25 C24 120.1(2) . .
C25 C26 C27 122.5(2) . .
C25 C26 H26 118.7 . .
C27 C26 H26 118.7 . .
C26 C27 C32 117.0(2) . .
C26 C27 C28 120.1(2) . .
C32 C27 C28 122.8(2) . .
C31 C28 C30 108.3(3) . .
C31 C28 C29 111.0(3) . .
C30 C28 C29 106.2(3) . .
C31 C28 C27 109.6(2) . .
C30 C28 C27 111.3(2) . .
C29 C28 C27 110.3(2) . .
C28 C29 H29A 109.5 . .
C28 C29 H29B 109.2 . .
H29A C29 H29B 109.5 . .
C28 C29 H29C 109.7 . .
H29A C29 H29C 109.5 . .
H29B C29 H29C 109.5 . .
C28 C30 H30A 109.6 . .
C28 C30 H30B 109.3 . .
H30A C30 H30B 109.5 . .
C28 C30 H30C 109.5 . .
H30A C30 H30C 109.5 . .
H30B C30 H30C 109.5 . .
C28 C31 H31A 109.4 . .
C28 C31 H31B 109.6 . .
H31A C31 H31B 109.5 . .
C28 C31 H31C 109.4 . .
H31A C31 H31C 109.5 . .
H31B C31 H31C 109.5 . .
O2 C32 C27 119.8(2) . .
O2 C32 C33 117.2(2) . .
C27 C32 C33 123.0(2) . .
C38 C33 C32 116.3(2) . .
C38 C33 C34 121.2(2) . .
C32 C33 C34 122.5(2) . .
C33 C34 C35 111.5(2) . .
C33 C34 C36 109.8(2) . .
C35 C34 C36 107.0(3) . .
C33 C34 C37 110.8(2) . .
C35 C34 C37 106.4(3) . .
C36 C34 C37 111.4(3) . .
C34 C35 H35A 109.5 . .
C34 C35 H35B 109.5 . .
H35A C35 H35B 109.5 . .
C34 C35 H35C 109.4 . .
H35A C35 H35C 109.5 . .
H35B C35 H35C 109.5 . .
C34 C36 H36A 109.4 . .
C34 C36 H36B 109.5 . .
H36A C36 H36B 109.5 . .
C34 C36 H36C 109.5 . .
H36A C36 H36C 109.5 . .
H36B C36 H36C 109.5 . .
C34 C37 H37A 109.5 . .
C34 C37 H37B 109.4 . .
H37A C37 H37B 109.5 . .
C34 C37 H37C 109.4 . .
H37A C37 H37C 109.5 . .
H37B C37 H37C 109.5 . .
C25 C38 C33 122.5(2) . .
C25 C38 H38 118.8 . .
C33 C38 H38 118.8 . .
O5 C61 C22 123.0(7) . 2_666
O5 C61 H61 118.5 . .
C22 C61 H61 118.5 2_666 .
loop_
_geom_bond_atom_site_label_1
_geom_bond_atom_site_label_2
_geom_bond_distance
_geom_bond_site_symmetry_2
Cu1 N1 1.9974(17) 2_666
Cu1 N1 1.9974(17) .
Cu1 N2 2.0006(18) 2_666
Cu1 N2 2.0006(18) .
O1 C13 1.388(3) .
O1 H1 0.8472 .
O2 C32 1.385(3) .
O2 H2 0.8443 .
N1 C1 1.375(3) .
N1 C4 1.383(3) .
N2 C23 1.383(3) .
N2 C20 1.390(3) .
C1 C24 1.385(3) .
C1 C2 1.440(3) .
C2 C3 1.340(3) .
C2 H4 0.9500 .
C3 C4 1.429(3) .
C3 H3 0.9500 .
C4 C5 1.393(3) .
C5 C20 1.396(3) .
C5 C6 1.499(3) .
C6 C15 1.371(3) .
C6 C7 1.391(3) .
C7 C8 1.383(3) .
C7 H7 0.9500 .
C8 C13 1.377(4) .
C8 C9 1.539(4) .
C9 C12 1.512(5) .
C9 C10 1.521(5) .
C9 C11 1.551(5) .
C10 H10A 0.9800 .
C10 H10B 0.9800 .
C10 H10C 0.9800 .
C11 H11A 0.9800 .
C11 H11B 0.9800 .
C11 H11C 0.9800 .
C12 H12A 0.9800 .
C12 H12B 0.9800 .
C12 H12C 0.9800 .
C13 C14 1.412(4) .
C14 C15 1.393(3) .
C14 C16 1.553(4) .
C15 H15 0.9500 .
C16 C18 1.525(5) .
C16 C19 1.550(5) .
C16 C17 1.557(5) .
C17 H17A 0.9800 .
C17 H17B 0.9800 .
C17 H17C 0.9800 .
C18 H18A 0.9800 .
C18 H18B 0.9800 .
C18 H18C 0.9800 .
C19 H19A 0.9800 .
C19 H19B 0.9800 .
C19 H19C 0.9800 .
C20 C21 1.424(3) .
C21 C22 1.350(3) .
C21 H21 0.9500 .
C22 C61 1.343(8) 2_666
C22 C23 1.431(3) .
C23 C24 1.404(3) 2_666
C24 C23 1.404(3) 2_666
C24 C25 1.501(3) .
C25 C38 1.375(3) .
C25 C26 1.385(3) .
C26 C27 1.388(3) .
C26 H26 0.9500 .
C27 C32 1.390(3) .
C27 C28 1.557(3) .
C28 C31 1.522(4) .
C28 C30 1.531(4) .
C28 C29 1.547(4) .
C29 H29A 0.9800 .
C29 H29B 0.9800 .
C29 H29C 0.9800 .
C30 H30A 0.9800 .
C30 H30B 0.9800 .
C30 H30C 0.9800 .
C31 H31A 0.9800 .
C31 H31B 0.9800 .
C31 H31C 0.9800 .
C32 C33 1.410(3) .
C33 C38 1.400(3) .
C33 C34 1.528(3) .
C34 C35 1.540(4) .
C34 C36 1.545(4) .
C34 C37 1.545(4) .
C35 H35A 0.9800 .
C35 H35B 0.9800 .
C35 H35C 0.9800 .
C36 H36A 0.9800 .
C36 H36B 0.9800 .
C36 H36C 0.9800 .
C37 H37A 0.9800 .
C37 H37B 0.9800 .
C37 H37C 0.9800 .
C38 H38 0.9500 .
O5 C61 1.247(8) .
C61 C22 1.343(8) 2_666
C61 H61 0.9500 .
loop_
_platon_squeeze_void_nr
_platon_squeeze_void_average_x
_platon_squeeze_void_average_y
_platon_squeeze_void_average_z
_platon_squeeze_void_volume
_platon_squeeze_void_count_electrons
_platon_squeeze_void_content
1 -0.014 0.000 0.000 691 180 ' '
