#------------------------------------------------------------------------------
#$Date: 2016-09-10 02:23:06 +0300 (Sat, 10 Sep 2016) $
#$Revision: 186373 $
#$URL: file:///home/coder/svn-repositories/cod/cif/7/04/02/7040267.cif $
#------------------------------------------------------------------------------
#
# This file is available in the Crystallography Open Database (COD),
# http://www.crystallography.net/
#
# All data on this site have been placed in the public domain by the
# contributors.
#
data_7040267
loop_
_publ_author_name
'Adiraju, Venkata A. K.'
'Ferrence, Gregory M.'
'Lash, Timothy D.'
_publ_section_title
;
 Rhodium(i), rhodium(iii) and iridium(iii) carbaporphyrins.
;
_journal_issue                   35
_journal_name_full
'Dalton transactions (Cambridge, England : 2003)'
_journal_page_first              13691
_journal_page_last               13694
_journal_paper_doi               10.1039/c6dt03093a
_journal_volume                  45
_journal_year                    2016
_chemical_formula_moiety         'C45 H44 Ir N5'
_chemical_formula_sum            'C45 H44 Ir N5'
_chemical_formula_weight         847.05
_chemical_name_systematic
'(8,12,13,17-tetraethyl-7,18-dimethyl-21-carbabenzo(b)porphyrinato)-dipyridyl-iridium(iii) chloroform solvate'
_space_group_IT_number           15
_symmetry_cell_setting           monoclinic
_symmetry_Int_Tables_number      15
_symmetry_space_group_name_Hall  '-C 2yc'
_symmetry_space_group_name_H-M   'C 1 2/c 1'
_atom_sites_solution_hydrogens   geom
_atom_sites_solution_primary     iterative
_atom_sites_solution_secondary   iterative
_audit_conform_dict_location     ftp://ftp.iucr.org/pub/cif_core.dic
_audit_conform_dict_name         cif_core.dic
_audit_conform_dict_version      2.4.3
_audit_creation_date             2016-08-05T19:25:08-00:00
_audit_creation_method           'WinGX routine CIF_UPDATE'
_audit_update_record
;
2016-08-06 deposited with the CCDC.
2016-08-10 downloaded from the CCDC.
;
_cell_angle_alpha                90
_cell_angle_beta                 123.126(2)
_cell_angle_gamma                90
_cell_formula_units_Z            8
_cell_length_a                   26.5093(10)
_cell_length_b                   15.8108(6)
_cell_length_c                   23.0204(9)
_cell_measurement_reflns_used    9815
_cell_measurement_temperature    100(2)
_cell_measurement_theta_max      27.49
_cell_measurement_theta_min      2.58
_cell_volume                     8080.4(6)
_computing_cell_refinement       'APEX2 & SAINT (Bruker, 2013)'
_computing_data_collection       'APEX2 (Bruker, 2014)'
_computing_data_reduction        SAINT
_computing_molecular_graphics    'ORTEP-3 for Windows (Farrugia, 2012)'
_computing_publication_material  'WinGX publication routines (Farrugia, 2012)'
_computing_structure_refinement  'SHELXL-2014/7 (Sheldrick, 2015)'
_computing_structure_solution    'SUPERFLIP (Palatinus & Chapuis,2007)'
_diffrn_ambient_temperature      100(2)
_diffrn_measured_fraction_theta_full 0.998
_diffrn_measured_fraction_theta_max 0.966
_diffrn_measurement_details
;
A total of 3672 frames were collected.  
The total exposure time was 10.20 hours.
;
_diffrn_measurement_device_type  'Bruker APEX-II CCD diffractometer'
_diffrn_measurement_method       '\f and \w scans'
_diffrn_radiation_monochromator  graphite
_diffrn_radiation_probe          x-ray
_diffrn_radiation_source         'sealed tube'
_diffrn_radiation_type           MoK\a
_diffrn_radiation_wavelength     0.71073
_diffrn_reflns_av_R_equivalents  0.0856
_diffrn_reflns_av_unetI/netI     0.0504
_diffrn_reflns_Laue_measured_fraction_full 0.998
_diffrn_reflns_Laue_measured_fraction_max 0.966
_diffrn_reflns_limit_h_max       39
_diffrn_reflns_limit_h_min       -39
_diffrn_reflns_limit_k_max       23
_diffrn_reflns_limit_k_min       -23
_diffrn_reflns_limit_l_max       34
_diffrn_reflns_limit_l_min       -34
_diffrn_reflns_number            159684
_diffrn_reflns_point_group_measured_fraction_full 0.998
_diffrn_reflns_point_group_measured_fraction_max 0.966
_diffrn_reflns_theta_full        25.242
_diffrn_reflns_theta_max         32.353
_diffrn_reflns_theta_min         1.599
_diffrn_standards_number         0
_exptl_absorpt_coefficient_mu    3.341
_exptl_absorpt_correction_T_max  0.7464
_exptl_absorpt_correction_T_min  0.6281
_exptl_absorpt_correction_type   multi-scan
_exptl_absorpt_process_details   'Apex2 v2014.7-1 (Bruker, 2014)'
_exptl_crystal_colour            red
_exptl_crystal_density_diffrn    1.393
_exptl_crystal_density_method    'not measured'
_exptl_crystal_description       plate
_exptl_crystal_F_000             3408
_exptl_crystal_size_max          0.185
_exptl_crystal_size_mid          0.115
_exptl_crystal_size_min          0.015
_refine_diff_density_max         2.439
_refine_diff_density_min         -7.738
_refine_diff_density_rms         0.253
_refine_ls_extinction_method     none
_refine_ls_goodness_of_fit_ref   1.09
_refine_ls_hydrogen_treatment    constr
_refine_ls_matrix_type           full
_refine_ls_number_constraints    0
_refine_ls_number_parameters     462
_refine_ls_number_reflns         13947
_refine_ls_number_restraints     0
_refine_ls_restrained_S_all      1.09
_refine_ls_R_factor_all          0.0688
_refine_ls_R_factor_gt           0.0507
_refine_ls_shift/su_max          0.001
_refine_ls_shift/su_mean         0
_refine_ls_structure_factor_coef Fsqd
_refine_ls_weighting_details
'w=1/[\s^2^(Fo^2^)+(0.0823P)^2^+56.1660P] where P=(Fo^2^+2Fc^2^)/3'
_refine_ls_weighting_scheme      calc
_refine_ls_wR_factor_ref         0.1478
_reflns_number_gt                10958
_reflns_number_total             13947
_reflns_threshold_expression     'I > 2\s(I)'
_cod_data_source_file            c6dt03093a2.cif
_cod_data_source_block           compound10b
_cod_depositor_comments
'Adding full bibliography for 7040265--7040267.cif.'
_cod_original_sg_symbol_H-M      'C 2/c'
_cod_database_code               7040267
_shelx_space_group_comment
;
The symmetry employed for this shelxl refinement is uniquely defined
by the following loop, which should always be used as a source of
symmetry information in preference to the above space-group names.
        They are only intended as comments.
;
_shelx_estimated_absorpt_t_min   0.577
_shelx_estimated_absorpt_t_max   0.952
_shelx_res_file
;

    shelx.res created by SHELXL-2014/7

TITL GMF16023_0m in C2/c
CELL  0.71073  26.5093  15.8108  23.0204   90.000  123.126   90.000
ZERR     8.00   0.0010   0.0006   0.0009    0.000    0.002    0.000
LATT   7
SYMM  - X,   Y, 1/2 - Z
SFAC  C    H    N    IR
UNIT  360 352 40 8
MERG   2
OMIT     1   1   0
OMIT     3   1   0
OMIT     0   2   0
OMIT     2   2   0
OMIT     1   3   0
OMIT    -1   3   1
OMIT    -3   1   2
OMIT    -2   2   3
OMIT    -1   3   5
OMIT    -3   1   4
OMIT    -2   2   2
ABIN
FMAP  -2
PLAN   20
SIZE     0.015   0.115   0.185
ACTA
BOND   $H
CONF
LIST   4
L.S.  16    0   60
TEMP  -173.00
WGHT    0.082300   56.166000
FVAR       0.25796
IR1   4    0.226792    0.339594    0.170976    11.00000    0.01003    0.00909 =
         0.01059   -0.00039    0.00513   -0.00153
C21   1    0.157231    0.314132    0.074908    11.00000    0.01095    0.00966 =
         0.01147   -0.00118    0.00450   -0.00199
N22   3    0.278477    0.371455    0.133435    11.00000    0.01245    0.01226 =
         0.01139    0.00053    0.00675   -0.00086
N23   3    0.299485    0.366197    0.271739    11.00000    0.01168    0.00849 =
         0.01133    0.00002    0.00421   -0.00087
N24   3    0.175975    0.307429    0.209992    11.00000    0.01405    0.01077 =
         0.01242   -0.00045    0.00930   -0.00088
N25   3    0.255931    0.216224    0.181598    11.00000    0.01403    0.01279 =
         0.01306    0.00013    0.00802   -0.00087
N31   3    0.197550    0.463581    0.158616    11.00000    0.01415    0.01114 =
         0.01173    0.00018    0.00543    0.00171
C1    1    0.098758    0.287390    0.055930    11.00000    0.01280    0.01462 =
         0.01277   -0.00161    0.00668   -0.00304
C2    1    0.060277    0.280206   -0.020057    11.00000    0.01151    0.01218 =
         0.01511   -0.00165    0.00622   -0.00194
C2A   1   -0.000402    0.261506   -0.063987    11.00000    0.01289    0.02082 =
         0.01840   -0.00018    0.00777   -0.00192
AFIX  43
H2A   2   -0.024465    0.249944   -0.045943    11.00000   -1.20000
AFIX   0
C2B   1   -0.025260    0.260036   -0.134962    11.00000    0.01379    0.02645 =
         0.01788   -0.00173    0.00387   -0.00581
AFIX  43
H2B   2   -0.066726    0.246823   -0.165695    11.00000   -1.20000
AFIX   0
C3    1    0.096292    0.299229   -0.046179    11.00000    0.01118    0.02001 =
         0.01403   -0.00386    0.00536   -0.00375
C3A   1    0.071086    0.297285   -0.117351    11.00000    0.02052    0.03628 =
         0.01443   -0.00127    0.00833   -0.01017
AFIX  43
H3A   2    0.094935    0.309025   -0.135644    11.00000   -1.20000
AFIX   0
C3B   1    0.009499    0.277563   -0.161736    11.00000    0.02054    0.04972 =
         0.00989   -0.00275    0.00236   -0.00790
AFIX  43
H3B   2   -0.008429    0.276242   -0.210479    11.00000   -1.20000
AFIX   0
C4    1    0.156469    0.321030    0.012580    11.00000    0.01185    0.01227 =
         0.01477    0.00000    0.00569   -0.00005
C5    1    0.205336    0.344140    0.009017    11.00000    0.01624    0.01928 =
         0.00873    0.00205    0.00685    0.00037
AFIX  43
H5    2    0.199470    0.344316   -0.035553    11.00000   -1.20000
AFIX   0
C6    1    0.262194    0.367076    0.065168    11.00000    0.01316    0.01327 =
         0.01032    0.00122    0.00657   -0.00068
C7    1    0.312725    0.390080    0.061479    11.00000    0.01632    0.01765 =
         0.01772   -0.00113    0.01245   -0.00161
C7A   1    0.312145    0.393625   -0.003759    11.00000    0.02189    0.02523 =
         0.01922   -0.00187    0.01419   -0.00539
AFIX 137
H7A1  2    0.289396    0.443405   -0.030804    11.00000   -1.50000
H7A2  2    0.293078    0.342392   -0.031121    11.00000   -1.50000
H7A3  2    0.353580    0.397401    0.007869    11.00000   -1.50000
AFIX   0
C8    1    0.359894    0.407048    0.127156    11.00000    0.01478    0.01713 =
         0.01547    0.00134    0.00916    0.00022
C8A   1    0.422602    0.433905    0.150796    11.00000    0.01183    0.03477 =
         0.01874   -0.00413    0.00849   -0.00654
AFIX  23
H8A1  2    0.432313    0.411028    0.117984    11.00000   -1.20000
H8A2  2    0.451074    0.408286    0.196747    11.00000   -1.20000
AFIX   0
C8B   1    0.432598    0.528086    0.156301    11.00000    0.03000    0.03219 =
         0.03520   -0.00199    0.01418   -0.01763
AFIX  33
H8B1  2    0.474473    0.540026    0.171971    11.00000   -1.50000
H8B2  2    0.405514    0.554141    0.110799    11.00000   -1.50000
H8B3  2    0.424312    0.551393    0.189715    11.00000   -1.50000
AFIX   0
C9    1    0.338182    0.396363    0.172232    11.00000    0.01558    0.00992 =
         0.01321    0.00142    0.00812    0.00050
C10   1    0.372535    0.410078    0.244162    11.00000    0.01025    0.01467 =
         0.01376    0.00267    0.00336    0.00026
AFIX  43
H10   2    0.412336    0.430541    0.263537    11.00000   -1.20000
AFIX   0
C11   1    0.354724    0.397003    0.290317    11.00000    0.00978    0.01383 =
         0.01161   -0.00017    0.00260    0.00123
C12   1    0.391065    0.412106    0.364227    11.00000    0.01375    0.01131 =
         0.01135    0.00011    0.00417    0.00140
C12A  1    0.451470    0.454339    0.401617    11.00000    0.01243    0.01768 =
         0.01570   -0.00062    0.00499    0.00047
AFIX  23
H12A  2    0.474222    0.436076    0.381141    11.00000   -1.20000
H12B  2    0.474603    0.437180    0.451001    11.00000   -1.20000
AFIX   0
C12B  1    0.444245    0.552066    0.396375    11.00000    0.01454    0.01822 =
         0.02130    0.00098   -0.00193   -0.00722
AFIX  33
H12C  2    0.484121    0.578645    0.421068    11.00000   -1.50000
H12D  2    0.421838    0.569049    0.347500    11.00000   -1.50000
H12E  2    0.422218    0.570152    0.417252    11.00000   -1.50000
AFIX   0
C13   1    0.357661    0.387468    0.390002    11.00000    0.01352    0.01176 =
         0.01160    0.00077    0.00382    0.00080
C13A  1    0.373895    0.391395    0.463741    11.00000    0.01773    0.01778 =
         0.01371   -0.00100    0.00542    0.00251
AFIX  23
H13A  2    0.339851    0.417123    0.463749    11.00000   -1.20000
H13B  2    0.409110    0.429218    0.490519    11.00000   -1.20000
AFIX   0
C13B  1    0.388735    0.305997    0.500952    11.00000    0.03017    0.02980 =
         0.02089    0.00682    0.01494    0.01248
AFIX  33
H13C  2    0.398710    0.314404    0.548295    11.00000   -1.50000
H13D  2    0.353797    0.268398    0.475779    11.00000   -1.50000
H13E  2    0.423198    0.280518    0.502604    11.00000   -1.50000
AFIX   0
C14   1    0.300319    0.358886    0.331677    11.00000    0.01535    0.00973 =
         0.01190   -0.00087    0.00646    0.00027
C15   1    0.251329    0.331532    0.333849    11.00000    0.01964    0.01066 =
         0.01642    0.00133    0.01119    0.00250
AFIX  43
H15   2    0.257441    0.329115    0.378506    11.00000   -1.20000
AFIX   0
C16   1    0.195087    0.307572    0.278980    11.00000    0.01293    0.01352 =
         0.01503   -0.00042    0.00758   -0.00199
C17   1    0.146559    0.279078    0.285635    11.00000    0.02000    0.01689 =
         0.01879   -0.00112    0.01415   -0.00240
C17A  1    0.151073    0.271104    0.353776    11.00000    0.02850    0.04205 =
         0.02505   -0.00327    0.02051   -0.00377
AFIX  23
H17A  2    0.110060    0.265821    0.344454    11.00000   -1.20000
H17B  2    0.169432    0.323211    0.381305    11.00000   -1.20000
AFIX   0
C17B  1    0.190278    0.191505    0.397978    11.00000    0.05095    0.08011 =
         0.04975    0.01600    0.02928    0.00185
AFIX  33
H17C  2    0.191898    0.189005    0.441505    11.00000   -1.50000
H17D  2    0.171826    0.139603    0.371368    11.00000   -1.50000
H17E  2    0.231201    0.196995    0.408221    11.00000   -1.50000
AFIX   0
C18   1    0.098488    0.262845    0.220524    11.00000    0.01864    0.01873 =
         0.02136   -0.00388    0.01511   -0.00353
C18A  1    0.036941    0.233753    0.199568    11.00000    0.01656    0.03228 =
         0.02332   -0.00461    0.01340   -0.00649
AFIX 137
H18A  2    0.038720    0.209834    0.239924    11.00000   -1.50000
H18B  2    0.022714    0.190502    0.163381    11.00000   -1.50000
H18C  2    0.009142    0.281898    0.181695    11.00000   -1.50000
AFIX   0
C19   1    0.116681    0.280761    0.173045    11.00000    0.01688    0.01209 =
         0.01768   -0.00126    0.01170   -0.00165
C20   1    0.080549    0.271332    0.100870    11.00000    0.00825    0.01553 =
         0.01457    0.00169    0.00513   -0.00090
AFIX  43
H20   2    0.040357    0.252413    0.081216    11.00000   -1.20000
AFIX   0
C26   1    0.218304    0.150748    0.166961    11.00000    0.01857    0.01272 =
         0.01747    0.00134    0.01016   -0.00051
AFIX  43
H26   2    0.177664    0.162483    0.151483    11.00000   -1.20000
AFIX   0
C27   1    0.236082    0.067209    0.173418    11.00000    0.02547    0.01309 =
         0.01779   -0.00133    0.01036   -0.00157
AFIX  43
H27   2    0.208638    0.022696    0.164385    11.00000   -1.20000
AFIX   0
C28   1    0.295381    0.049345    0.193548    11.00000    0.02459    0.01496 =
         0.02157    0.00006    0.01001    0.00189
AFIX  43
H28   2    0.308785   -0.007321    0.197379    11.00000   -1.20000
AFIX   0
C29   1    0.333575    0.116485    0.207590    11.00000    0.02212    0.01471 =
         0.02527    0.00386    0.01225    0.00711
AFIX  43
H29   2    0.374013    0.106544    0.221397    11.00000   -1.20000
AFIX   0
C30   1    0.312888    0.198435    0.201533    11.00000    0.01830    0.01130 =
         0.01910    0.00112    0.00983    0.00010
AFIX  43
H30   2    0.339955    0.243935    0.211853    11.00000   -1.20000
AFIX   0
C32   1    0.139030    0.481272    0.134206    11.00000    0.01992    0.01270 =
         0.02307   -0.00260    0.01110   -0.00135
AFIX  43
H32   2    0.111836    0.436004    0.124066    11.00000   -1.20000
AFIX   0
C33   1    0.118016    0.563982    0.123724    11.00000    0.02170    0.01301 =
         0.03004   -0.00169    0.01105    0.00323
AFIX  43
H33   2    0.077004    0.575082    0.106890    11.00000   -1.20000
AFIX   0
C34   1    0.157564    0.630125    0.138104    11.00000    0.03359    0.01091 =
         0.02445    0.00155    0.01362    0.00318
AFIX  43
H34   2    0.144135    0.687133    0.131170    11.00000   -1.20000
AFIX   0
C35   1    0.216522    0.611509    0.162569    11.00000    0.02854    0.01316 =
         0.02258   -0.00003    0.01180   -0.00517
AFIX  43
H35   2    0.244310    0.655972    0.172823    11.00000   -1.20000
AFIX   0
C36   1    0.235803    0.527700    0.172433    11.00000    0.01823    0.01690 =
         0.01803   -0.00186    0.01005   -0.00109
AFIX  43
H36   2    0.276693    0.515703    0.189213    11.00000   -1.20000
AFIX   0
HKLF    4

REM  GMF16023_0m in C2/c
REM R1 =  0.0507 for   10958 Fo > 4sig(Fo)  and  0.0688 for all   13947 data
REM    462 parameters refined using      0 restraints

END

WGHT      0.0823     56.1786

REM Highest difference peak  2.439,  deepest hole -7.738,  1-sigma level  0.253
Q1    1  -0.0237  0.4255  0.0625  11.00000  0.05   -7.74
Q2    1   0.1408  0.3567  0.3782  11.00000  0.05    2.44
Q3    1   0.1000  0.4643  0.3917  11.00000  0.05   -2.22
Q4    1   0.4827 -0.0102  0.3062  11.00000  0.05   -1.72
Q5    1   0.1534  0.4309  0.4814  11.00000  0.05   -1.60
Q6    1   0.4578 -0.0363  0.2791  11.00000  0.05   -1.53
Q7    1   0.0863  0.5144 -0.0512  11.00000  0.05   -1.45
Q8    1   0.3253  0.0588  0.4926  11.00000  0.05   -1.44
Q9    1   0.2433  0.3408  0.1304  11.00000  0.05    1.20
Q10   1   0.2079  0.3430  0.2098  11.00000  0.05    1.19
Q11   1   0.1101  0.3718  0.3688  11.00000  0.05   -1.11
Q12   1  -0.0299  0.5170  0.1100  11.00000  0.05   -1.10
Q13   1   0.0275  0.4281  0.1890  11.00000  0.05    1.05
Q14   1   0.4744  0.4179  0.2710  11.00000  0.05   -1.01
Q15   1   0.0209  0.3894  0.1339  11.00000  0.05   -1.00
Q16   1   0.1045  0.3806  0.3122  11.00000  0.05   -0.95
Q17   1   0.1569  0.3912  0.4194  11.00000  0.05   -0.95
Q18   1   0.4379  0.1474  0.5208  11.00000  0.05   -0.92
Q19   1   0.5214  0.4060  0.4440  11.00000  0.05   -0.89
Q20   1   0.1519  0.3149  0.0401  11.00000  0.05    0.87
;
_shelx_res_checksum              3318
_shelx_fab_file
;
    2    0    0    211.31      0.00
    4    0    0     69.49      0.00
    6    0    0     32.34      0.00
    8    0    0     28.01      0.00
   10    0    0     -3.60      0.00
   12    0    0     -4.99      0.00
   14    0    0    -17.06      0.00
   16    0    0    -19.71      0.00
   18    0    0     -9.23      0.00
   20    0    0     -5.51      0.00
   22    0    0    -11.41      0.00
   24    0    0     -6.74      0.00
   26    0    0     -8.08      0.00
   28    0    0     -3.15      0.00
   30    0    0     -2.05      0.00
   32    0    0      9.88      0.00
    1    1    0   -337.59      0.00
    3    1    0    -94.69      0.00
    5    1    0    -42.61      0.00
    7    1    0    -29.74      0.00
    9    1    0     -8.08      0.00
   11    1    0      2.10      0.00
   13    1    0     10.63      0.00
   15    1    0     17.57      0.00
   17    1    0     14.01      0.00
   19    1    0      5.08      0.00
   21    1    0      8.13      0.00
   23    1    0      9.52      0.00
   25    1    0      5.45      0.00
   27    1    0      4.62      0.00
   29    1    0      3.41      0.00
   31    1    0     -4.69      0.00
    0    2    0    289.09      0.00
    2    2    0    136.51      0.00
    4    2    0     42.56      0.00
    6    2    0     20.55      0.00
    8    2    0     16.95      0.00
   10    2    0      0.38      0.00
   12    2    0     -1.83      0.00
   14    2    0    -10.17      0.00
   16    2    0    -13.49      0.00
   18    2    0     -4.91      0.00
   20    2    0     -4.74      0.00
   22    2    0     -8.40      0.00
   24    2    0     -3.99      0.00
   26    2    0     -3.00      0.00
   28    2    0     -1.32      0.00
   30    2    0     -0.38      0.00
   32    2    0      4.95      0.00
    1    3    0   -127.34      0.00
    3    3    0    -36.83      0.00
    5    3    0     -9.65      0.00
    7    3    0     -8.30      0.00
    9    3    0     -3.52      0.00
   11    3    0     -4.85      0.00
   13    3    0      2.82      0.00
   15    3    0      5.74      0.00
   17    3    0      4.39      0.00
   19    3    0      0.10      0.00
   21    3    0      4.20      0.00
   23    3    0      3.05      0.00
   25    3    0      0.23      0.00
   27    3    0     -0.30      0.00
   29    3    0     -0.51      0.00
   31    3    0     -2.62      0.00
    0    4    0     52.47      0.00
    2    4    0     30.32      0.00
    4    4    0     -4.57      0.00
    6    4    0     -5.16      0.00
    8    4    0     -3.80      0.00
   10    4    0      9.46      0.00
   12    4    0      3.61      0.00
   14    4    0      1.48      0.00
   16    4    0      0.00      0.00
   18    4    0      4.20      0.00
   20    4    0      0.47      0.00
   22    4    0      1.13      0.00
   24    4    0      1.27      0.00
   26    4    0      1.73      0.00
   28    4    0      1.59      0.00
   30    4    0      3.73      0.00
   32    4    0      0.21      0.00
    1    5    0     -4.01      0.00
    3    5    0      7.89      0.00
    5    5    0     17.18      0.00
    7    5    0     15.18      0.00
    9    5    0     -4.98      0.00
   11    5    0    -11.71      0.00
   13    5    0     -4.09      0.00
   15    5    0     -6.01      0.00
   17    5    0     -6.93      0.00
   19    5    0     -5.59      0.00
   21    5    0     -3.06      0.00
   23    5    0     -5.55      0.00
   25    5    0     -2.98      0.00
   27    5    0     -0.83      0.00
   29    5    0     -5.55      0.00
   31    5    0     -1.20      0.00
    0    6    0    -16.37      0.00
    2    6    0    -10.86      0.00
    4    6    0    -18.77      0.00
    6    6    0    -20.74      0.00
    8    6    0     -7.84      0.00
   10    6    0     15.70      0.00
   12    6    0      7.30      0.00
   14    6    0      7.15      0.00
   16    6    0      9.09      0.00
   18    6    0      8.73      0.00
   20    6    0      3.28      0.00
   22    6    0      6.55      0.00
   24    6    0      6.17      0.00
   26    6    0      1.95      0.00
   28    6    0      2.90      0.00
   30    6    0      5.38      0.00
   32    6    0     -2.42      0.00
    1    7    0     18.43      0.00
    3    7    0     13.18      0.00
    5    7    0     16.28      0.00
    7    7    0     18.29      0.00
    9    7    0    -10.08      0.00
   11    7    0     -9.91      0.00
   13    7    0     -6.83      0.00
   15    7    0     -7.32      0.00
   17    7    0     -8.60      0.00
   19    7    0     -4.48      0.00
   21    7    0     -2.67      0.00
   23    7    0     -6.46      0.00
   25    7    0     -5.67      0.00
   27    7    0     -0.78      0.00
   29    7    0     -6.42      0.00
   31    7    0      1.27      0.00
    0    8    0    -16.52      0.00
    2    8    0    -12.71      0.00
    4    8    0     -3.80      0.00
    6    8    0    -17.84      0.00
    8    8    0     -0.34      0.00
   10    8    0      7.40      0.00
   12    8    0      6.63      0.00
   14    8    0      4.80      0.00
   16    8    0      4.46      0.00
   18    8    0      3.72      0.00
   20    8    0      0.40      0.00
   22    8    0      2.23      0.00
   24    8    0      5.36      0.00
   26    8    0      4.09      0.00
   28    8    0      2.99      0.00
   30    8    0      2.53      0.00
    1    9    0      7.81      0.00
    3    9    0     -2.72      0.00
    5    9    0      2.79      0.00
    7    9    0      7.25      0.00
    9    9    0     -3.50      0.00
   11    9    0     -2.03      0.00
   13    9    0     -6.14      0.00
   15    9    0     -0.47      0.00
   17    9    0      0.58      0.00
   19    9    0      0.92      0.00
   21    9    0      1.37      0.00
   23    9    0     -1.15      0.00
   25    9    0     -5.09      0.00
   27    9    0     -2.63      0.00
   29    9    0     -2.28      0.00
    0   10    0      2.10      0.00
    2   10    0      4.95      0.00
    4   10    0     12.87      0.00
    6   10    0     -1.18      0.00
    8   10    0      2.21      0.00
   10   10    0     -3.07      0.00
   12   10    0      5.93      0.00
   14   10    0      2.41      0.00
   16   10    0     -3.98      0.00
   18   10    0     -3.74      0.00
   20   10    0     -3.94      0.00
   22   10    0     -2.20      0.00
   24   10    0      1.44      0.00
   26   10    0      3.29      0.00
   28   10    0      0.44      0.00
   30   10    0     -0.31      0.00
    1   11    0     -8.85      0.00
    3   11    0    -17.10      0.00
    5   11    0    -13.51      0.00
    7   11    0     -5.59      0.00
    9   11    0      1.35      0.00
   11   11    0     -0.66      0.00
   13   11    0     -7.05      0.00
   15   11    0      1.94      0.00
   17   11    0      6.26      0.00
   19   11    0      4.89      0.00
   21   11    0      6.02      0.00
   23   11    0      2.07      0.00
   25   11    0     -1.42      0.00
   27   11    0      1.28      0.00
    0   12    0      9.18      0.00
    2   12    0     14.91      0.00
    4   12    0     20.47      0.00
    6   12    0     13.34      0.00
    8   12    0      5.26      0.00
   10   12    0     -2.22      0.00
   12   12    0      6.14      0.00
   14   12    0      4.23      0.00
   16   12    0     -6.30      0.00
   18   12    0     -4.58      0.00
   20   12    0     -6.88      0.00
   22   12    0     -6.29      0.00
   24   12    0     -1.41      0.00
   26   12    0     -2.20      0.00
   28   12    0     -3.58      0.00
    1   13    0     -9.32      0.00
    3   13    0    -17.30      0.00
    5   13    0    -17.24      0.00
    7   13    0    -11.27      0.00
    9   13    0     -2.08      0.00
   11   13    0     -0.66      0.00
   13   13    0     -7.92      0.00
   15   13    0      2.21      0.00
   17   13    0      6.16      0.00
   19   13    0      3.34      0.00
   21   13    0      7.34      0.00
   23   13    0      5.44      0.00
   25   13    0      1.73      0.00
   27   13    0      5.65      0.00
    0   14    0      4.25      0.00
    2   14    0      9.68      0.00
    4   14    0     13.14      0.00
    6   14    0     13.25      0.00
    8   14    0      7.50      0.00
   10   14    0      0.09      0.00
   12   14    0      4.17      0.00
   14   14    0      4.63      0.00
   16   14    0     -6.77      0.00
   18   14    0     -1.92      0.00
   20   14    0     -3.30      0.00
   22   14    0     -5.45      0.00
   24   14    0     -3.40      0.00
   26   14    0     -3.12      0.00
    1   15    0     -2.05      0.00
    3   15    0     -5.49      0.00
    5   15    0     -9.42      0.00
    7   15    0     -9.26      0.00
    9   15    0     -3.31      0.00
   11   15    0     -0.35      0.00
   13   15    0     -5.95      0.00
   15   15    0      1.49      0.00
   17   15    0      2.51      0.00
   19   15    0      0.02      0.00
   21   15    0      1.32      0.00
   23   15    0      2.43      0.00
   25   15    0      1.44      0.00
    0   16    0     -1.45      0.00
    2   16    0     -1.51      0.00
    4   16    0      2.61      0.00
    6   16    0      7.11      0.00
    8   16    0      3.41      0.00
   10   16    0      0.65      0.00
   12   16    0      2.04      0.00
   14   16    0      3.12      0.00
   16   16    0     -0.01      0.00
   18   16    0      2.53      0.00
   20   16    0      0.13      0.00
   22   16    0      2.04      0.00
   24   16    0     -0.19      0.00
    1   17    0      3.77      0.00
    3   17    0      3.34      0.00
    5   17    0     -2.40      0.00
    7   17    0     -1.49      0.00
    9   17    0      2.05      0.00
   11   17    0     -0.12      0.00
   13   17    0     -1.60      0.00
   15   17    0     -2.53      0.00
   17   17    0     -5.44      0.00
   19   17    0     -1.89      0.00
   21   17    0     -1.45      0.00
   23   17    0     -3.81      0.00
    0   18    0     -3.70      0.00
    2   18    0     -5.60      0.00
    4   18    0     -2.12      0.00
    6   18    0     -0.54      0.00
    8   18    0     -5.72      0.00
   10   18    0     -4.24      0.00
   12   18    0      0.60      0.00
   14   18    0      0.73      0.00
   16   18    0      5.24      0.00
   18   18    0      4.43      0.00
   20   18    0      0.06      0.00
    1   19    0      5.43      0.00
    3   19    0      4.81      0.00
    5   19    0      2.82      0.00
    7   19    0      5.36      0.00
    9   19    0     10.18      0.00
   11   19    0      1.32      0.00
   13   19    0     -0.72      0.00
   15   19    0     -1.28      0.00
   17   19    0     -3.05      0.00
   19   19    0     -0.94      0.00
    0   20    0     -6.81      0.00
    2   20    0     -5.31      0.00
    4   20    0     -5.05      0.00
    6   20    0     -4.15      0.00
    8   20    0     -9.95      0.00
   10   20    0     -6.76      0.00
   12   20    0      2.88      0.00
   14   20    0     -0.31      0.00
   16   20    0     -0.22      0.00
    1   21    0      5.49      0.00
    3   21    0      4.99      0.00
    5   21    0      4.86      0.00
    7   21    0      6.54      0.00
    9   21    0      8.69      0.00
   11   21    0     -0.99      0.00
   13   21    0     -2.37      0.00
    0   22    0     -3.41      0.00
    2   22    0     -2.10      0.00
    4   22    0     -5.13      0.00
    6   22    0     -4.12      0.00
    8   22    0     -7.45      0.00
   10   22    0     -1.45      0.00
    1   23    0     -0.77      0.00
    3   23    0      2.26      0.00
    5   23    0      2.35      0.00
  -31    1    1      3.49      0.00
  -29    1    1      2.81      0.00
  -27    1    1      5.77      0.00
  -25    1    1      2.97      0.00
  -23    1    1      2.51      0.00
  -21    1    1     -0.14      0.00
  -19    1    1     -0.68      0.00
  -17    1    1     -3.10      0.00
  -15    1    1     -5.44      0.00
  -13    1    1     -9.49      0.00
  -11    1    1    -11.34      0.00
   -9    1    1    -24.20      0.00
   -7    1    1    -14.01      0.00
   -5    1    1    -15.35      0.00
   -3    1    1    -41.65      0.00
   -1    1    1    -85.96      0.00
    1    1    1      0.79      0.00
    3    1    1      8.35      0.00
    5    1    1     11.62      0.00
    7    1    1      6.74      0.00
    9    1    1     14.13      0.00
   11    1    1      8.27      0.00
   13    1    1     12.70      0.00
   15    1    1     10.36      0.00
   17    1    1      4.78      0.00
   19    1    1      1.54      0.00
   21    1    1      2.18      0.00
   23    1    1     -0.07      0.00
   25    1    1      0.16      0.00
   27    1    1     -1.96      0.00
   29    1    1     -0.37      0.00
   31    1    1     -2.05      0.00
  -32    2    1      0.32      0.00
  -30    2    1     -5.02      0.00
  -28    2    1     -6.26      0.00
  -26    2    1     -7.70      0.00
  -24    2    1     -5.83      0.00
  -22    2    1     -1.67      0.00
  -20    2    1     -0.08      0.00
  -18    2    1      3.63      0.00
  -16    2    1      7.40      0.00
  -14    2    1     13.94      0.00
  -12    2    1     17.23      0.00
  -10    2    1     30.26      0.00
   -8    2    1     37.28      0.00
   -6    2    1     20.84      0.00
   -4    2    1     31.54      0.00
   -2    2    1    116.78      0.00
    0    2    1     74.66      0.00
    2    2    1    -20.33      0.00
    4    2    1     -9.44      0.00
    6    2    1    -12.28      0.00
    8    2    1    -20.55      0.00
   10    2    1    -18.80      0.00
   12    2    1    -19.00      0.00
   14    2    1    -21.88      0.00
   16    2    1    -13.91      0.00
   18    2    1     -5.67      0.00
   20    2    1     -4.19      0.00
   22    2    1     -3.10      0.00
   24    2    1      0.49      0.00
   26    2    1      1.22      0.00
   28    2    1      0.08      0.00
   30    2    1      1.61      0.00
  -33    3    1     -5.06      0.00
  -31    3    1      2.96      0.00
  -29    3    1      3.14      0.00
  -27    3    1      9.54      0.00
  -25    3    1      7.74      0.00
  -23    3    1      6.42      0.00
  -21    3    1      0.70      0.00
  -19    3    1     -1.76      0.00
  -17    3    1     -5.74      0.00
  -15    3    1    -13.55      0.00
  -13    3    1    -20.02      0.00
  -11    3    1    -22.39      0.00
   -9    3    1    -47.55      0.00
   -7    3    1    -27.92      0.00
   -5    3    1    -26.88      0.00
   -3    3    1    -60.16      0.00
   -1    3    1   -129.46      0.00
    1    3    1     -7.61      0.00
    3    3    1      4.07      0.00
    5    3    1     12.36      0.00
    7    3    1     12.62      0.00
    9    3    1     30.82      0.00
   11    3    1     19.52      0.00
   13    3    1     27.37      0.00
   15    3    1     22.95      0.00
   17    3    1     11.37      0.00
   19    3    1      6.60      0.00
   21    3    1      7.09      0.00
   23    3    1      0.76      0.00
   25    3    1     -0.05      0.00
   27    3    1     -0.51      0.00
   29    3    1      2.70      0.00
   31    3    1      0.22      0.00
  -32    4    1      4.49      0.00
  -30    4    1     -3.16      0.00
  -28    4    1     -4.41      0.00
  -26    4    1    -10.14      0.00
  -24    4    1     -8.23      0.00
  -22    4    1     -3.14      0.00
  -20    4    1     -0.09      0.00
  -18    4    1      2.53      0.00
  -16    4    1      8.25      0.00
  -14    4    1     16.24      0.00
  -12    4    1     18.87      0.00
  -10    4    1     29.30      0.00
   -8    4    1     40.05      0.00
   -6    4    1     19.07      0.00
   -4    4    1     28.69      0.00
   -2    4    1     83.01      0.00
    0    4    1     61.71      0.00
    2    4    1     -3.00      0.00
    4    4    1     -2.42      0.00
    6    4    1     -4.90      0.00
    8    4    1    -27.17      0.00
   10    4    1    -22.86      0.00
   12    4    1    -24.71      0.00
   14    4    1    -24.89      0.00
   16    4    1    -16.22      0.00
   18    4    1     -7.75      0.00
   20    4    1     -7.11      0.00
   22    4    1     -5.56      0.00
   24    4    1      0.02      0.00
   26    4    1      0.58      0.00
   28    4    1     -3.98      0.00
   30    4    1     -0.66      0.00
   32    4    1     -6.32      0.00
  -33    5    1     -4.52      0.00
  -31    5    1     -0.28      0.00
  -29    5    1      2.58      0.00
  -27    5    1      8.14      0.00
  -25    5    1      8.85      0.00
  -23    5    1      4.18      0.00
  -21    5    1      1.27      0.00
  -19    5    1     -0.96      0.00
  -17    5    1     -0.98      0.00
  -15    5    1     -8.57      0.00
  -13    5    1    -12.17      0.00
  -11    5    1    -14.15      0.00
   -9    5    1    -26.87      0.00
   -7    5    1    -18.06      0.00
   -5    5    1    -16.04      0.00
   -3    5    1    -37.06      0.00
   -1    5    1    -63.09      0.00
    1    5    1    -17.17      0.00
    3    5    1      1.37      0.00
    5    5    1      0.62      0.00
    7    5    1     11.67      0.00
    9    5    1     22.35      0.00
   11    5    1     18.69      0.00
   13    5    1     19.98      0.00
   15    5    1     15.48      0.00
   17    5    1      6.43      0.00
   19    5    1      4.40      0.00
   21    5    1      4.76      0.00
   23    5    1      2.87      0.00
   25    5    1     -0.24      0.00
   27    5    1      0.85      0.00
   29    5    1      2.21      0.00
   31    5    1      1.40      0.00
  -32    6    1      2.97      0.00
  -30    6    1     -2.21      0.00
  -28    6    1     -4.81      0.00
  -26    6    1     -8.34      0.00
  -24    6    1     -3.18      0.00
  -22    6    1     -0.47      0.00
  -20    6    1      0.24      0.00
  -18    6    1     -0.55      0.00
  -16    6    1     -0.29      0.00
  -14    6    1      1.18      0.00
  -12    6    1      6.67      0.00
  -10    6    1      5.30      0.00
   -8    6    1     10.19      0.00
   -6    6    1      1.44      0.00
   -4    6    1     18.91      0.00
   -2    6    1     39.39      0.00
    0    6    1     32.52      0.00
    2    6    1      2.40      0.00
    4    6    1     -3.95      0.00
    6    6    1      1.35      0.00
    8    6    1    -11.35      0.00
   10    6    1     -9.01      0.00
   12    6    1    -14.14      0.00
   14    6    1     -7.63      0.00
   16    6    1     -3.11      0.00
   18    6    1     -0.60      0.00
   20    6    1      0.40      0.00
   22    6    1     -1.78      0.00
   24    6    1     -2.17      0.00
   26    6    1      0.84      0.00
   28    6    1     -0.35      0.00
   30    6    1      1.54      0.00
  -31    7    1     -1.08      0.00
  -29    7    1      2.90      0.00
  -27    7    1      5.40      0.00
  -25    7    1      2.15      0.00
  -23    7    1     -2.21      0.00
  -21    7    1     -0.66      0.00
  -19    7    1     -1.57      0.00
  -17    7    1      3.15      0.00
  -15    7    1      6.86      0.00
  -13    7    1      6.16      0.00
  -11    7    1      1.04      0.00
   -9    7    1      9.55      0.00
   -7    7    1      9.64      0.00
   -5    7    1      4.17      0.00
   -3    7    1    -22.98      0.00
   -1    7    1    -28.43      0.00
    1    7    1    -14.93      0.00
    3    7    1      7.01      0.00
    5    7    1     -3.44      0.00
    7    7    1     -3.03      0.00
    9    7    1     -5.87      0.00
   11    7    1      5.49      0.00
   13    7    1      0.83      0.00
   15    7    1     -3.35      0.00
   17    7    1     -4.47      0.00
   19    7    1     -2.58      0.00
   21    7    1     -4.17      0.00
   23    7    1      1.71      0.00
   25    7    1      1.77      0.00
   27    7    1     -1.36      0.00
   29    7    1     -2.31      0.00
   31    7    1      0.07      0.00
  -32    8    1      0.77      0.00
  -30    8    1      1.75      0.00
  -28    8    1     -2.49      0.00
  -26    8    1     -0.12      0.00
  -24    8    1      3.69      0.00
  -22    8    1      3.51      0.00
  -20    8    1      1.90      0.00
  -18    8    1      0.32      0.00
  -16    8    1     -8.58      0.00
  -14    8    1    -15.90      0.00
  -12    8    1     -8.81      0.00
  -10    8    1    -14.27      0.00
   -8    8    1    -24.88      0.00
   -6    8    1    -21.74      0.00
   -4    8    1     -1.07      0.00
   -2    8    1     17.45      0.00
    0    8    1     18.04      0.00
    2    8    1      1.68      0.00
    4    8    1     -2.56      0.00
    6    8    1     10.07      0.00
    8    8    1     19.02      0.00
   10    8    1      9.80      0.00
   12    8    1      2.14      0.00
   14    8    1      8.77      0.00
   16    8    1     10.11      0.00
   18    8    1      4.61      0.00
   20    8    1      5.87      0.00
   22    8    1      2.96      0.00
   24    8    1     -2.75      0.00
   26    8    1     -1.35      0.00
   28    8    1      1.86      0.00
   30    8    1      0.00      0.00
  -31    9    1     -3.15      0.00
  -29    9    1     -2.35      0.00
  -27    9    1     -1.31      0.00
  -25    9    1     -4.23      0.00
  -23    9    1     -5.33      0.00
  -21    9    1     -2.67      0.00
  -19    9    1     -1.27      0.00
  -17    9    1      4.65      0.00
  -15    9    1     16.64      0.00
  -13    9    1     18.07      0.00
  -11    9    1     13.35      0.00
   -9    9    1     27.28      0.00
   -7    9    1     33.75      0.00
   -5    9    1     19.91      0.00
   -3    9    1      0.34      0.00
   -1    9    1    -11.70      0.00
    1    9    1     -8.60      0.00
    3    9    1      2.64      0.00
    5    9    1     -4.56      0.00
    7    9    1    -22.95      0.00
    9    9    1    -23.76      0.00
   11    9    1     -8.15      0.00
   13    9    1     -9.07      0.00
   15    9    1    -12.46      0.00
   17    9    1     -9.35      0.00
   19    9    1     -4.64      0.00
   21    9    1     -5.82      0.00
   23    9    1      0.65      0.00
   25    9    1      2.45      0.00
   27    9    1      1.73      0.00
   29    9    1      1.16      0.00
  -30   10    1      4.04      0.00
  -28   10    1      3.22      0.00
  -26   10    1      3.92      0.00
  -24   10    1      4.40      0.00
  -22   10    1      4.11      0.00
  -20   10    1     -0.77      0.00
  -18   10    1     -2.06      0.00
  -16   10    1    -11.85      0.00
  -14   10    1    -19.02      0.00
  -12   10    1    -16.09      0.00
  -10   10    1    -19.99      0.00
   -8   10    1    -33.43      0.00
   -6   10    1    -28.87      0.00
   -4   10    1    -12.96      0.00
   -2   10    1      1.05      0.00
    0   10    1      8.34      0.00
    2   10    1      0.99      0.00
    4   10    1     -2.10      0.00
    6   10    1     14.70      0.00
    8   10    1     27.03      0.00
   10   10    1     16.39      0.00
   12   10    1      8.58      0.00
   14   10    1     10.14      0.00
   16   10    1     11.61      0.00
   18   10    1      5.83      0.00
   20   10    1      6.05      0.00
   22   10    1      1.90      0.00
   24   10    1     -0.86      0.00
   26   10    1     -2.40      0.00
   28   10    1     -4.65      0.00
  -29   11    1     -3.53      0.00
  -27   11    1     -2.98      0.00
  -25   11    1     -2.84      0.00
  -23   11    1     -3.18      0.00
  -21   11    1      1.48      0.00
  -19   11    1      3.80      0.00
  -17   11    1      6.51      0.00
  -15   11    1     14.94      0.00
  -13   11    1     13.90      0.00
  -11   11    1     15.96      0.00
   -9   11    1     22.53      0.00
   -7   11    1     28.26      0.00
   -5   11    1     15.55      0.00
   -3   11    1      7.23      0.00
   -1   11    1     -5.79      0.00
    1   11    1     -2.11      0.00
    3   11    1      1.78      0.00
    5   11    1     -3.03      0.00
    7   11    1    -19.72      0.00
    9   11    1    -17.84      0.00
   11   11    1    -11.25      0.00
   13   11    1     -6.31      0.00
   15   11    1     -9.27      0.00
   17   11    1     -7.09      0.00
   19   11    1     -4.73      0.00
   21   11    1     -4.89      0.00
   23   11    1     -0.42      0.00
   25   11    1     -0.75      0.00
   27   11    1      5.16      0.00
  -28   12    1      1.39      0.00
  -26   12    1      1.53      0.00
  -24   12    1      1.19      0.00
  -22   12    1     -1.67      0.00
  -20   12    1     -5.57      0.00
  -18   12    1     -4.38      0.00
  -16   12    1     -9.03      0.00
  -14   12    1     -9.84      0.00
  -12   12    1     -8.79      0.00
  -10   12    1    -15.06      0.00
   -8   12    1    -18.09      0.00
   -6   12    1    -13.68      0.00
   -4   12    1     -6.51      0.00
   -2   12    1      0.64      0.00
    0   12    1      4.28      0.00
    2   12    1     -0.49      0.00
    4   12    1     -0.07      0.00
    6   12    1      8.56      0.00
    8   12    1     11.84      0.00
   10   12    1     11.26      0.00
   12   12    1      5.28      0.00
   14   12    1      4.63      0.00
   16   12    1      5.64      0.00
   18   12    1      2.76      0.00
   20   12    1      3.64      0.00
   22   12    1      2.84      0.00
   24   12    1      2.39      0.00
   26   12    1     -1.27      0.00
  -27   13    1      0.20      0.00
  -25   13    1     -0.26      0.00
  -23   13    1      2.02      0.00
  -21   13    1      5.69      0.00
  -19   13    1      3.89      0.00
  -17   13    1      4.69      0.00
  -15   13    1      5.61      0.00
  -13   13    1      1.37      0.00
  -11   13    1      6.82      0.00
   -9   13    1      9.14      0.00
   -7   13    1      7.71      0.00
   -5   13    1      1.25      0.00
   -3   13    1      0.51      0.00
   -1   13    1     -4.47      0.00
    1   13    1     -1.25      0.00
    3   13    1     -1.29      0.00
    5   13    1     -2.49      0.00
    7   13    1     -4.67      0.00
    9   13    1     -4.69      0.00
   11   13    1     -5.63      0.00
   13   13    1     -0.71      0.00
   15   13    1     -1.07      0.00
   17   13    1     -1.25      0.00
   19   13    1      1.21      0.00
   21   13    1     -1.24      0.00
   23   13    1     -2.95      0.00
   25   13    1     -1.42      0.00
  -26   14    1      0.80      0.00
  -24   14    1     -2.65      0.00
  -22   14    1     -4.06      0.00
  -20   14    1     -3.69      0.00
  -18   14    1     -2.79      0.00
  -16   14    1     -2.14      0.00
  -14   14    1      3.22      0.00
  -12   14    1      2.50      0.00
  -10   14    1     -2.14      0.00
   -8   14    1     -0.43      0.00
   -6   14    1      2.79      0.00
   -4   14    1      4.57      0.00
   -2   14    1      3.98      0.00
    0   14    1      3.36      0.00
    2   14    1      1.39      0.00
    4   14    1      1.40      0.00
    6   14    1      0.45      0.00
    8   14    1     -1.60      0.00
   10   14    1      1.13      0.00
   12   14    1      0.50      0.00
   14   14    1     -4.76      0.00
   16   14    1     -3.17      0.00
   18   14    1     -2.70      0.00
   20   14    1     -4.52      0.00
   22   14    1     -0.58      0.00
   24   14    1      3.03      0.00
  -25   15    1      1.16      0.00
  -23   15    1      3.06      0.00
  -21   15    1      2.97      0.00
  -19   15    1      1.39      0.00
  -17   15    1      2.46      0.00
  -15   15    1     -6.34      0.00
  -13   15    1     -8.48      0.00
  -11   15    1     -4.33      0.00
   -9   15    1     -5.39      0.00
   -7   15    1     -6.39      0.00
   -5   15    1     -7.46      0.00
   -3   15    1     -7.06      0.00
   -1   15    1     -4.31      0.00
    1   15    1     -2.08      0.00
    3   15    1      0.20      0.00
    5   15    1      0.38      0.00
    7   15    1      3.34      0.00
    9   15    1      4.01      0.00
   11   15    1      0.83      0.00
   13   15    1      4.82      0.00
   15   15    1     11.07      0.00
   17   15    1      3.71      0.00
   19   15    1      5.82      0.00
   21   15    1      5.94      0.00
   23   15    1     -0.44      0.00
  -24   16    1     -3.03      0.00
  -22   16    1     -1.09      0.00
  -20   16    1     -1.96      0.00
  -18   16    1     -1.34      0.00
  -16   16    1      3.26      0.00
  -14   16    1     12.22      0.00
  -12   16    1      7.68      0.00
  -10   16    1      7.84      0.00
   -8   16    1      9.43      0.00
   -6   16    1      7.66      0.00
   -4   16    1      7.24      0.00
   -2   16    1      6.22      0.00
    0   16    1      2.88      0.00
    2   16    1     -0.91      0.00
    4   16    1     -1.15      0.00
    6   16    1     -2.10      0.00
    8   16    1     -3.64      0.00
   10   16    1     -3.59      0.00
   12   16    1     -1.66      0.00
   14   16    1    -11.81      0.00
   16   16    1     -8.98      0.00
   18   16    1     -3.60      0.00
   20   16    1     -5.41      0.00
   22   16    1     -4.38      0.00
  -23   17    1      0.51      0.00
  -21   17    1      2.80      0.00
  -19   17    1     -0.68      0.00
  -17   17    1     -0.05      0.00
  -15   17    1     -9.56      0.00
  -13   17    1     -8.54      0.00
  -11   17    1     -6.61      0.00
   -9   17    1     -7.83      0.00
   -7   17    1     -8.06      0.00
   -5   17    1     -4.25      0.00
   -3   17    1     -5.16      0.00
   -1   17    1     -4.19      0.00
    1   17    1      0.10      0.00
    3   17    1      2.19      0.00
    5   17    1      0.80      0.00
    7   17    1      1.60      0.00
    9   17    1      0.95      0.00
   11   17    1      1.96      0.00
   13   17    1      3.63      0.00
   15   17    1     10.68      0.00
   17   17    1      2.44      0.00
   19   17    1      2.94      0.00
   21   17    1      2.48      0.00
  -20   18    1     -1.52      0.00
  -18   18    1      3.41      0.00
  -16   18    1      2.84      0.00
  -14   18    1      6.79      0.00
  -12   18    1      3.01      0.00
  -10   18    1      2.78      0.00
   -8   18    1      4.60      0.00
   -6   18    1      3.34      0.00
   -4   18    1      1.12      0.00
   -2   18    1      3.66      0.00
    0   18    1      1.58      0.00
    2   18    1     -2.34      0.00
    4   18    1     -0.97      0.00
    6   18    1     -1.10      0.00
    8   18    1      2.14      0.00
   10   18    1      0.28      0.00
   12   18    1      0.69      0.00
   14   18    1     -3.11      0.00
   16   18    1     -1.06      0.00
   18   18    1     -0.77      0.00
   20   18    1      0.18      0.00
  -19   19    1     -4.10      0.00
  -17   19    1     -2.63      0.00
  -15   19    1     -2.60      0.00
  -13   19    1     -0.44      0.00
  -11   19    1      2.35      0.00
   -9   19    1      2.13      0.00
   -7   19    1     -1.35      0.00
   -5   19    1      0.07      0.00
   -3   19    1      0.18      0.00
   -1   19    1     -2.37      0.00
    1   19    1      1.95      0.00
    3   19    1      1.39      0.00
    5   19    1      1.33      0.00
    7   19    1     -0.74      0.00
    9   19    1     -3.86      0.00
   11   19    1     -1.55      0.00
   13   19    1     -3.48      0.00
   15   19    1     -2.17      0.00
   17   19    1     -3.06      0.00
  -18   20    1      4.65      0.00
  -16   20    1      1.13      0.00
  -14   20    1      0.50      0.00
  -12   20    1     -3.41      0.00
  -10   20    1     -8.02      0.00
   -8   20    1     -2.70      0.00
   -6   20    1     -1.27      0.00
   -4   20    1     -1.30      0.00
   -2   20    1     -1.46      0.00
    0   20    1     -1.27      0.00
    2   20    1     -2.01      0.00
    4   20    1     -0.83      0.00
    6   20    1     -0.44      0.00
    8   20    1      2.08      0.00
   10   20    1      3.48      0.00
   12   20    1      4.28      0.00
   14   20    1      4.17      0.00
   16   20    1      4.80      0.00
  -15   21    1     -1.38      0.00
  -13   21    1     -0.53      0.00
  -11   21    1      7.61      0.00
   -9   21    1      7.65      0.00
   -7   21    1      3.28      0.00
   -5   21    1      1.87      0.00
   -3   21    1      3.32      0.00
   -1   21    1      4.00      0.00
    1   21    1      2.33      0.00
    3   21    1      0.28      0.00
    5   21    1     -0.66      0.00
    7   21    1     -0.33      0.00
    9   21    1     -2.04      0.00
   11   21    1     -4.19      0.00
   13   21    1     -3.60      0.00
  -10   22    1     -8.98      0.00
   -8   22    1     -5.14      0.00
   -6   22    1     -4.44      0.00
   -4   22    1     -1.33      0.00
   -2   22    1     -5.38      0.00
    0   22    1     -3.70      0.00
    2   22    1      0.09      0.00
    4   22    1      0.97      0.00
    6   22    1      2.09      0.00
    8   22    1     -0.46      0.00
   10   22    1      2.83      0.00
   12   22    1      2.89      0.00
   -7   23    1      4.67      0.00
   -5   23    1      2.34      0.00
   -3   23    1      0.45      0.00
   -1   23    1      4.21      0.00
    1   23    1     -0.43      0.00
    3   23    1     -0.22      0.00
    5   23    1     -2.68      0.00
  -32    0    2      2.56      0.00
  -30    0    2     -1.29      0.00
  -28    0    2      2.64      0.00
  -26    0    2     -0.98      0.00
  -24    0    2     -2.78      0.00
  -22    0    2     -9.55      0.00
  -20    0    2    -11.36      0.00
  -18    0    2    -19.60      0.00
  -16    0    2    -25.43      0.00
  -14    0    2    -24.29      0.00
  -12    0    2    -19.76      0.00
  -10    0    2    -34.95      0.00
   -8    0    2      2.22      0.00
   -6    0    2     -0.69      0.00
   -4    0    2    -79.09      0.00
   -2    0    2   -137.21      0.00
    0    0    2    108.33      0.00
    2    0    2     88.48      0.00
    4    0    2     53.51      0.00
    6    0    2     25.02      0.00
    8    0    2     25.70      0.00
   10    0    2     14.47      0.00
   12    0    2     24.06      0.00
   14    0    2      9.41      0.00
   16    0    2    -11.97      0.00
   18    0    2    -10.42      0.00
   20    0    2     -7.54      0.00
   22    0    2    -14.96      0.00
   24    0    2    -10.87      0.00
   26    0    2     -7.84      0.00
   28    0    2     -1.70      0.00
   30    0    2     -3.09      0.00
  -33    1    2      2.56      0.00
  -31    1    2     -0.44      0.00
  -29    1    2      0.22      0.00
  -27    1    2     -0.55      0.00
  -25    1    2      0.11      0.00
  -23    1    2      7.27      0.00
  -21    1    2      8.32      0.00
  -19    1    2     14.39      0.00
  -17    1    2     21.06      0.00
  -15    1    2     23.98      0.00
  -13    1    2     18.90      0.00
  -11    1    2     24.04      0.00
   -9    1    2     19.28      0.00
   -7    1    2     -8.40      0.00
   -5    1    2     22.86      0.00
   -3    1    2    131.27      0.00
   -1    1    2     20.22      0.00
    1    1    2   -113.12      0.00
    3    1    2    -51.99      0.00
    5    1    2    -30.36      0.00
    7    1    2    -23.07      0.00
    9    1    2    -12.69      0.00
   11    1    2    -19.87      0.00
   13    1    2    -15.89      0.00
   15    1    2      2.10      0.00
   17    1    2     12.96      0.00
   19    1    2      6.37      0.00
   21    1    2     10.30      0.00
   23    1    2     13.78      0.00
   25    1    2      7.64      0.00
   27    1    2      2.88      0.00
   29    1    2      2.02      0.00
  -32    2    2     -2.16      0.00
  -30    2    2     -1.95      0.00
  -28    2    2      0.19      0.00
  -26    2    2      0.38      0.00
  -24    2    2     -1.68      0.00
  -22    2    2     -6.54      0.00
  -20    2    2     -8.08      0.00
  -18    2    2    -11.98      0.00
  -16    2    2    -18.48      0.00
  -14    2    2    -16.54      0.00
  -12    2    2    -11.39      0.00
  -10    2    2    -18.39      0.00
   -8    2    2      1.13      0.00
   -6    2    2     -5.28      0.00
   -4    2    2    -53.74      0.00
   -2    2    2    -94.85      0.00
    0    2    2     48.02      0.00
    2    2    2     48.41      0.00
    4    2    2     21.33      0.00
    6    2    2      8.92      0.00
    8    2    2      9.39      0.00
   10    2    2      7.47      0.00
   12    2    2     13.67      0.00
   14    2    2      4.90      0.00
   16    2    2     -9.76      0.00
   18    2    2     -6.18      0.00
   20    2    2     -5.07      0.00
   22    2    2    -11.20      0.00
   24    2    2     -7.94      0.00
   26    2    2     -2.52      0.00
   28    2    2      1.17      0.00
   30    2    2      0.34      0.00
  -33    3    2      4.96      0.00
  -31    3    2      1.81      0.00
  -29    3    2      0.96      0.00
  -27    3    2     -0.36      0.00
  -25    3    2     -1.44      0.00
  -23    3    2      2.10      0.00
  -21    3    2      3.74      0.00
  -19    3    2      3.23      0.00
  -17    3    2      6.97      0.00
  -15    3    2      9.28      0.00
  -13    3    2      6.46      0.00
  -11    3    2      1.71      0.00
   -9    3    2      2.03      0.00
   -7    3    2      2.35      0.00
   -5    3    2     21.62      0.00
   -3    3    2     60.53      0.00
   -1    3    2     33.19      0.00
    1    3    2    -23.87      0.00
    3    3    2     -6.95      0.00
    5    3    2      8.15      0.00
    7    3    2      5.22      0.00
    9    3    2      5.91      0.00
   11    3    2     -4.74      0.00
   13    3    2     -1.98      0.00
   15    3    2      4.02      0.00
   17    3    2      6.90      0.00
   19    3    2      1.59      0.00
   21    3    2      4.46      0.00
   23    3    2      6.98      0.00
   25    3    2      2.22      0.00
   27    3    2     -1.80      0.00
   29    3    2     -2.48      0.00
   31    3    2     -2.56      0.00
  -32    4    2     -3.07      0.00
  -30    4    2      1.12      0.00
  -28    4    2     -0.25      0.00
  -26    4    2      2.34      0.00
  -24    4    2      1.60      0.00
  -22    4    2      1.28      0.00
  -20    4    2      0.91      0.00
  -18    4    2      4.65      0.00
  -16    4    2      2.18      0.00
  -14    4    2      1.04      0.00
  -12    4    2      5.15      0.00
  -10    4    2     12.20      0.00
   -8    4    2      0.63      0.00
   -6    4    2    -15.29      0.00
   -4    4    2    -33.83      0.00
   -2    4    2    -40.69      0.00
    0    4    2    -21.61      0.00
    2    4    2     -1.61      0.00
    4    4    2    -21.95      0.00
    6    4    2    -22.48      0.00
    8    4    2    -23.94      0.00
   10    4    2     -6.50      0.00
   12    4    2     -5.96      0.00
   14    4    2     -3.68      0.00
   16    4    2     -6.42      0.00
   18    4    2     -0.63      0.00
   20    4    2     -0.45      0.00
   22    4    2     -0.78      0.00
   24    4    2     -2.25      0.00
   26    4    2      0.53      0.00
   28    4    2      2.48      0.00
   30    4    2      3.90      0.00
  -33    5    2     -0.01      0.00
  -31    5    2      0.72      0.00
  -29    5    2     -3.02      0.00
  -27    5    2     -0.22      0.00
  -25    5    2     -3.67      0.00
  -23    5    2     -5.16      0.00
  -21    5    2     -4.21      0.00
  -19    5    2     -8.30      0.00
  -17    5    2    -12.51      0.00
  -15    5    2    -12.35      0.00
  -13    5    2     -8.39      0.00
  -11    5    2    -19.43      0.00
   -9    5    2    -16.66      0.00
   -7    5    2      9.01      0.00
   -5    5    2     25.36      0.00
   -3    5    2     32.50      0.00
   -1    5    2     34.86      0.00
    1    5    2     23.57      0.00
    3    5    2     22.10      0.00
    5    5    2     34.20      0.00
    7    5    2     40.47      0.00
    9    5    2     23.10      0.00
   11    5    2     11.59      0.00
   13    5    2      9.75      0.00
   15    5    2      5.33      0.00
   17    5    2      1.35      0.00
   19    5    2     -1.34      0.00
   21    5    2     -2.15      0.00
   23    5    2     -2.52      0.00
   25    5    2      0.33      0.00
   27    5    2      0.53      0.00
   29    5    2     -5.16      0.00
   31    5    2     -1.36      0.00
  -32    6    2     -2.61      0.00
  -30    6    2      2.25      0.00
  -28    6    2      0.84      0.00
  -26    6    2      1.78      0.00
  -24    6    2      6.75      0.00
  -22    6    2      7.81      0.00
  -20    6    2      7.72      0.00
  -18    6    2     13.81      0.00
  -16    6    2     20.28      0.00
  -14    6    2     15.18      0.00
  -12    6    2     16.50      0.00
  -10    6    2     27.04      0.00
   -8    6    2      6.18      0.00
   -6    6    2    -16.09      0.00
   -4    6    2    -26.65      0.00
   -2    6    2    -30.03      0.00
    0    6    2    -38.91      0.00
    2    6    2    -28.25      0.00
    4    6    2    -32.90      0.00
    6    6    2    -46.25      0.00
    8    6    2    -41.90      0.00
   10    6    2    -17.30      0.00
   12    6    2    -15.67      0.00
   14    6    2     -7.02      0.00
   16    6    2     -2.44      0.00
   18    6    2      3.03      0.00
   20    6    2      1.19      0.00
   22    6    2      5.27      0.00
   24    6    2      2.39      0.00
   26    6    2     -1.40      0.00
   28    6    2      2.03      0.00
   30    6    2      5.74      0.00
  -33    7    2      1.53      0.00
  -31    7    2      4.11      0.00
  -29    7    2     -2.79      0.00
  -27    7    2      1.50      0.00
  -25    7    2     -5.62      0.00
  -23    7    2     -8.87      0.00
  -21    7    2     -8.59      0.00
  -19    7    2    -10.24      0.00
  -17    7    2    -17.76      0.00
  -15    7    2    -19.34      0.00
  -13    7    2    -15.36      0.00
  -11    7    2    -20.20      0.00
   -9    7    2    -19.98      0.00
   -7    7    2      8.02      0.00
   -5    7    2     15.04      0.00
   -3    7    2     21.68      0.00
   -1    7    2     34.46      0.00
    1    7    2     39.70      0.00
    3    7    2     29.16      0.00
    5    7    2     37.02      0.00
    7    7    2     50.68      0.00
    9    7    2     26.09      0.00
   11    7    2     19.00      0.00
   13    7    2     10.50      0.00
   15    7    2      4.22      0.00
   17    7    2     -1.81      0.00
   19    7    2     -2.58      0.00
   21    7    2     -2.46      0.00
   23    7    2     -4.12      0.00
   25    7    2     -1.08      0.00
   27    7    2      0.64      0.00
   29    7    2     -7.21      0.00
  -32    8    2     -4.81      0.00
  -30    8    2     -1.48      0.00
  -28    8    2     -0.28      0.00
  -26    8    2      0.90      0.00
  -24    8    2      7.46      0.00
  -22    8    2      8.65      0.00
  -20    8    2      9.20      0.00
  -18    8    2     10.56      0.00
  -16    8    2     15.31      0.00
  -14    8    2     11.99      0.00
  -12    8    2     14.16      0.00
  -10    8    2     13.10      0.00
   -8    8    2      3.05      0.00
   -6    8    2    -15.03      0.00
   -4    8    2     -7.06      0.00
   -2    8    2    -20.85      0.00
    0    8    2    -33.44      0.00
    2    8    2    -31.16      0.00
    4    8    2    -19.59      0.00
    6    8    2    -41.59      0.00
    8    8    2    -30.85      0.00
   10    8    2    -21.21      0.00
   12    8    2    -13.40      0.00
   14    8    2     -5.83      0.00
   16    8    2     -1.80      0.00
   18    8    2      2.03      0.00
   20    8    2      0.84      0.00
   22    8    2      1.94      0.00
   24    8    2      0.63      0.00
   26    8    2      1.50      0.00
   28    8    2      4.20      0.00
   30    8    2      5.58      0.00
  -31    9    2      3.30      0.00
  -29    9    2      0.12      0.00
  -27    9    2      1.67      0.00
  -25    9    2     -3.09      0.00
  -23    9    2     -6.39      0.00
  -21    9    2     -8.39      0.00
  -19    9    2     -7.83      0.00
  -17    9    2     -7.59      0.00
  -15    9    2     -4.57      0.00
  -13    9    2     -7.88      0.00
  -11    9    2     -4.85      0.00
   -9    9    2     -0.38      0.00
   -7    9    2     13.75      0.00
   -5    9    2      8.55      0.00
   -3    9    2      3.14      0.00
   -1    9    2     15.59      0.00
    1    9    2     22.29      0.00
    3    9    2      9.52      0.00
    5    9    2     17.30      0.00
    7    9    2     25.23      0.00
    9    9    2     17.99      0.00
   11    9    2     15.67      0.00
   13    9    2      6.27      0.00
   15    9    2      2.92      0.00
   17    9    2      2.25      0.00
   19    9    2      0.45      0.00
   21    9    2      0.80      0.00
   23    9    2      2.53      0.00
   25    9    2     -0.69      0.00
   27    9    2     -3.90      0.00
   29    9    2     -5.08      0.00
  -30   10    2     -0.17      0.00
  -28   10    2     -1.66      0.00
  -26   10    2     -1.47      0.00
  -24   10    2      1.87      0.00
  -22   10    2      5.52      0.00
  -20   10    2      5.98      0.00
  -18   10    2      4.51      0.00
  -16   10    2     -1.22      0.00
  -14   10    2     -3.28      0.00
  -12   10    2      3.09      0.00
  -10   10    2     -8.09      0.00
   -8   10    2    -11.99      0.00
   -6   10    2    -17.19      0.00
   -4   10    2      1.45      0.00
   -2   10    2      0.67      0.00
    0   10    2     -3.74      0.00
    2   10    2     -3.72      0.00
    4   10    2      3.93      0.00
    6   10    2     -9.17      0.00
    8   10    2     -7.32      0.00
   10   10    2    -13.69      0.00
   12   10    2     -6.03      0.00
   14   10    2     -1.58      0.00
   16   10    2     -2.64      0.00
   18   10    2     -3.53      0.00
   20   10    2     -3.27      0.00
   22   10    2     -4.64      0.00
   24   10    2     -4.14      0.00
   26   10    2      3.19      0.00
   28   10    2      3.84      0.00
  -29   11    2      0.01      0.00
  -27   11    2      3.85      0.00
  -25   11    2      2.74      0.00
  -23   11    2     -0.84      0.00
  -21   11    2     -1.66      0.00
  -19   11    2     -3.02      0.00
  -17   11    2      1.95      0.00
  -15   11    2      9.85      0.00
  -13   11    2      4.31      0.00
  -11   11    2      6.98      0.00
   -9   11    2     15.95      0.00
   -7   11    2     17.98      0.00
   -5   11    2      7.73      0.00
   -3   11    2     -7.43      0.00
   -1   11    2     -9.04      0.00
    1   11    2     -5.14      0.00
    3   11    2    -10.56      0.00
    5   11    2     -8.24      0.00
    7   11    2     -4.54      0.00
    9   11    2      3.32      0.00
   11   11    2      5.53      0.00
   13   11    2     -0.56      0.00
   15   11    2     -1.21      0.00
   17   11    2      3.51      0.00
   19   11    2      3.86      0.00
   21   11    2      6.21      0.00
   23   11    2      7.07      0.00
   25   11    2      0.67      0.00
   27   11    2     -2.27      0.00
  -28   12    2     -3.16      0.00
  -26   12    2     -4.61      0.00
  -24   12    2     -4.23      0.00
  -22   12    2     -2.25      0.00
  -20   12    2     -2.29      0.00
  -18   12    2     -0.14      0.00
  -16   12    2     -9.98      0.00
  -14   12    2    -11.12      0.00
  -12   12    2     -6.57      0.00
  -10   12    2    -16.12      0.00
   -8   12    2    -17.43      0.00
   -6   12    2    -13.98      0.00
   -4   12    2      1.91      0.00
   -2   12    2     13.06      0.00
    0   12    2     11.61      0.00
    2   12    2     10.75      0.00
    4   12    2     14.85      0.00
    6   12    2     12.66      0.00
    8   12    2      8.13      0.00
   10   12    2     -1.04      0.00
   12   12    2      1.43      0.00
   14   12    2      5.63      0.00
   16   12    2     -0.12      0.00
   18   12    2     -1.75      0.00
   20   12    2     -4.26      0.00
   22   12    2     -7.53      0.00
   24   12    2     -3.76      0.00
   26   12    2     -0.03      0.00
  -27   13    2      4.37      0.00
  -25   13    2      4.75      0.00
  -23   13    2      5.94      0.00
  -21   13    2      5.97      0.00
  -19   13    2      2.05      0.00
  -17   13    2      6.49      0.00
  -15   13    2     12.84      0.00
  -13   13    2      8.03      0.00
  -11   13    2     13.09      0.00
   -9   13    2     17.86      0.00
   -7   13    2     13.86      0.00
   -5   13    2      6.01      0.00
   -3   13    2     -8.72      0.00
   -1   13    2    -13.74      0.00
    1   13    2    -10.56      0.00
    3   13    2    -12.88      0.00
    5   13    2    -14.19      0.00
    7   13    2    -12.40      0.00
    9   13    2     -6.53      0.00
   11   13    2     -1.16      0.00
   13   13    2     -8.17      0.00
   15   13    2     -4.65      0.00
   17   13    2      0.49      0.00
   19   13    2     -0.16      0.00
   21   13    2      3.62      0.00
   23   13    2      5.13      0.00
   25   13    2      0.28      0.00
  -26   14    2     -2.18      0.00
  -24   14    2     -6.23      0.00
  -22   14    2     -5.84      0.00
  -20   14    2     -5.33      0.00
  -18   14    2     -2.79      0.00
  -16   14    2    -11.37      0.00
  -14   14    2     -7.59      0.00
  -12   14    2     -8.06      0.00
  -10   14    2    -16.15      0.00
   -8   14    2    -13.16      0.00
   -6   14    2     -7.10      0.00
   -4   14    2      1.21      0.00
   -2   14    2     11.28      0.00
    0   14    2     10.19      0.00
    2   14    2      9.80      0.00
    4   14    2     10.03      0.00
    6   14    2     10.73      0.00
    8   14    2      8.85      0.00
   10   14    2      3.70      0.00
   12   14    2      5.42      0.00
   14   14    2      9.69      0.00
   16   14    2      0.49      0.00
   18   14    2      0.92      0.00
   20   14    2      1.09      0.00
   22   14    2     -1.83      0.00
   24   14    2     -0.97      0.00
  -25   15    2      2.58      0.00
  -23   15    2      3.95      0.00
  -21   15    2      3.67      0.00
  -19   15    2      2.99      0.00
  -17   15    2      5.05      0.00
  -15   15    2      7.06      0.00
  -13   15    2      1.53      0.00
  -11   15    2      8.71      0.00
   -9   15    2     12.14      0.00
   -7   15    2      5.43      0.00
   -5   15    2      0.22      0.00
   -3   15    2     -5.53      0.00
   -1   15    2     -8.49      0.00
    1   15    2     -6.94      0.00
    3   15    2     -5.00      0.00
    5   15    2     -5.72      0.00
    7   15    2     -5.93      0.00
    9   15    2     -4.70      0.00
   11   15    2     -2.70      0.00
   13   15    2     -8.19      0.00
   15   15    2     -3.97      0.00
   17   15    2      0.20      0.00
   19   15    2     -0.71      0.00
   21   15    2     -1.95      0.00
   23   15    2     -0.34      0.00
  -24   16    2     -1.54      0.00
  -22   16    2      1.05      0.00
  -20   16    2     -2.90      0.00
  -18   16    2     -0.56      0.00
  -16   16    2     -2.06      0.00
  -14   16    2      1.68      0.00
  -12   16    2      1.08      0.00
  -10   16    2     -5.37      0.00
   -8   16    2     -5.56      0.00
   -6   16    2      1.44      0.00
   -4   16    2      3.67      0.00
   -2   16    2      4.22      0.00
    0   16    2      4.47      0.00
    2   16    2      0.91      0.00
    4   16    2     -0.10      0.00
    6   16    2      2.08      0.00
    8   16    2      1.01      0.00
   10   16    2      1.95      0.00
   12   16    2      2.57      0.00
   14   16    2      3.84      0.00
   16   16    2      0.62      0.00
   18   16    2      0.01      0.00
   20   16    2     -0.25      0.00
   22   16    2      2.89      0.00
  -23   17    2     -3.92      0.00
  -21   17    2     -0.71      0.00
  -19   17    2      0.87      0.00
  -17   17    2     -3.59      0.00
  -15   17    2     -4.25      0.00
  -13   17    2     -5.40      0.00
  -11   17    2     -3.77      0.00
   -9   17    2      2.78      0.00
   -7   17    2      0.39      0.00
   -5   17    2     -3.84      0.00
   -3   17    2     -2.33      0.00
   -1   17    2     -0.88      0.00
    1   17    2      0.81      0.00
    3   17    2      4.67      0.00
    5   17    2      2.22      0.00
    7   17    2      1.74      0.00
    9   17    2      2.02      0.00
   11   17    2     -0.05      0.00
   13   17    2      0.71      0.00
   15   17    2      0.24      0.00
   17   17    2     -1.48      0.00
   19   17    2      1.26      0.00
   21   17    2     -0.07      0.00
  -22   18    2      3.99      0.00
  -20   18    2     -0.12      0.00
  -18   18    2      2.83      0.00
  -16   18    2      6.83      0.00
  -14   18    2      4.53      0.00
  -12   18    2      6.76      0.00
  -10   18    2      3.08      0.00
   -8   18    2     -2.10      0.00
   -6   18    2      0.67      0.00
   -4   18    2      2.43      0.00
   -2   18    2     -1.27      0.00
    0   18    2     -1.80      0.00
    2   18    2     -6.06      0.00
    4   18    2     -6.59      0.00
    6   18    2     -3.12      0.00
    8   18    2     -4.42      0.00
   10   18    2     -3.54      0.00
   12   18    2     -1.90      0.00
   14   18    2     -3.08      0.00
   16   18    2      0.81      0.00
   18   18    2      1.21      0.00
   20   18    2     -1.96      0.00
  -19   19    2     -1.68      0.00
  -17   19    2     -3.80      0.00
  -15   19    2     -3.26      0.00
  -13   19    2     -1.95      0.00
  -11   19    2     -6.46      0.00
   -9   19    2      0.50      0.00
   -7   19    2      1.77      0.00
   -5   19    2      0.58      0.00
   -3   19    2      0.16      0.00
   -1   19    2      3.33      0.00
    1   19    2      5.06      0.00
    3   19    2      8.75      0.00
    5   19    2      6.27      0.00
    7   19    2      2.46      0.00
    9   19    2      6.22      0.00
   11   19    2      2.99      0.00
   13   19    2      1.58      0.00
   15   19    2      1.39      0.00
   17   19    2     -1.41      0.00
  -18   20    2      0.34      0.00
  -16   20    2      0.68      0.00
  -14   20    2     -3.45      0.00
  -12   20    2      2.67      0.00
  -10   20    2      3.66      0.00
   -8   20    2     -0.97      0.00
   -6   20    2     -2.15      0.00
   -4   20    2     -1.70      0.00
   -2   20    2     -2.25      0.00
    0   20    2     -5.33      0.00
    2   20    2     -6.99      0.00
    4   20    2     -9.20      0.00
    6   20    2     -2.07      0.00
    8   20    2     -2.87      0.00
   10   20    2     -5.41      0.00
   12   20    2      0.72      0.00
   14   20    2      0.05      0.00
   16   20    2     -0.05      0.00
  -15   21    2      3.99      0.00
  -13   21    2      4.26      0.00
  -11   21    2     -4.21      0.00
   -9   21    2     -3.43      0.00
   -7   21    2      0.67      0.00
   -5   21    2      2.99      0.00
   -3   21    2      3.20      0.00
   -1   21    2      4.37      0.00
    1   21    2      5.29      0.00
    3   21    2      6.97      0.00
    5   21    2      4.13      0.00
    7   21    2     -1.16      0.00
    9   21    2      3.42      0.00
   11   21    2      0.65      0.00
   13   21    2     -2.85      0.00
  -10   22    2      6.55      0.00
   -8   22    2      2.21      0.00
   -6   22    2     -1.15      0.00
   -4   22    2     -5.27      0.00
   -2   22    2     -4.03      0.00
    0   22    2     -4.29      0.00
    2   22    2     -2.32      0.00
    4   22    2     -3.48      0.00
    6   22    2      2.30      0.00
    8   22    2      0.31      0.00
   -7   23    2      1.14      0.00
   -5   23    2      2.10      0.00
   -3   23    2      6.00      0.00
   -1   23    2      2.94      0.00
    1   23    2      0.58      0.00
    3   23    2      0.26      0.00
    5   23    2     -2.60      0.00
  -33    1    3     -2.61      0.00
  -31    1    3      0.79      0.00
  -29    1    3      0.05      0.00
  -27    1    3      4.68      0.00
  -25    1    3      3.60      0.00
  -23    1    3      4.01      0.00
  -21    1    3      4.88      0.00
  -19    1    3      6.49      0.00
  -17    1    3      4.11      0.00
  -15    1    3      1.89      0.00
  -13    1    3     -0.10      0.00
  -11    1    3     -1.39      0.00
   -9    1    3    -25.07      0.00
   -7    1    3    -29.34      0.00
   -5    1    3    -17.06      0.00
   -3    1    3    -18.75      0.00
   -1    1    3    -63.84      0.00
    1    1    3    -22.46      0.00
    3    1    3    -15.97      0.00
    5    1    3     -2.55      0.00
    7    1    3     -1.00      0.00
    9    1    3      6.95      0.00
   11    1    3      1.46      0.00
   13    1    3      5.96      0.00
   15    1    3      8.26      0.00
   17    1    3      5.92      0.00
   19    1    3      3.77      0.00
   21    1    3      4.45      0.00
   23    1    3      3.19      0.00
   25    1    3      2.37      0.00
   27    1    3     -0.90      0.00
   29    1    3     -1.33      0.00
  -32    2    3      1.54      0.00
  -30    2    3     -0.52      0.00
  -28    2    3     -3.63      0.00
  -26    2    3     -6.97      0.00
  -24    2    3     -7.05      0.00
  -22    2    3     -6.04      0.00
  -20    2    3    -11.42      0.00
  -18    2    3     -9.11      0.00
  -16    2    3     -6.28      0.00
  -14    2    3     -0.09      0.00
  -12    2    3     -0.25      0.00
  -10    2    3     20.15      0.00
   -8    2    3     52.84      0.00
   -6    2    3     41.43      0.00
   -4    2    3     18.24      0.00
   -2    2    3     70.97      0.00
    0    2    3     73.95      0.00
    2    2    3     23.16      0.00
    4    2    3     16.37      0.00
    6    2    3      5.16      0.00
    8    2    3     -8.29      0.00
   10    2    3     -6.27      0.00
   12    2    3     -6.48      0.00
   14    2    3    -13.37      0.00
   16    2    3    -13.27      0.00
   18    2    3     -8.45      0.00
   20    2    3     -7.81      0.00
   22    2    3     -7.84      0.00
   24    2    3     -4.09      0.00
   26    2    3     -0.75      0.00
   28    2    3      1.08      0.00
   30    2    3      4.06      0.00
  -33    3    3     -2.76      0.00
  -31    3    3      0.58      0.00
  -29    3    3     -0.02      0.00
  -27    3    3      7.19      0.00
  -25    3    3      7.26      0.00
  -23    3    3      7.76      0.00
  -21    3    3      9.82      0.00
  -19    3    3     12.57      0.00
  -17    3    3     11.28      0.00
  -15    3    3      3.29      0.00
  -13    3    3     -1.77      0.00
  -11    3    3     -6.53      0.00
   -9    3    3    -49.15      0.00
   -7    3    3    -52.82      0.00
   -5    3    3    -36.43      0.00
   -3    3    3    -30.16      0.00
   -1    3    3    -92.82      0.00
    1    3    3    -36.57      0.00
    3    3    3    -24.57      0.00
    5    3    3     -9.02      0.00
    7    3    3     -2.37      0.00
    9    3    3     13.79      0.00
   11    3    3      4.74      0.00
   13    3    3     13.47      0.00
   15    3    3     17.41      0.00
   17    3    3     12.90      0.00
   19    3    3      9.85      0.00
   21    3    3     11.57      0.00
   23    3    3      6.42      0.00
   25    3    3      2.00      0.00
   27    3    3     -0.62      0.00
   29    3    3     -1.08      0.00
   31    3    3     -3.40      0.00
  -34    4    3     -1.76      0.00
  -32    4    3      2.92      0.00
  -30    4    3     -0.44      0.00
  -28    4    3     -1.76      0.00
  -26    4    3     -6.88      0.00
  -24    4    3     -7.58      0.00
  -22    4    3     -7.13      0.00
  -20    4    3    -10.95      0.00
  -18    4    3    -12.03      0.00
  -16    4    3     -9.23      0.00
  -14    4    3      0.62      0.00
  -12    4    3      4.65      0.00
  -10    4    3     25.91      0.00
   -8    4    3     52.22      0.00
   -6    4    3     36.10      0.00
   -4    4    3     22.13      0.00
   -2    4    3     47.84      0.00
    0    4    3     56.32      0.00
    2    4    3     19.29      0.00
    4    4    3     11.05      0.00
    6    4    3      9.95      0.00
    8    4    3    -10.59      0.00
   10    4    3     -5.89      0.00
   12    4    3    -10.07      0.00
   14    4    3    -15.62      0.00
   16    4    3    -15.11      0.00
   18    4    3    -10.55      0.00
   20    4    3     -9.70      0.00
   22    4    3    -10.43      0.00
   24    4    3     -2.20      0.00
   26    4    3      0.68      0.00
   28    4    3     -1.60      0.00
   30    4    3      2.75      0.00
  -33    5    3     -1.80      0.00
  -31    5    3     -1.61      0.00
  -29    5    3     -0.34      0.00
  -27    5    3      2.81      0.00
  -25    5    3      5.98      0.00
  -23    5    3      5.33      0.00
  -21    5    3      7.34      0.00
  -19    5    3      7.12      0.00
  -17    5    3     11.32      0.00
  -15    5    3      3.44      0.00
  -13    5    3     -3.39      0.00
  -11    5    3    -14.21      0.00
   -9    5    3    -36.72      0.00
   -7    5    3    -28.49      0.00
   -5    5    3    -15.22      0.00
   -3    5    3    -14.46      0.00
   -1    5    3    -40.06      0.00
    1    5    3    -24.77      0.00
    3    5    3     -3.81      0.00
    5    5    3     -6.72      0.00
    7    5    3      1.38      0.00
    9    5    3      5.32      0.00
   11    5    3      5.09      0.00
   13    5    3     10.05      0.00
   15    5    3     12.79      0.00
   17    5    3      9.24      0.00
   19    5    3      6.11      0.00
   21    5    3      7.19      0.00
   23    5    3      4.89      0.00
   25    5    3     -1.07      0.00
   27    5    3      0.76      0.00
   29    5    3      0.80      0.00
  -32    6    3      2.78      0.00
  -30    6    3      0.93      0.00
  -28    6    3      0.73      0.00
  -26    6    3     -2.17      0.00
  -24    6    3     -2.95      0.00
  -22    6    3     -3.97      0.00
  -20    6    3     -3.21      0.00
  -18    6    3     -4.47      0.00
  -16    6    3     -5.27      0.00
  -14    6    3     -1.33      0.00
  -12    6    3     11.26      0.00
  -10    6    3     22.15      0.00
   -8    6    3     24.70      0.00
   -6    6    3      0.61      0.00
   -4    6    3     -2.45      0.00
   -2    6    3      8.70      0.00
    0    6    3     22.31      0.00
    2    6    3      3.38      0.00
    4    6    3     -6.07      0.00
    6    6    3      0.21      0.00
    8    6    3     -2.18      0.00
   10    6    3      2.12      0.00
   12    6    3     -4.52      0.00
   14    6    3     -5.78      0.00
   16    6    3     -4.90      0.00
   18    6    3     -3.94      0.00
   20    6    3      0.11      0.00
   22    6    3     -2.87      0.00
   24    6    3     -0.54      0.00
   26    6    3      1.02      0.00
   28    6    3     -1.78      0.00
  -33    7    3     -0.27      0.00
  -31    7    3     -2.24      0.00
  -29    7    3     -1.91      0.00
  -27    7    3     -1.79      0.00
  -25    7    3     -1.16      0.00
  -23    7    3     -0.06      0.00
  -21    7    3      1.47      0.00
  -19    7    3     -2.21      0.00
  -17    7    3     -0.18      0.00
  -15    7    3      1.77      0.00
  -13    7    3     -3.03      0.00
  -11    7    3    -18.45      0.00
   -9    7    3    -17.28      0.00
   -7    7    3     -1.00      0.00
   -5    7    3     19.21      0.00
   -3    7    3     14.36      0.00
   -1    7    3      1.30      0.00
    1    7    3     -5.75      0.00
    3    7    3     13.88      0.00
    5    7    3      9.57      0.00
    7    7    3      4.62      0.00
    9    7    3     -9.00      0.00
   11    7    3     -0.71      0.00
   13    7    3     -1.29      0.00
   15    7    3     -0.83      0.00
   17    7    3     -1.72      0.00
   19    7    3     -1.82      0.00
   21    7    3     -4.65      0.00
   23    7    3     -0.24      0.00
   25    7    3     -0.33      0.00
   27    7    3     -0.27      0.00
   29    7    3      0.38      0.00
  -32    8    3     -0.41      0.00
  -30    8    3      4.55      0.00
  -28    8    3      2.84      0.00
  -26    8    3      5.60      0.00
  -24    8    3      4.12      0.00
  -22    8    3      2.43      0.00
  -20    8    3      3.07      0.00
  -18    8    3      6.58      0.00
  -16    8    3      4.17      0.00
  -14    8    3     -1.95      0.00
  -12    8    3     10.69      0.00
  -10    8    3     14.61      0.00
   -8    8    3      1.77      0.00
   -6    8    3    -18.73      0.00
   -4    8    3    -29.09      0.00
   -2    8    3    -25.89      0.00
    0    8    3     -8.48      0.00
    2    8    3    -10.99      0.00
    4    8    3    -21.08      0.00
    6    8    3    -15.12      0.00
    8    8    3      6.05      0.00
   10    8    3      6.83      0.00
   12    8    3      3.70      0.00
   14    8    3      4.79      0.00
   16    8    3      8.46      0.00
   18    8    3      4.14      0.00
   20    8    3      7.39      0.00
   22    8    3      5.19      0.00
   24    8    3      0.65      0.00
   26    8    3      0.91      0.00
   28    8    3      0.91      0.00
  -31    9    3     -2.77      0.00
  -29    9    3     -6.25      0.00
  -27    9    3     -5.19      0.00
  -25    9    3     -8.17      0.00
  -23    9    3     -5.78      0.00
  -21    9    3     -5.21      0.00
  -19    9    3     -6.16      0.00
  -17    9    3     -9.72      0.00
  -15    9    3     -2.07      0.00
  -13    9    3     -1.69      0.00
  -11    9    3    -11.14      0.00
   -9    9    3     -1.87      0.00
   -7    9    3     14.09      0.00
   -5    9    3     25.76      0.00
   -3    9    3     36.58      0.00
   -1    9    3     27.69      0.00
    1    9    3     12.54      0.00
    3    9    3     21.78      0.00
    5    9    3     27.34      0.00
    7    9    3      7.55      0.00
    9    9    3     -7.43      0.00
   11    9    3     -3.45      0.00
   13    9    3     -5.19      0.00
   15    9    3     -8.91      0.00
   17    9    3    -10.18      0.00
   19    9    3     -6.94      0.00
   21    9    3     -8.66      0.00
   23    9    3     -2.98      0.00
   25    9    3     -2.41      0.00
   27    9    3     -2.51      0.00
  -30   10    3      6.93      0.00
  -28   10    3      4.96      0.00
  -26   10    3      7.59      0.00
  -24   10    3      7.24      0.00
  -22   10    3      7.96      0.00
  -20   10    3      4.84      0.00
  -18   10    3      8.55      0.00
  -16   10    3      7.26      0.00
  -14   10    3      1.03      0.00
  -12   10    3      5.47      0.00
  -10   10    3      3.48      0.00
   -8   10    3    -11.48      0.00
   -6   10    3    -18.15      0.00
   -4   10    3    -27.70      0.00
   -2   10    3    -34.89      0.00
    0   10    3    -18.65      0.00
    2   10    3    -16.51      0.00
    4   10    3    -30.08      0.00
    6   10    3    -21.64      0.00
    8   10    3     -1.52      0.00
   10   10    3      2.63      0.00
   12   10    3      2.56      0.00
   14   10    3      5.42      0.00
   16   10    3     10.64      0.00
   18   10    3      8.63      0.00
   20   10    3      9.04      0.00
   22   10    3      5.09      0.00
   24   10    3      4.42      0.00
   26   10    3      6.17      0.00
   28   10    3      1.13      0.00
  -29   11    3     -5.99      0.00
  -27   11    3     -3.22      0.00
  -25   11    3     -6.62      0.00
  -23   11    3     -6.85      0.00
  -21   11    3     -5.83      0.00
  -19   11    3     -4.20      0.00
  -17   11    3     -8.13      0.00
  -15   11    3     -2.74      0.00
  -13   11    3     -4.80      0.00
  -11   11    3     -4.50      0.00
   -9   11    3      5.22      0.00
   -7   11    3     15.33      0.00
   -5   11    3     13.71      0.00
   -3   11    3     26.69      0.00
   -1   11    3     20.15      0.00
    1   11    3     12.73      0.00
    3   11    3     21.85      0.00
    5   11    3     26.64      0.00
    7   11    3     10.99      0.00
    9   11    3      2.05      0.00
   11   11    3     -1.04      0.00
   13   11    3     -1.25      0.00
   15   11    3     -6.23      0.00
   17   11    3     -8.05      0.00
   19   11    3     -7.60      0.00
   21   11    3     -6.44      0.00
   23   11    3     -4.25      0.00
   25   11    3    -10.15      0.00
  -28   12    3      0.94      0.00
  -26   12    3      2.45      0.00
  -24   12    3      4.29      0.00
  -22   12    3      4.39      0.00
  -20   12    3      1.79      0.00
  -18   12    3      5.19      0.00
  -16   12    3      3.64      0.00
  -14   12    3      2.86      0.00
  -12   12    3      7.85      0.00
  -10   12    3      1.43      0.00
   -8   12    3     -8.87      0.00
   -6   12    3     -8.19      0.00
   -4   12    3    -11.13      0.00
   -2   12    3    -16.21      0.00
    0   12    3     -8.75      0.00
    2   12    3    -12.22      0.00
    4   12    3    -20.18      0.00
    6   12    3    -13.68      0.00
    8   12    3     -7.01      0.00
   10   12    3     -0.48      0.00
   12   12    3     -1.21      0.00
   14   12    3      1.85      0.00
   16   12    3      4.36      0.00
   18   12    3      5.11      0.00
   20   12    3      4.55      0.00
   22   12    3      3.10      0.00
   24   12    3      9.26      0.00
   26   12    3     10.85      0.00
  -29   13    3      0.23      0.00
  -27   13    3      1.16      0.00
  -25   13    3     -0.91      0.00
  -23   13    3     -1.73      0.00
  -21   13    3      0.17      0.00
  -19   13    3     -1.51      0.00
  -17   13    3     -3.34      0.00
  -15   13    3      0.44      0.00
  -13   13    3     -6.25      0.00
  -11   13    3     -6.73      0.00
   -9   13    3     -0.40      0.00
   -7   13    3      4.93      0.00
   -5   13    3      0.70      0.00
   -3   13    3      6.85      0.00
   -1   13    3      4.62      0.00
    1   13    3      4.35      0.00
    3   13    3      9.82      0.00
    5   13    3     10.13      0.00
    7   13    3      6.79      0.00
    9   13    3      3.91      0.00
   11   13    3      1.35      0.00
   13   13    3      1.17      0.00
   15   13    3      0.06      0.00
   17   13    3     -2.76      0.00
   19   13    3     -1.66      0.00
   21   13    3      0.33      0.00
   23   13    3     -4.60      0.00
   25   13    3    -10.62      0.00
  -26   14    3     -0.41      0.00
  -24   14    3     -1.62      0.00
  -22   14    3     -0.46      0.00
  -20   14    3     -1.41      0.00
  -18   14    3      0.64      0.00
  -16   14    3     -0.86      0.00
  -14   14    3      0.06      0.00
  -12   14    3      6.44      0.00
  -10   14    3      5.61      0.00
   -8   14    3      2.38      0.00
   -6   14    3      2.45      0.00
   -4   14    3      3.45      0.00
   -2   14    3      0.72      0.00
    0   14    3      2.55      0.00
    2   14    3     -0.99      0.00
    4   14    3     -4.07      0.00
    6   14    3     -3.93      0.00
    8   14    3     -4.64      0.00
   10   14    3     -3.54      0.00
   12   14    3     -0.88      0.00
   14   14    3     -3.34      0.00
   16   14    3     -1.64      0.00
   18   14    3      1.62      0.00
   20   14    3     -2.66      0.00
   22   14    3     -2.78      0.00
   24   14    3      6.49      0.00
  -25   15    3      2.66      0.00
  -23   15    3      0.36      0.00
  -21   15    3      1.44      0.00
  -19   15    3      1.50      0.00
  -17   15    3      2.53      0.00
  -15   15    3      1.19      0.00
  -13   15    3     -2.18      0.00
  -11   15    3     -4.29      0.00
   -9   15    3     -7.54      0.00
   -7   15    3     -6.19      0.00
   -5   15    3     -7.45      0.00
   -3   15    3     -7.17      0.00
   -1   15    3     -7.24      0.00
    1   15    3     -6.69      0.00
    3   15    3     -1.25      0.00
    5   15    3      0.53      0.00
    7   15    3      3.05      0.00
    9   15    3      4.65      0.00
   11   15    3      2.21      0.00
   13   15    3      0.67      0.00
   15   15    3      7.18      0.00
   17   15    3      0.19      0.00
   19   15    3      0.30      0.00
   21   15    3      6.54      0.00
   23   15    3      0.65      0.00
  -26   16    3      1.05      0.00
  -24   16    3     -2.10      0.00
  -22   16    3      2.09      0.00
  -20   16    3     -2.23      0.00
  -18   16    3     -2.84      0.00
  -16   16    3     -1.37      0.00
  -14   16    3      2.86      0.00
  -12   16    3      2.42      0.00
  -10   16    3      5.01      0.00
   -8   16    3     10.03      0.00
   -6   16    3      8.41      0.00
   -4   16    3      8.57      0.00
   -2   16    3      9.43      0.00
    0   16    3     10.44      0.00
    2   16    3      6.24      0.00
    4   16    3      2.69      0.00
    6   16    3     -1.13      0.00
    8   16    3     -2.28      0.00
   10   16    3     -3.98      0.00
   12   16    3      1.76      0.00
   14   16    3     -4.67      0.00
   16   16    3     -5.55      0.00
   18   16    3      0.81      0.00
   20   16    3     -2.46      0.00
   22   16    3     -6.21      0.00
  -23   17    3     -3.42      0.00
  -21   17    3      0.64      0.00
  -19   17    3      1.06      0.00
  -17   17    3      1.44      0.00
  -15   17    3     -5.39      0.00
  -13   17    3     -5.46      0.00
  -11   17    3     -2.75      0.00
   -9   17    3     -6.51      0.00
   -7   17    3     -9.78      0.00
   -5   17    3     -6.07      0.00
   -3   17    3     -6.80      0.00
   -1   17    3     -9.41      0.00
    1   17    3     -8.61      0.00
    3   17    3     -5.36      0.00
    5   17    3     -1.78      0.00
    7   17    3      0.95      0.00
    9   17    3     -0.09      0.00
   11   17    3      0.87      0.00
   13   17    3     -2.23      0.00
   15   17    3      5.52      0.00
   17   17    3      1.19      0.00
   19   17    3     -0.55      0.00
  -22   18    3      2.76      0.00
  -20   18    3     -1.80      0.00
  -18   18    3      1.98      0.00
  -16   18    3      4.58      0.00
  -14   18    3      9.34      0.00
  -12   18    3      5.81      0.00
  -10   18    3      1.27      0.00
   -8   18    3      6.16      0.00
   -6   18    3      4.85      0.00
   -4   18    3      1.90      0.00
   -2   18    3      4.60      0.00
    0   18    3      7.07      0.00
    2   18    3      5.97      0.00
    4   18    3      4.53      0.00
    6   18    3     -0.35      0.00
    8   18    3      3.60      0.00
   10   18    3      1.07      0.00
   12   18    3      1.93      0.00
   14   18    3      0.88      0.00
   16   18    3     -0.85      0.00
   18   18    3      0.41      0.00
  -21   19    3      1.35      0.00
  -19   19    3     -1.99      0.00
  -17   19    3     -4.58      0.00
  -15   19    3     -8.17      0.00
  -13   19    3     -8.83      0.00
  -11   19    3     -1.82      0.00
   -9   19    3      0.84      0.00
   -7   19    3     -2.60      0.00
   -5   19    3     -0.20      0.00
   -3   19    3      0.69      0.00
   -1   19    3     -3.26      0.00
    1   19    3     -3.51      0.00
    3   19    3     -4.62      0.00
    5   19    3     -1.17      0.00
    7   19    3     -2.45      0.00
    9   19    3     -6.14      0.00
   11   19    3     -0.58      0.00
   13   19    3     -3.30      0.00
   15   19    3     -2.22      0.00
   17   19    3     -2.04      0.00
  -18   20    3      3.53      0.00
  -16   20    3      4.86      0.00
  -14   20    3      6.58      0.00
  -12   20    3      5.57      0.00
  -10   20    3     -4.35      0.00
   -8   20    3     -0.80      0.00
   -6   20    3     -1.37      0.00
   -4   20    3     -0.60      0.00
   -2   20    3     -1.80      0.00
    0   20    3      0.47      0.00
    2   20    3      0.97      0.00
    4   20    3      1.37      0.00
    6   20    3      1.17      0.00
    8   20    3      6.34      0.00
   10   20    3      3.48      0.00
   12   20    3      2.01      0.00
   14   20    3      3.18      0.00
  -15   21    3     -1.72      0.00
  -13   21    3     -5.37      0.00
  -11   21    3      0.95      0.00
   -9   21    3      3.68      0.00
   -7   21    3      2.61      0.00
   -5   21    3      0.83      0.00
   -3   21    3      2.01      0.00
   -1   21    3      3.54      0.00
    1   21    3      2.44      0.00
    3   21    3      1.47      0.00
    5   21    3     -0.36      0.00
    7   21    3     -4.16      0.00
    9   21    3     -5.13      0.00
   11   21    3     -1.89      0.00
  -12   22    3      4.01      0.00
  -10   22    3     -2.87      0.00
   -8   22    3     -1.49      0.00
   -6   22    3     -4.33      0.00
   -4   22    3     -0.37      0.00
   -2   22    3     -4.85      0.00
    0   22    3     -4.57      0.00
    2   22    3     -3.15      0.00
    4   22    3     -2.15      0.00
    6   22    3      2.68      0.00
    8   22    3      4.36      0.00
   -7   23    3      3.47      0.00
   -5   23    3      3.78      0.00
   -3   23    3      2.40      0.00
   -1   23    3      5.16      0.00
    1   23    3      2.14      0.00
    3   23    3      3.06      0.00
    5   23    3     -0.74      0.00
  -34    0    4      2.00      0.00
  -32    0    4      3.45      0.00
  -30    0    4     -1.34      0.00
  -28    0    4      0.01      0.00
  -26    0    4      0.98      0.00
  -24    0    4      2.71      0.00
  -22    0    4     -0.01      0.00
  -20    0    4     -0.12      0.00
  -18    0    4     -6.31      0.00
  -16    0    4    -14.79      0.00
  -14    0    4    -26.66      0.00
  -12    0    4    -35.20      0.00
  -10    0    4    -76.08      0.00
   -8    0    4    -60.43      0.00
   -6    0    4    -34.69      0.00
   -4    0    4    -42.04      0.00
   -2    0    4    -95.66      0.00
    0    0    4     21.74      0.00
    2    0    4     55.58      0.00
    4    0    4     67.94      0.00
    6    0    4     47.07      0.00
    8    0    4     39.42      0.00
   10    0    4     22.22      0.00
   12    0    4     29.90      0.00
   14    0    4     24.40      0.00
   16    0    4      7.36      0.00
   18    0    4      4.95      0.00
   20    0    4      6.08      0.00
   22    0    4      1.30      0.00
   24    0    4     -2.06      0.00
   26    0    4     -3.50      0.00
   28    0    4     -2.97      0.00
   30    0    4     -5.84      0.00
  -33    1    4     -2.52      0.00
  -31    1    4     -0.54      0.00
  -29    1    4      0.59      0.00
  -27    1    4      1.39      0.00
  -25    1    4     -4.15      0.00
  -23    1    4      0.99      0.00
  -21    1    4     -2.08      0.00
  -19    1    4      3.79      0.00
  -17    1    4      7.37      0.00
  -15    1    4     19.69      0.00
  -13    1    4     26.44      0.00
  -11    1    4     49.21      0.00
   -9    1    4     68.39      0.00
   -7    1    4     39.94      0.00
   -5    1    4     25.29      0.00
   -3    1    4     72.16      0.00
   -1    1    4     42.18      0.00
    1    1    4    -44.89      0.00
    3    1    4    -59.11      0.00
    5    1    4    -50.36      0.00
    7    1    4    -42.56      0.00
    9    1    4    -23.40      0.00
   11    1    4    -24.51      0.00
   13    1    4    -25.98      0.00
   15    1    4    -14.27      0.00
   17    1    4     -4.40      0.00
   19    1    4     -5.53      0.00
   21    1    4     -5.02      0.00
   23    1    4      1.78      0.00
   25    1    4      2.07      0.00
   27    1    4      2.33      0.00
   29    1    4      4.10      0.00
  -34    2    4      1.06      0.00
  -32    2    4      0.60      0.00
  -30    2    4     -0.29      0.00
  -28    2    4     -2.19      0.00
  -26    2    4      0.92      0.00
  -24    2    4      2.24      0.00
  -22    2    4      0.18      0.00
  -20    2    4     -0.34      0.00
  -18    2    4     -1.96      0.00
  -16    2    4     -8.11      0.00
  -14    2    4    -17.44      0.00
  -12    2    4    -24.62      0.00
  -10    2    4    -46.13      0.00
   -8    2    4    -32.82      0.00
   -6    2    4    -24.40      0.00
   -4    2    4    -26.29      0.00
   -2    2    4    -58.53      0.00
    0    2    4      5.07      0.00
    2    2    4     40.39      0.00
    4    2    4     43.83      0.00
    6    2    4     32.71      0.00
    8    2    4     23.94      0.00
   10    2    4     14.97      0.00
   12    2    4     18.68      0.00
   14    2    4     16.16      0.00
   16    2    4      4.71      0.00
   18    2    4      4.37      0.00
   20    2    4      5.59      0.00
   22    2    4      1.33      0.00
   24    2    4     -2.04      0.00
   26    2    4     -0.69      0.00
   28    2    4     -1.51      0.00
   30    2    4     -2.36      0.00
  -33    3    4      0.94      0.00
  -31    3    4     -0.41      0.00
  -29    3    4      1.26      0.00
  -27    3    4      2.75      0.00
  -25    3    4     -3.11      0.00
  -23    3    4     -0.91      0.00
  -21    3    4     -0.38      0.00
  -19    3    4     -0.54      0.00
  -17    3    4     -1.32      0.00
  -15    3    4      3.79      0.00
  -13    3    4     11.43      0.00
  -11    3    4     16.83      0.00
   -9    3    4     14.87      0.00
   -7    3    4      7.60      0.00
   -5    3    4     12.60      0.00
   -3    3    4     23.94      0.00
   -1    3    4     25.51      0.00
    1    3    4    -14.31      0.00
    3    3    4    -30.86      0.00
    5    3    4    -20.34      0.00
    7    3    4    -15.21      0.00
    9    3    4     -5.39      0.00
   11    3    4     -8.18      0.00
   13    3    4     -8.58      0.00
   15    3    4     -4.65      0.00
   17    3    4     -1.19      0.00
   19    3    4     -2.26      0.00
   21    3    4     -4.22      0.00
   23    3    4      1.25      0.00
   25    3    4      0.27      0.00
   27    3    4      0.18      0.00
   29    3    4      1.29      0.00
  -34    4    4     -0.03      0.00
  -32    4    4     -1.04      0.00
  -30    4    4      1.07      0.00
  -28    4    4     -4.37      0.00
  -26    4    4     -0.08      0.00
  -24    4    4      2.22      0.00
  -22    4    4      1.47      0.00
  -20    4    4      0.16      0.00
  -18    4    4      4.39      0.00
  -16    4    4      7.81      0.00
  -14    4    4      1.70      0.00
  -12    4    4     -1.28      0.00
  -10    4    4      6.11      0.00
   -8    4    4     13.75      0.00
   -6    4    4      4.30      0.00
   -4    4    4     -4.33      0.00
   -2    4    4    -12.50      0.00
    0    4    4    -12.40      0.00
    2    4    4     16.80      0.00
    4    4    4     11.66      0.00
    6    4    4      4.65      0.00
    8    4    4     -7.39      0.00
   10    4    4     -1.24      0.00
   12    4    4     -3.25      0.00
   14    4    4      0.96      0.00
   16    4    4     -2.47      0.00
   18    4    4     -1.93      0.00
   20    4    4     -0.15      0.00
   22    4    4      2.47      0.00
   24    4    4     -0.87      0.00
   26    4    4     -0.23      0.00
   28    4    4     -1.51      0.00
  -33    5    4     -0.52      0.00
  -31    5    4      0.91      0.00
  -29    5    4      1.29      0.00
  -27    5    4      5.83      0.00
  -25    5    4     -0.40      0.00
  -23    5    4     -1.91      0.00
  -21    5    4     -0.58      0.00
  -19    5    4     -2.28      0.00
  -17    5    4     -9.93      0.00
  -15    5    4    -14.52      0.00
  -13    5    4     -7.04      0.00
  -11    5    4    -17.36      0.00
   -9    5    4    -29.13      0.00
   -7    5    4    -23.83      0.00
   -5    5    4    -11.65      0.00
   -3    5    4     -4.92      0.00
   -1    5    4      8.06      0.00
    1    5    4      4.30      0.00
    3    5    4     -7.87      0.00
    5    5    4      0.28      0.00
    7    5    4     17.38      0.00
    9    5    4     12.27      0.00
   11    5    4     10.68      0.00
   13    5    4      7.39      0.00
   15    5    4      4.92      0.00
   17    5    4      4.37      0.00
   19    5    4      5.99      0.00
   21    5    4      0.17      0.00
   23    5    4     -2.03      0.00
   25    5    4      0.79      0.00
   27    5    4      3.15      0.00
   29    5    4      0.33      0.00
  -34    6    4      0.25      0.00
  -32    6    4     -1.12      0.00
  -30    6    4     -1.49      0.00
  -28    6    4     -5.49      0.00
  -26    6    4     -5.95      0.00
  -24    6    4     -0.26      0.00
  -22    6    4      0.53      0.00
  -20    6    4      1.21      0.00
  -18    6    4      4.02      0.00
  -16    6    4     17.90      0.00
  -14    6    4     14.37      0.00
  -12    6    4     19.08      0.00
  -10    6    4     35.38      0.00
   -8    6    4     34.62      0.00
   -6    6    4     24.00      0.00
   -4    6    4     18.78      0.00
   -2    6    4     10.98      0.00
    0    6    4     -8.56      0.00
    2    6    4     -4.02      0.00
    4    6    4      1.33      0.00
    6    6    4    -16.71      0.00
    8    6    4    -22.61      0.00
   10    6    4    -12.39      0.00
   12    6    4    -14.36      0.00
   14    6    4     -7.40      0.00
   16    6    4     -5.91      0.00
   18    6    4     -5.46      0.00
   20    6    4     -6.91      0.00
   22    6    4      2.18      0.00
   24    6    4      1.44      0.00
   26    6    4     -3.69      0.00
   28    6    4     -2.69      0.00
  -33    7    4     -0.93      0.00
  -31    7    4      4.10      0.00
  -29    7    4      1.26      0.00
  -27    7    4      8.52      0.00
  -25    7    4      4.29      0.00
  -23    7    4      2.11      0.00
  -21    7    4     -0.63      0.00
  -19    7    4     -0.59      0.00
  -17    7    4     -9.20      0.00
  -15    7    4    -17.07      0.00
  -13    7    4    -16.34      0.00
  -11    7    4    -31.26      0.00
   -9    7    4    -39.56      0.00
   -7    7    4    -23.87      0.00
   -5    7    4    -22.96      0.00
   -3    7    4    -23.75      0.00
   -1    7    4     -6.80      0.00
    1    7    4     12.76      0.00
    3    7    4      1.77      0.00
    5    7    4      6.12      0.00
    7    7    4     23.37      0.00
    9    7    4     12.32      0.00
   11    7    4     13.26      0.00
   13    7    4      9.53      0.00
   15    7    4      6.03      0.00
   17    7    4      3.80      0.00
   19    7    4      6.29      0.00
   21    7    4      2.87      0.00
   23    7    4     -3.32      0.00
   25    7    4      1.22      0.00
   27    7    4      4.94      0.00
  -32    8    4     -1.04      0.00
  -30    8    4     -1.45      0.00
  -28    8    4     -1.60      0.00
  -26    8    4     -6.30      0.00
  -24    8    4     -3.28      0.00
  -22    8    4     -2.89      0.00
  -20    8    4      1.08      0.00
  -18    8    4      0.24      0.00
  -16    8    4     11.11      0.00
  -14    8    4      9.66      0.00
  -12    8    4     22.10      0.00
  -10    8    4     32.72      0.00
   -8    8    4     26.38      0.00
   -6    8    4      9.12      0.00
   -4    8    4     22.15      0.00
   -2    8    4     16.96      0.00
    0    8    4     -3.93      0.00
    2    8    4    -10.22      0.00
    4    8    4      3.94      0.00
    6    8    4    -13.35      0.00
    8    8    4     -8.47      0.00
   10    8    4     -7.32      0.00
   12    8    4     -6.61      0.00
   14    8    4     -4.49      0.00
   16    8    4     -2.50      0.00
   18    8    4     -2.69      0.00
   20    8    4     -4.42      0.00
   22    8    4      1.69      0.00
   24    8    4      0.37      0.00
   26    8    4     -3.18      0.00
   28    8    4     -2.23      0.00
  -33    9    4     -0.49      0.00
  -31    9    4     -1.02      0.00
  -29    9    4     -3.68      0.00
  -27    9    4      0.40      0.00
  -25    9    4      1.92      0.00
  -23    9    4      3.61      0.00
  -21    9    4      1.54      0.00
  -19    9    4      1.64      0.00
  -17    9    4     -1.61      0.00
  -15    9    4     -2.31      0.00
  -13    9    4     -7.75      0.00
  -11    9    4    -20.40      0.00
   -9    9    4    -23.27      0.00
   -7    9    4     -3.63      0.00
   -5    9    4     -2.28      0.00
   -3    9    4    -12.95      0.00
   -1    9    4     -5.26      0.00
    1    9    4      8.94      0.00
    3    9    4     -3.04      0.00
    5    9    4     -0.08      0.00
    7    9    4      1.17      0.00
    9    9    4     -0.33      0.00
   11    9    4     -0.05      0.00
   13    9    4      1.01      0.00
   15    9    4     -1.59      0.00
   17    9    4      0.57      0.00
   19    9    4      2.15      0.00
   21    9    4      0.59      0.00
   23    9    4      0.13      0.00
   25    9    4      2.21      0.00
   27    9    4      2.25      0.00
  -32   10    4      4.17      0.00
  -30   10    4      6.46      0.00
  -28   10    4      5.75      0.00
  -26   10    4      2.79      0.00
  -24   10    4     -0.66      0.00
  -22   10    4     -2.92      0.00
  -20   10    4     -3.52      0.00
  -18   10    4     -3.82      0.00
  -16   10    4     -2.30      0.00
  -14   10    4     -6.00      0.00
  -12   10    4      7.28      0.00
  -10   10    4     11.41      0.00
   -8   10    4      6.78      0.00
   -6   10    4    -10.94      0.00
   -4   10    4     -1.77      0.00
   -2   10    4      2.92      0.00
    0   10    4     -0.90      0.00
    2   10    4     -2.21      0.00
    4   10    4      6.30      0.00
    6   10    4      4.14      0.00
    8   10    4      9.00      0.00
   10   10    4      4.92      0.00
   12   10    4      5.19      0.00
   14   10    4      4.76      0.00
   16   10    4      4.63      0.00
   18   10    4      0.46      0.00
   20   10    4     -1.43      0.00
   22   10    4     -0.87      0.00
   24   10    4     -3.84      0.00
   26   10    4     -1.29      0.00
  -31   11    4     -8.47      0.00
  -29   11    4     -7.49      0.00
  -27   11    4     -6.33      0.00
  -25   11    4     -2.84      0.00
  -23   11    4      0.67      0.00
  -21   11    4      5.43      0.00
  -19   11    4      6.61      0.00
  -17   11    4      5.62      0.00
  -15   11    4      8.89      0.00
  -13   11    4      6.20      0.00
  -11   11    4     -1.83      0.00
   -9   11    4     -2.14      0.00
   -7   11    4      7.52      0.00
   -5   11    4     13.15      0.00
   -3   11    4      5.06      0.00
   -1   11    4     -1.84      0.00
    1   11    4      1.93      0.00
    3   11    4     -2.86      0.00
    5   11    4     -5.49      0.00
    7   11    4    -12.27      0.00
    9   11    4     -9.72      0.00
   11   11    4     -9.01      0.00
   13   11    4     -7.38      0.00
   15   11    4     -8.98      0.00
   17   11    4     -4.86      0.00
   19   11    4     -0.68      0.00
   21   11    4      1.56      0.00
   23   11    4      4.15      0.00
   25   11    4      2.46      0.00
  -30   12    4      8.26      0.00
  -28   12    4      4.33      0.00
  -26   12    4      5.80      0.00
  -24   12    4     -0.36      0.00
  -22   12    4     -3.26      0.00
  -20   12    4     -8.99      0.00
  -18   12    4     -7.59      0.00
  -16   12    4     -7.61      0.00
  -14   12    4     -9.64      0.00
  -12   12    4     -4.24      0.00
  -10   12    4     -5.06      0.00
   -8   12    4     -4.59      0.00
   -6   12    4    -12.94      0.00
   -4   12    4    -11.42      0.00
   -2   12    4     -1.44      0.00
    0   12    4      1.51      0.00
    2   12    4     -0.85      0.00
    4   12    4      3.11      0.00
    6   12    4      9.29      0.00
    8   12    4     12.73      0.00
   10   12    4      9.99      0.00
   12   12    4      8.92      0.00
   14   12    4     10.60      0.00
   16   12    4      7.73      0.00
   18   12    4      4.84      0.00
   20   12    4      0.15      0.00
   22   12    4     -2.45      0.00
   24   12    4     -2.98      0.00
  -29   13    4     -2.59      0.00
  -27   13    4     -3.60      0.00
  -25   13    4     -1.21      0.00
  -23   13    4      3.82      0.00
  -21   13    4      7.29      0.00
  -19   13    4      8.06      0.00
  -17   13    4      8.03      0.00
  -15   13    4      6.67      0.00
  -13   13    4      4.51      0.00
  -11   13    4      6.01      0.00
   -9   13    4      8.43      0.00
   -7   13    4      8.57      0.00
   -5   13    4     13.10      0.00
   -3   13    4      6.71      0.00
   -1   13    4     -2.33      0.00
    1   13    4     -0.63      0.00
    3   13    4     -0.42      0.00
    5   13    4     -4.93      0.00
    7   13    4    -10.15      0.00
    9   13    4    -10.78      0.00
   11   13    4     -7.08      0.00
   13   13    4    -10.82      0.00
   15   13    4     -8.82      0.00
   17   13    4     -5.84      0.00
   19   13    4     -3.21      0.00
   21   13    4     -0.82      0.00
   23   13    4      1.62      0.00
  -28   14    4     -0.45      0.00
  -26   14    4      3.07      0.00
  -24   14    4     -5.13      0.00
  -22   14    4     -5.24      0.00
  -20   14    4     -6.97      0.00
  -18   14    4     -6.26      0.00
  -16   14    4     -7.28      0.00
  -14   14    4     -1.50      0.00
  -12   14    4     -0.73      0.00
  -10   14    4     -8.60      0.00
   -8   14    4     -8.50      0.00
   -6   14    4     -9.97      0.00
   -4   14    4    -10.09      0.00
   -2   14    4     -0.82      0.00
    0   14    4      3.55      0.00
    2   14    4      1.13      0.00
    4   14    4      1.05      0.00
    6   14    4      5.26      0.00
    8   14    4      7.65      0.00
   10   14    4      5.49      0.00
   12   14    4      6.26      0.00
   14   14    4     10.14      0.00
   16   14    4      4.93      0.00
   18   14    4      3.35      0.00
   20   14    4      1.99      0.00
   22   14    4      1.57      0.00
  -27   15    4     -1.84      0.00
  -25   15    4      2.28      0.00
  -23   15    4      5.49      0.00
  -21   15    4      4.13      0.00
  -19   15    4      4.54      0.00
  -17   15    4      6.09      0.00
  -15   15    4      2.89      0.00
  -13   15    4     -4.14      0.00
  -11   15    4      0.22      0.00
   -9   15    4      7.78      0.00
   -7   15    4      6.63      0.00
   -5   15    4      7.96      0.00
   -3   15    4      4.19      0.00
   -1   15    4     -3.81      0.00
    1   15    4     -3.86      0.00
    3   15    4      0.74      0.00
    5   15    4     -0.10      0.00
    7   15    4     -1.77      0.00
    9   15    4     -1.81      0.00
   11   15    4     -1.57      0.00
   13   15    4     -5.97      0.00
   15   15    4     -5.65      0.00
   17   15    4     -2.23      0.00
   19   15    4      0.16      0.00
   21   15    4     -1.46      0.00
  -26   16    4      0.50      0.00
  -24   16    4     -4.17      0.00
  -22   16    4     -1.30      0.00
  -20   16    4     -3.54      0.00
  -18   16    4     -3.61      0.00
  -16   16    4     -3.30      0.00
  -14   16    4      3.71      0.00
  -12   16    4      7.05      0.00
  -10   16    4      0.93      0.00
   -8   16    4     -4.27      0.00
   -6   16    4     -3.31      0.00
   -4   16    4     -3.13      0.00
   -2   16    4      1.67      0.00
    0   16    4      5.95      0.00
    2   16    4      0.07      0.00
    4   16    4     -3.68      0.00
    6   16    4     -3.20      0.00
    8   16    4     -4.87      0.00
   10   16    4     -2.05      0.00
   12   16    4      0.04      0.00
   14   16    4      2.41      0.00
   16   16    4      2.19      0.00
   18   16    4     -0.79      0.00
   20   16    4     -2.86      0.00
  -25   17    4      2.76      0.00
  -23   17    4     -0.81      0.00
  -21   17    4      0.87      0.00
  -19   17    4      3.64      0.00
  -17   17    4      1.09      0.00
  -15   17    4     -3.59      0.00
  -13   17    4     -7.67      0.00
  -11   17    4     -9.26      0.00
   -9   17    4     -1.83      0.00
   -7   17    4      0.77      0.00
   -5   17    4      0.69      0.00
   -3   17    4     -1.13      0.00
   -1   17    4     -4.82      0.00
    1   17    4     -3.01      0.00
    3   17    4      3.90      0.00
    5   17    4      6.07      0.00
    7   17    4      8.58      0.00
    9   17    4      8.13      0.00
   11   17    4      2.37      0.00
   13   17    4      2.80      0.00
   15   17    4      0.59      0.00
   17   17    4     -0.06      0.00
   19   17    4      3.50      0.00
  -22   18    4      1.91      0.00
  -20   18    4     -2.31      0.00
  -18   18    4     -1.86      0.00
  -16   18    4      5.84      0.00
  -14   18    4      7.72      0.00
  -12   18    4      9.94      0.00
  -10   18    4      8.02      0.00
   -8   18    4      1.31      0.00
   -6   18    4     -1.10      0.00
   -4   18    4      0.84      0.00
   -2   18    4      2.54      0.00
    0   18    4      4.36      0.00
    2   18    4     -0.48      0.00
    4   18    4     -5.49      0.00
    6   18    4     -8.51      0.00
    8   18    4    -10.74      0.00
   10   18    4     -6.11      0.00
   12   18    4     -3.38      0.00
   14   18    4     -4.23      0.00
   16   18    4     -1.29      0.00
   18   18    4     -1.21      0.00
  -21   19    4      0.63      0.00
  -19   19    4      1.63      0.00
  -17   19    4     -3.67      0.00
  -15   19    4    -10.58      0.00
  -13   19    4     -7.59      0.00
  -11   19    4     -9.15      0.00
   -9   19    4     -3.13      0.00
   -7   19    4      1.35      0.00
   -5   19    4      2.66      0.00
   -3   19    4     -1.35      0.00
   -1   19    4     -2.28      0.00
    1   19    4     -2.81      0.00
    3   19    4      1.73      0.00
    5   19    4      6.65      0.00
    7   19    4      7.90      0.00
    9   19    4      7.89      0.00
   11   19    4      4.20      0.00
   13   19    4      3.25      0.00
   15   19    4      2.95      0.00
  -18   20    4      0.28      0.00
  -16   20    4      9.65      0.00
  -14   20    4      8.20      0.00
  -12   20    4      6.06      0.00
  -10   20    4      4.18      0.00
   -8   20    4     -0.26      0.00
   -6   20    4     -3.84      0.00
   -4   20    4     -1.76      0.00
   -2   20    4      0.67      0.00
    0   20    4      1.49      0.00
    2   20    4      2.10      0.00
    4   20    4     -3.34      0.00
    6   20    4     -4.48      0.00
    8   20    4     -4.36      0.00
   10   20    4     -4.77      0.00
   12   20    4     -2.38      0.00
   14   20    4     -1.32      0.00
  -15   21    4     -9.46      0.00
  -13   21    4     -3.77      0.00
  -11   21    4     -2.80      0.00
   -9   21    4     -2.08      0.00
   -7   21    4      1.23      0.00
   -5   21    4      2.21      0.00
   -3   21    4      1.63      0.00
   -1   21    4      0.87      0.00
    1   21    4     -1.05      0.00
    3   21    4     -0.49      0.00
    5   21    4      2.06      0.00
    7   21    4      0.44      0.00
    9   21    4      1.59      0.00
   11   21    4      2.64      0.00
  -12   22    4     -0.19      0.00
  -10   22    4      2.88      0.00
   -8   22    4      1.89      0.00
   -6   22    4      1.35      0.00
   -4   22    4     -1.67      0.00
   -2   22    4     -2.83      0.00
    0   22    4     -1.96      0.00
    2   22    4      0.95      0.00
    4   22    4     -0.05      0.00
    6   22    4      1.59      0.00
   -9   23    4     -4.39      0.00
   -7   23    4     -1.68      0.00
   -5   23    4     -3.16      0.00
   -3   23    4      3.53      0.00
   -1   23    4      2.82      0.00
    1   23    4      0.86      0.00
    3   23    4     -0.01      0.00
  -33    1    5     -0.97      0.00
  -31    1    5     -0.18      0.00
  -29    1    5     -1.72      0.00
  -27    1    5      2.18      0.00
  -25    1    5      2.36      0.00
  -23    1    5      2.51      0.00
  -21    1    5      4.68      0.00
  -19    1    5      8.60      0.00
  -17    1    5      9.51      0.00
  -15    1    5      8.51      0.00
  -13    1    5      9.99      0.00
  -11    1    5     17.10      0.00
   -9    1    5      1.53      0.00
   -7    1    5    -11.42      0.00
   -5    1    5     -5.48      0.00
   -3    1    5     -4.65      0.00
   -1    1    5    -34.06      0.00
    1    1    5    -25.31      0.00
    3    1    5    -26.20      0.00
    5    1    5    -15.74      0.00
    7    1    5    -12.73      0.00
    9    1    5     -4.67      0.00
   11    1    5     -6.95      0.00
   13    1    5     -1.84      0.00
   15    1    5      2.38      0.00
   17    1    5      3.44      0.00
   19    1    5      2.93      0.00
   21    1    5      2.48      0.00
   23    1    5      3.35      0.00
   25    1    5      3.26      0.00
   27    1    5      0.89      0.00
   29    1    5      1.12      0.00
  -34    2    5      0.18      0.00
  -32    2    5      0.25      0.00
  -30    2    5      2.05      0.00
  -28    2    5     -1.23      0.00
  -26    2    5     -4.46      0.00
  -24    2    5     -5.47      0.00
  -22    2    5     -4.20      0.00
  -20    2    5    -12.91      0.00
  -18    2    5    -14.94      0.00
  -16    2    5    -16.80      0.00
  -14    2    5    -14.69      0.00
  -12    2    5    -25.88      0.00
  -10    2    5    -21.31      0.00
   -8    2    5     12.88      0.00
   -6    2    5     16.12      0.00
   -4    2    5      3.42      0.00
   -2    2    5     33.50      0.00
    0    2    5     52.54      0.00
    2    2    5     43.15      0.00
    4    2    5     35.33      0.00
    6    2    5     27.41      0.00
    8    2    5     12.26      0.00
   10    2    5     10.85      0.00
   12    2    5      7.30      0.00
   14    2    5     -1.08      0.00
   16    2    5     -5.14      0.00
   18    2    5     -5.94      0.00
   20    2    5     -4.71      0.00
   22    2    5     -6.04      0.00
   24    2    5     -5.85      0.00
   26    2    5     -3.20      0.00
   28    2    5     -1.78      0.00
  -35    3    5      2.83      0.00
  -33    3    5      0.49      0.00
  -31    3    5     -1.13      0.00
  -29    3    5     -1.00      0.00
  -27    3    5      5.26      0.00
  -25    3    5      6.60      0.00
  -23    3    5      5.45      0.00
  -21    3    5      9.93      0.00
  -19    3    5     15.88      0.00
  -17    3    5     19.96      0.00
  -15    3    5     17.60      0.00
  -13    3    5     25.47      0.00
  -11    3    5     35.63      0.00
   -9    3    5      3.08      0.00
   -7    3    5    -17.16      0.00
   -5    3    5    -12.69      0.00
   -3    3    5    -11.82      0.00
   -1    3    5    -55.95      0.00
    1    3    5    -51.72      0.00
    3    3    5    -48.28      0.00
    5    3    5    -35.98      0.00
    7    3    5    -25.75      0.00
    9    3    5    -10.21      0.00
   11    3    5    -12.06      0.00
   13    3    5     -2.29      0.00
   15    3    5      4.29      0.00
   17    3    5      6.44      0.00
   19    3    5      6.38      0.00
   21    3    5      7.49      0.00
   23    3    5      7.79      0.00
   25    3    5      4.63      0.00
   27    3    5      2.47      0.00
   29    3    5      1.67      0.00
  -34    4    5     -3.96      0.00
  -32    4    5      1.77      0.00
  -30    4    5      0.99      0.00
  -28    4    5     -2.47      0.00
  -26    4    5     -6.17      0.00
  -24    4    5     -6.55      0.00
  -22    4    5     -6.25      0.00
  -20    4    5    -12.84      0.00
  -18    4    5    -15.75      0.00
  -16    4    5    -17.81      0.00
  -14    4    5    -20.80      0.00
  -12    4    5    -35.77      0.00
  -10    4    5    -23.85      0.00
   -8    4    5     11.38      0.00
   -6    4    5     10.62      0.00
   -4    4    5      7.10      0.00
   -2    4    5     26.27      0.00
    0    4    5     53.54      0.00
    2    4    5     48.57      0.00
    4    4    5     37.94      0.00
    6    4    5     33.09      0.00
    8    4    5     12.50      0.00
   10    4    5     12.08      0.00
   12    4    5      5.75      0.00
   14    4    5     -1.82      0.00
   16    4    5     -5.05      0.00
   18    4    5     -6.99      0.00
   20    4    5     -5.25      0.00
   22    4    5     -9.57      0.00
   24    4    5     -4.78      0.00
   26    4    5     -1.88      0.00
   28    4    5     -2.80      0.00
  -35    5    5      2.89      0.00
  -33    5    5      0.73      0.00
  -31    5    5     -2.59      0.00
  -29    5    5      1.42      0.00
  -27    5    5      2.90      0.00
  -25    5    5      5.22      0.00
  -23    5    5      3.89      0.00
  -21    5    5      9.05      0.00
  -19    5    5      8.47      0.00
  -17    5    5     12.63      0.00
  -15    5    5     12.53      0.00
  -13    5    5     27.95      0.00
  -11    5    5     31.82      0.00
   -9    5    5      2.94      0.00
   -7    5    5     -9.44      0.00
   -5    5    5     -2.04      0.00
   -3    5    5     -3.84      0.00
   -1    5    5    -29.70      0.00
    1    5    5    -45.34      0.00
    3    5    5    -32.43      0.00
    5    5    5    -29.12      0.00
    7    5    5    -14.18      0.00
    9    5    5     -9.80      0.00
   11    5    5     -6.91      0.00
   13    5    5     -2.14      0.00
   15    5    5      3.14      0.00
   17    5    5      5.79      0.00
   19    5    5      4.04      0.00
   21    5    5      5.33      0.00
   23    5    5      6.32      0.00
   25    5    5     -0.13      0.00
   27    5    5      1.06      0.00
  -34    6    5     -1.37      0.00
  -32    6    5      1.55      0.00
  -30    6    5     -0.34      0.00
  -28    6    5     -1.92      0.00
  -26    6    5     -1.51      0.00
  -24    6    5     -1.29      0.00
  -22    6    5     -4.19      0.00
  -20    6    5     -4.91      0.00
  -18    6    5     -2.87      0.00
  -16    6    5     -2.99      0.00
  -14    6    5    -14.29      0.00
  -12    6    5    -25.47      0.00
  -10    6    5    -16.44      0.00
   -8    6    5      8.11      0.00
   -6    6    5      0.93      0.00
   -4    6    5     -5.61      0.00
   -2    6    5     -0.52      0.00
    0    6    5     25.14      0.00
    2    6    5     25.97      0.00
    4    6    5     17.26      0.00
    6    6    5      8.86      0.00
    8    6    5      5.30      0.00
   10    6    5      5.94      0.00
   12    6    5      4.39      0.00
   14    6    5     -0.04      0.00
   16    6    5     -1.94      0.00
   18    6    5     -5.85      0.00
   20    6    5      0.01      0.00
   22    6    5     -4.05      0.00
   24    6    5     -0.02      0.00
   26    6    5      2.94      0.00
   28    6    5      0.12      0.00
  -33    7    5      1.15      0.00
  -31    7    5      0.33      0.00
  -29    7    5      2.05      0.00
  -27    7    5      0.61      0.00
  -25    7    5     -1.63      0.00
  -23    7    5     -1.53      0.00
  -21    7    5      2.30      0.00
  -19    7    5     -2.99      0.00
  -17    7    5     -6.22      0.00
  -15    7    5     -1.52      0.00
  -13    7    5     13.18      0.00
  -11    7    5     14.09      0.00
   -9    7    5      2.76      0.00
   -7    7    5     -6.42      0.00
   -5    7    5      5.63      0.00
   -3    7    5     14.40      0.00
   -1    7    5      8.60      0.00
    1    7    5    -11.03      0.00
    3    7    5     -5.99      0.00
    5    7    5      0.91      0.00
    7    7    5      5.40      0.00
    9    7    5     -4.81      0.00
   11    7    5     -1.34      0.00
   13    7    5     -3.56      0.00
   15    7    5     -0.51      0.00
   17    7    5      2.62      0.00
   19    7    5      2.05      0.00
   21    7    5     -1.80      0.00
   23    7    5     -0.22      0.00
   25    7    5     -3.69      0.00
   27    7    5     -4.71      0.00
  -34    8    5     -0.01      0.00
  -32    8    5     -4.21      0.00
  -30    8    5      0.56      0.00
  -28    8    5     -2.26      0.00
  -26    8    5      2.87      0.00
  -24    8    5      4.30      0.00
  -22    8    5      3.55      0.00
  -20    8    5      3.67      0.00
  -18    8    5     10.73      0.00
  -16    8    5     13.02      0.00
  -14    8    5     -0.08      0.00
  -12    8    5     -3.95      0.00
  -10    8    5     -5.21      0.00
   -8    8    5      0.60      0.00
   -6    8    5      0.30      0.00
   -4    8    5    -11.24      0.00
   -2    8    5    -28.69      0.00
    0    8    5    -16.29      0.00
    2    8    5     -3.57      0.00
    4    8    5     -8.42      0.00
    6    8    5    -17.16      0.00
    8    8    5     -1.56      0.00
   10    8    5     -1.35      0.00
   12    8    5      2.17      0.00
   14    8    5      0.38      0.00
   16    8    5      2.16      0.00
   18    8    5     -3.09      0.00
   20    8    5      2.68      0.00
   22    8    5      3.02      0.00
   24    8    5      2.40      0.00
   26    8    5      5.56      0.00
  -33    9    5      3.37      0.00
  -31    9    5      1.69      0.00
  -29    9    5     -2.83      0.00
  -27    9    5     -0.22      0.00
  -25    9    5     -6.06      0.00
  -23    9    5     -5.84      0.00
  -21    9    5     -6.70      0.00
  -19    9    5     -8.56      0.00
  -17    9    5    -16.02      0.00
  -15    9    5     -9.54      0.00
  -13    9    5     -2.33      0.00
  -11    9    5     -2.61      0.00
   -9    9    5      4.16      0.00
   -7    9    5      4.35      0.00
   -5    9    5      2.72      0.00
   -3    9    5     24.87      0.00
   -1    9    5     36.16      0.00
    1    9    5     16.34      0.00
    3    9    5     10.26      0.00
    5    9    5     21.49      0.00
    7    9    5     12.73      0.00
    9    9    5      2.23      0.00
   11    9    5      2.37      0.00
   13    9    5      0.63      0.00
   15    9    5     -0.78      0.00
   17    9    5     -0.34      0.00
   19    9    5     -0.67      0.00
   21    9    5     -4.52      0.00
   23    9    5     -2.24      0.00
   25    9    5     -2.70      0.00
   27    9    5     -6.63      0.00
  -32   10    5     -3.59      0.00
  -30   10    5      6.06      0.00
  -28   10    5      2.56      0.00
  -26   10    5      5.58      0.00
  -24   10    5      5.89      0.00
  -22   10    5      8.09      0.00
  -20   10    5      6.57      0.00
  -18   10    5     11.48      0.00
  -16   10    5     11.68      0.00
  -14   10    5      3.91      0.00
  -12   10    5      6.07      0.00
  -10   10    5      1.86      0.00
   -8   10    5     -9.56      0.00
   -6   10    5     -5.39      0.00
   -4   10    5     -9.72      0.00
   -2   10    5    -34.81      0.00
    0   10    5    -26.65      0.00
    2   10    5    -10.11      0.00
    4   10    5    -17.36      0.00
    6   10    5    -18.45      0.00
    8   10    5     -6.62      0.00
   10   10    5     -2.91      0.00
   12   10    5     -2.84      0.00
   14   10    5     -1.37      0.00
   16   10    5      0.34      0.00
   18   10    5      0.32      0.00
   20   10    5      3.86      0.00
   22   10    5      2.14      0.00
   24   10    5      0.62      0.00
   26   10    5      4.39      0.00
  -31   11    5     -1.99      0.00
  -29   11    5     -7.93      0.00
  -27   11    5     -3.85      0.00
  -25   11    5     -7.65      0.00
  -23   11    5     -5.53      0.00
  -21   11    5     -5.96      0.00
  -19   11    5     -4.81      0.00
  -17   11    5     -8.90      0.00
  -15   11    5     -1.58      0.00
  -13   11    5     -2.55      0.00
  -11   11    5     -6.11      0.00
   -9   11    5      3.15      0.00
   -7   11    5     11.20      0.00
   -5   11    5      2.51      0.00
   -3   11    5     18.51      0.00
   -1   11    5     26.67      0.00
    1   11    5     11.33      0.00
    3   11    5      9.67      0.00
    5   11    5     16.01      0.00
    7   11    5      9.81      0.00
    9   11    5      3.19      0.00
   11   11    5      1.80      0.00
   13   11    5      2.18      0.00
   15   11    5      0.05      0.00
   17   11    5      0.83      0.00
   19   11    5     -2.21      0.00
   21   11    5     -1.56      0.00
   23   11    5      0.63      0.00
   25   11    5     -2.21      0.00
  -30   12    5      5.39      0.00
  -28   12    5      4.19      0.00
  -26   12    5      6.33      0.00
  -24   12    5      5.50      0.00
  -22   12    5      3.28      0.00
  -20   12    5      0.38      0.00
  -18   12    5      3.38      0.00
  -16   12    5      0.76      0.00
  -14   12    5     -4.72      0.00
  -12   12    5      2.83      0.00
  -10   12    5      3.53      0.00
   -8   12    5     -6.73      0.00
   -6   12    5     -4.24      0.00
   -4   12    5     -2.98      0.00
   -2   12    5    -16.68      0.00
    0   12    5    -11.92      0.00
    2   12    5     -4.25      0.00
    4   12    5     -9.63      0.00
    6   12    5     -7.70      0.00
    8   12    5     -4.40      0.00
   10   12    5      1.36      0.00
   12   12    5     -1.22      0.00
   14   12    5      1.12      0.00
   16   12    5     -0.77      0.00
   18   12    5      0.16      0.00
   20   12    5      0.76      0.00
   22   12    5     -2.09      0.00
   24   12    5      0.84      0.00
  -29   13    5     -1.79      0.00
  -27   13    5     -3.07      0.00
  -25   13    5     -4.33      0.00
  -23   13    5     -2.02      0.00
  -21   13    5      2.04      0.00
  -19   13    5      2.76      0.00
  -17   13    5     -0.70      0.00
  -15   13    5      7.16      0.00
  -13   13    5      5.22      0.00
  -11   13    5     -1.31      0.00
   -9   13    5     -0.68      0.00
   -7   13    5      4.63      0.00
   -5   13    5     -2.89      0.00
   -3   13    5      3.46      0.00
   -1   13    5      8.48      0.00
    1   13    5      2.07      0.00
    3   13    5      2.89      0.00
    5   13    5      3.54      0.00
    7   13    5      2.12      0.00
    9   13    5     -2.07      0.00
   11   13    5     -2.18      0.00
   13   13    5     -2.16      0.00
   15   13    5     -0.18      0.00
   17   13    5      0.10      0.00
   19   13    5     -0.76      0.00
   21   13    5      2.74      0.00
   23   13    5      1.05      0.00
  -28   14    5     -0.89      0.00
  -26   14    5      1.79      0.00
  -24   14    5     -0.85      0.00
  -22   14    5     -1.63      0.00
  -20   14    5     -5.49      0.00
  -18   14    5     -3.88      0.00
  -16   14    5     -3.29      0.00
  -14   14    5     -9.96      0.00
  -12   14    5     -5.39      0.00
  -10   14    5     -1.04      0.00
   -8   14    5     -1.26      0.00
   -6   14    5      0.99      0.00
   -4   14    5      5.11      0.00
   -2   14    5     -1.40      0.00
    0   14    5      0.18      0.00
    2   14    5      2.29      0.00
    4   14    5      0.94      0.00
    6   14    5      1.71      0.00
    8   14    5      3.59      0.00
   10   14    5      3.44      0.00
   12   14    5      4.82      0.00
   14   14    5      0.77      0.00
   16   14    5     -0.94      0.00
   18   14    5      1.68      0.00
   20   14    5      0.17      0.00
   22   14    5     -3.78      0.00
  -27   15    5     -0.61      0.00
  -25   15    5      4.57      0.00
  -23   15    5      2.74      0.00
  -21   15    5      4.04      0.00
  -19   15    5      6.99      0.00
  -17   15    5      4.77      0.00
  -15   15    5      6.36      0.00
  -13   15    5      8.52      0.00
  -11   15    5      7.51      0.00
   -9   15    5      1.77      0.00
   -7   15    5      0.64      0.00
   -5   15    5     -5.28      0.00
   -3   15    5     -5.13      0.00
   -1   15    5     -3.61      0.00
    1   15    5     -6.14      0.00
    3   15    5     -4.45      0.00
    5   15    5     -5.04      0.00
    7   15    5     -5.46      0.00
    9   15    5     -4.81      0.00
   11   15    5     -4.46      0.00
   13   15    5     -5.16      0.00
   15   15    5      3.02      0.00
   17   15    5     -0.23      0.00
   19   15    5     -3.58      0.00
  -26   16    5     -1.98      0.00
  -24   16    5     -7.57      0.00
  -22   16    5     -2.01      0.00
  -20   16    5     -5.66      0.00
  -18   16    5     -8.52      0.00
  -16   16    5     -5.11      0.00
  -14   16    5     -5.50      0.00
  -12   16    5     -7.17      0.00
  -10   16    5     -6.79      0.00
   -8   16    5     -0.29      0.00
   -6   16    5      2.45      0.00
   -4   16    5      6.50      0.00
   -2   16    5      6.77      0.00
    0   16    5      8.02      0.00
    2   16    5      6.36      0.00
    4   16    5      6.61      0.00
    6   16    5      5.52      0.00
    8   16    5      6.35      0.00
   10   16    5      3.13      0.00
   12   16    5      6.77      0.00
   14   16    5      0.94      0.00
   16   16    5     -3.23      0.00
   18   16    5      2.03      0.00
  -25   17    5      6.32      0.00
  -23   17    5      3.46      0.00
  -21   17    5      3.54      0.00
  -19   17    5      7.25      0.00
  -17   17    5      8.78      0.00
  -15   17    5      3.31      0.00
  -13   17    5      2.20      0.00
  -11   17    5      4.85      0.00
   -9   17    5      2.27      0.00
   -7   17    5     -2.58      0.00
   -5   17    5     -4.16      0.00
   -3   17    5     -6.79      0.00
   -1   17    5     -8.26      0.00
    1   17    5     -6.17      0.00
    3   17    5     -5.72      0.00
    5   17    5     -4.75      0.00
    7   17    5     -3.11      0.00
    9   17    5     -4.88      0.00
   11   17    5     -3.25      0.00
   13   17    5     -5.60      0.00
   15   17    5      1.60      0.00
   17   17    5      1.64      0.00
  -24   18    5     -3.98      0.00
  -22   18    5     -1.62      0.00
  -20   18    5     -5.60      0.00
  -18   18    5     -8.35      0.00
  -16   18    5     -5.94      0.00
  -14   18    5     -0.70      0.00
  -12   18    5      1.93      0.00
  -10   18    5     -1.72      0.00
   -8   18    5      2.44      0.00
   -6   18    5      2.82      0.00
   -4   18    5      4.18      0.00
   -2   18    5      6.59      0.00
    0   18    5      5.20      0.00
    2   18    5      3.07      0.00
    4   18    5      3.31      0.00
    6   18    5     -2.04      0.00
    8   18    5      2.28      0.00
   10   18    5      3.32      0.00
   12   18    5      3.23      0.00
   14   18    5      2.94      0.00
   16   18    5     -1.46      0.00
   18   18    5     -0.18      0.00
  -21   19    5      3.45      0.00
  -19   19    5      6.18      0.00
  -17   19    5      7.05      0.00
  -15   19    5      3.20      0.00
  -13   19    5     -2.81      0.00
  -11   19    5     -3.01      0.00
   -9   19    5     -0.73      0.00
   -7   19    5     -2.03      0.00
   -5   19    5     -1.97      0.00
   -3   19    5     -3.81      0.00
   -1   19    5     -4.36      0.00
    1   19    5     -0.67      0.00
    3   19    5     -0.86      0.00
    5   19    5      4.67      0.00
    7   19    5      5.04      0.00
    9   19    5     -3.18      0.00
   11   19    5     -1.52      0.00
   13   19    5     -2.68      0.00
   15   19    5     -1.16      0.00
  -20   20    5     -4.13      0.00
  -18   20    5     -5.95      0.00
  -16   20    5     -4.33      0.00
  -14   20    5     -1.74      0.00
  -12   20    5      5.35      0.00
  -10   20    5     -0.17      0.00
   -8   20    5      0.94      0.00
   -6   20    5     -1.16      0.00
   -4   20    5      3.26      0.00
   -2   20    5      2.40      0.00
    0   20    5      0.52      0.00
    2   20    5     -1.86      0.00
    4   20    5     -5.21      0.00
    6   20    5     -9.64      0.00
    8   20    5     -1.59      0.00
   10   20    5      1.94      0.00
   12   20    5      1.21      0.00
  -17   21    5      3.55      0.00
  -15   21    5      3.87      0.00
  -13   21    5     -2.19      0.00
  -11   21    5     -1.85      0.00
   -9   21    5      0.73      0.00
   -7   21    5      2.77      0.00
   -5   21    5     -0.69      0.00
   -3   21    5     -2.69      0.00
   -1   21    5      0.23      0.00
    1   21    5      2.32      0.00
    3   21    5      4.98      0.00
    5   21    5      9.60      0.00
    7   21    5      5.87      0.00
    9   21    5     -0.94      0.00
   11   21    5     -0.57      0.00
  -12   22    5      4.32      0.00
  -10   22    5     -0.76      0.00
   -8   22    5     -0.63      0.00
   -6   22    5     -3.62      0.00
   -4   22    5      2.62      0.00
   -2   22    5     -0.48      0.00
    0   22    5     -2.55      0.00
    2   22    5     -2.79      0.00
    4   22    5     -7.09      0.00
    6   22    5     -6.39      0.00
   -9   23    5     -1.14      0.00
   -7   23    5      2.03      0.00
   -5   23    5      1.00      0.00
   -3   23    5     -0.39      0.00
   -1   23    5      2.85      0.00
    1   23    5      1.34      0.00
    3   23    5      2.69      0.00
  -34    0    6      8.16      0.00
  -32    0    6      8.47      0.00
  -30    0    6      7.76      0.00
  -28    0    6      8.46      0.00
  -26    0    6      7.77      0.00
  -24    0    6      9.76      0.00
  -22    0    6     11.41      0.00
  -20    0    6      9.60      0.00
  -18    0    6     -1.18      0.00
  -16    0    6     -5.22      0.00
  -14    0    6      2.06      0.00
  -12    0    6     11.06      0.00
  -10    0    6    -32.79      0.00
   -8    0    6    -43.24      0.00
   -6    0    6    -30.84      0.00
   -4    0    6    -36.51      0.00
   -2    0    6    -60.64      0.00
    0    0    6    -46.67      0.00
    2    0    6    -36.44      0.00
    4    0    6     -9.74      0.00
    6    0    6     -1.39      0.00
    8    0    6      6.62      0.00
   10    0    6     -0.02      0.00
   12    0    6     13.18      0.00
   14    0    6     15.51      0.00
   16    0    6      9.31      0.00
   18    0    6      8.41      0.00
   20    0    6      4.46      0.00
   22    0    6      1.35      0.00
   24    0    6     -6.01      0.00
   26    0    6     -3.56      0.00
   28    0    6      2.96      0.00
  -35    1    6     -2.78      0.00
  -33    1    6     -9.30      0.00
  -31    1    6     -6.10      0.00
  -29    1    6     -9.50      0.00
  -27    1    6     -5.47      0.00
  -25    1    6     -9.83      0.00
  -23    1    6     -7.30      0.00
  -21    1    6    -12.41      0.00
  -19    1    6     -1.65      0.00
  -17    1    6      3.74      0.00
  -15    1    6      3.23      0.00
  -13    1    6    -11.10      0.00
  -11    1    6      3.77      0.00
   -9    1    6     40.25      0.00
   -7    1    6     27.38      0.00
   -5    1    6     25.59      0.00
   -3    1    6     42.16      0.00
   -1    1    6     48.22      0.00
    1    1    6     40.11      0.00
    3    1    6     18.02      0.00
    5    1    6      7.34      0.00
    7    1    6     -6.07      0.00
    9    1    6      0.13      0.00
   11    1    6     -5.37      0.00
   13    1    6    -14.56      0.00
   15    1    6     -9.54      0.00
   17    1    6     -8.71      0.00
   19    1    6     -4.75      0.00
   21    1    6     -4.20      0.00
   23    1    6      3.67      0.00
   25    1    6      5.13      0.00
   27    1    6     -0.16      0.00
  -34    2    6      6.03      0.00
  -32    2    6      4.72      0.00
  -30    2    6      7.40      0.00
  -28    2    6      5.70      0.00
  -26    2    6      5.59      0.00
  -24    2    6      6.16      0.00
  -22    2    6      7.62      0.00
  -20    2    6      4.88      0.00
  -18    2    6     -3.59      0.00
  -16    2    6     -4.30      0.00
  -14    2    6      6.07      0.00
  -12    2    6     13.21      0.00
  -10    2    6    -14.64      0.00
   -8    2    6    -15.77      0.00
   -6    2    6    -10.44      0.00
   -4    2    6    -13.72      0.00
   -2    2    6    -28.20      0.00
    0    2    6    -31.92      0.00
    2    2    6    -21.70      0.00
    4    2    6     -8.37      0.00
    6    2    6     -1.10      0.00
    8    2    6      1.10      0.00
   10    2    6     -1.23      0.00
   12    2    6      5.99      0.00
   14    2    6      7.94      0.00
   16    2    6      4.15      0.00
   18    2    6      4.64      0.00
   20    2    6      2.96      0.00
   22    2    6      0.31      0.00
   24    2    6     -5.58      0.00
   26    2    6     -1.29      0.00
   28    2    6      1.76      0.00
  -35    3    6     -2.55      0.00
  -33    3    6     -2.15      0.00
  -31    3    6     -3.27      0.00
  -29    3    6     -5.58      0.00
  -27    3    6     -1.68      0.00
  -25    3    6     -4.44      0.00
  -23    3    6     -3.84      0.00
  -21    3    6     -4.52      0.00
  -19    3    6      2.22      0.00
  -17    3    6      5.69      0.00
  -15    3    6     -3.26      0.00
  -13    3    6    -14.36      0.00
  -11    3    6    -10.34      0.00
   -9    3    6     -0.17      0.00
   -7    3    6    -10.69      0.00
   -5    3    6     -6.40      0.00
   -3    3    6     -3.55      0.00
   -1    3    6     12.70      0.00
    1    3    6     16.63      0.00
    3    3    6      5.20      0.00
    5    3    6      3.52      0.00
    7    3    6      2.20      0.00
    9    3    6      5.34      0.00
   11    3    6      3.78      0.00
   13    3    6     -0.90      0.00
   15    3    6      0.91      0.00
   17    3    6     -0.93      0.00
   19    3    6      1.19      0.00
   21    3    6     -1.74      0.00
   23    3    6      4.23      0.00
   25    3    6      2.67      0.00
   27    3    6     -0.80      0.00
  -36    4    6     -0.56      0.00
  -34    4    6     -0.40      0.00
  -32    4    6     -0.92      0.00
  -30    4    6      3.07      0.00
  -28    4    6     -0.11      0.00
  -26    4    6      0.53      0.00
  -24    4    6      1.90      0.00
  -22    4    6      2.91      0.00
  -20    4    6     -0.66      0.00
  -18    4    6     -5.98      0.00
  -16    4    6      0.66      0.00
  -14    4    6     10.77      0.00
  -12    4    6     19.21      0.00
  -10    4    6     16.79      0.00
   -8    4    6     23.48      0.00
   -6    4    6     25.58      0.00
   -4    4    6     22.85      0.00
   -2    4    6     15.90      0.00
    0    4    6     -4.99      0.00
    2    4    6     -0.07      0.00
    4    4    6      1.36      0.00
    6    4    6     -2.29      0.00
    8    4    6    -11.49      0.00
   10    4    6     -9.07      0.00
   12    4    6    -10.94      0.00
   14    4    6     -5.56      0.00
   16    4    6     -4.80      0.00
   18    4    6     -4.14      0.00
   20    4    6     -3.49      0.00
   22    4    6     -1.23      0.00
   24    4    6     -4.14      0.00
   26    4    6     -0.25      0.00
   28    4    6     -0.32      0.00
  -35    5    6      4.22      0.00
  -33    5    6      1.67      0.00
  -31    5    6      2.37      0.00
  -29    5    6     -0.53      0.00
  -27    5    6      3.96      0.00
  -25    5    6      1.04      0.00
  -23    5    6     -0.32      0.00
  -21    5    6      0.21      0.00
  -19    5    6      4.17      0.00
  -17    5    6      2.91      0.00
  -15    5    6     -8.99      0.00
  -13    5    6    -13.99      0.00
  -11    5    6    -26.41      0.00
   -9    5    6    -30.39      0.00
   -7    5    6    -34.11      0.00
   -5    5    6    -33.58      0.00
   -3    5    6    -34.18      0.00
   -1    5    6    -18.54      0.00
    1    5    6     -3.71      0.00
    3    5    6     -7.89      0.00
    5    5    6     -5.07      0.00
    7    5    6     14.07      0.00
    9    5    6     13.01      0.00
   11    5    6     18.12      0.00
   13    5    6     13.58      0.00
   15    5    6      9.49      0.00
   17    5    6      4.82      0.00
   19    5    6      7.67      0.00
   21    5    6      3.35      0.00
   23    5    6      2.31      0.00
   25    5    6      2.07      0.00
   27    5    6      1.06      0.00
  -34    6    6     -4.33      0.00
  -32    6    6     -3.48      0.00
  -30    6    6     -3.32      0.00
  -28    6    6     -2.63      0.00
  -26    6    6     -6.10      0.00
  -24    6    6     -3.02      0.00
  -22    6    6     -2.91      0.00
  -20    6    6     -1.87      0.00
  -18    6    6     -5.52      0.00
  -16    6    6      7.26      0.00
  -14    6    6      8.16      0.00
  -12    6    6     20.62      0.00
  -10    6    6     35.32      0.00
   -8    6    6     36.89      0.00
   -6    6    6     32.42      0.00
   -4    6    6     38.95      0.00
   -2    6    6     38.22      0.00
    0    6    6     17.02      0.00
    2    6    6      7.97      0.00
    4    6    6     14.13      0.00
    6    6    6     -6.38      0.00
    8    6    6    -16.69      0.00
   10    6    6    -16.40      0.00
   12    6    6    -20.36      0.00
   14    6    6    -13.17      0.00
   16    6    6     -6.93      0.00
   18    6    6     -4.37      0.00
   20    6    6     -7.29      0.00
   22    6    6     -1.65      0.00
   24    6    6     -0.67      0.00
   26    6    6     -2.05      0.00
  -33    7    6      3.24      0.00
  -31    7    6      8.24      0.00
  -29    7    6      1.64      0.00
  -27    7    6      6.73      0.00
  -25    7    6      6.05      0.00
  -23    7    6      6.63      0.00
  -21    7    6      2.98      0.00
  -19    7    6      3.90      0.00
  -17    7    6     -1.67      0.00
  -15    7    6     -9.12      0.00
  -13    7    6     -7.88      0.00
  -11    7    6    -28.23      0.00
   -9    7    6    -40.65      0.00
   -7    7    6    -29.25      0.00
   -5    7    6    -28.95      0.00
   -3    7    6    -40.98      0.00
   -1    7    6    -32.67      0.00
    1    7    6     -9.63      0.00
    3    7    6    -14.76      0.00
    5    7    6     -6.72      0.00
    7    7    6     13.58      0.00
    9    7    6     13.02      0.00
   11    7    6     17.22      0.00
   13    7    6     15.45      0.00
   15    7    6      8.65      0.00
   17    7    6      1.98      0.00
   19    7    6      3.94      0.00
   21    7    6      4.24      0.00
   23    7    6     -1.63      0.00
   25    7    6      0.04      0.00
   27    7    6      1.51      0.00
  -34    8    6     -6.68      0.00
  -32    8    6     -7.23      0.00
  -30    8    6     -7.57      0.00
  -28    8    6     -2.29      0.00
  -26    8    6     -7.53      0.00
  -24    8    6     -5.58      0.00
  -22    8    6     -6.62      0.00
  -20    8    6     -0.46      0.00
  -18    8    6     -2.51      0.00
  -16    8    6      9.10      0.00
  -14    8    6      3.01      0.00
  -12    8    6     12.39      0.00
  -10    8    6     31.44      0.00
   -8    8    6     34.58      0.00
   -6    8    6     15.85      0.00
   -4    8    6     26.98      0.00
   -2    8    6     32.40      0.00
    0    8    6     16.64      0.00
    2    8    6      8.07      0.00
    4    8    6     14.60      0.00
    6    8    6     -4.75      0.00
    8    8    6     -8.35      0.00
   10    8    6    -10.82      0.00
   12    8    6    -11.05      0.00
   14    8    6     -8.46      0.00
   16    8    6     -1.85      0.00
   18    8    6      0.65      0.00
   20    8    6     -3.58      0.00
   22    8    6      0.35      0.00
   24    8    6      2.49      0.00
   26    8    6      0.38      0.00
  -33    9    6      7.56      0.00
  -31    9    6      8.60      0.00
  -29    9    6      3.58      0.00
  -27    9    6      4.15      0.00
  -25    9    6      3.42      0.00
  -23    9    6      3.73      0.00
  -21    9    6      0.16      0.00
  -19    9    6     -0.63      0.00
  -17    9    6     -4.43      0.00
  -15    9    6     -5.56      0.00
  -13    9    6     -1.06      0.00
  -11    9    6    -12.70      0.00
   -9    9    6    -28.50      0.00
   -7    9    6    -16.57      0.00
   -5    9    6     -8.05      0.00
   -3    9    6    -16.43      0.00
   -1    9    6    -15.89      0.00
    1    9    6     -3.91      0.00
    3    9    6    -11.89      0.00
    5    9    6     -2.28      0.00
    7    9    6      1.54      0.00
    9    9    6      7.04      0.00
   11    9    6      3.52      0.00
   13    9    6      6.21      0.00
   15    9    6     -0.14      0.00
   17    9    6     -1.81      0.00
   19    9    6     -0.07      0.00
   21    9    6      2.16      0.00
   23    9    6     -1.03      0.00
   25    9    6     -1.52      0.00
  -32   10    6     -5.46      0.00
  -30   10    6     -4.02      0.00
  -28   10    6     -2.23      0.00
  -26   10    6     -1.01      0.00
  -24   10    6      1.74      0.00
  -22   10    6      2.73      0.00
  -20   10    6      5.47      0.00
  -18   10    6      3.00      0.00
  -16   10    6      6.87      0.00
  -14   10    6     -1.28      0.00
  -12   10    6      0.09      0.00
  -10   10    6      8.29      0.00
   -8   10    6     16.28      0.00
   -6   10    6      0.66      0.00
   -4   10    6     -1.14      0.00
   -2   10    6      2.55      0.00
    0   10    6      2.55      0.00
    2   10    6      3.51      0.00
    4   10    6      4.33      0.00
    6   10    6      0.64      0.00
    8   10    6     -1.10      0.00
   10   10    6     -1.98      0.00
   12   10    6     -0.55      0.00
   14   10    6      0.59      0.00
   16   10    6      3.64      0.00
   18   10    6      2.83      0.00
   20   10    6     -2.58      0.00
   22   10    6     -2.64      0.00
   24   10    6     -1.81      0.00
  -31   11    6     -1.07      0.00
  -29   11    6      1.27      0.00
  -27   11    6     -1.32      0.00
  -25   11    6     -3.94      0.00
  -23   11    6     -7.52      0.00
  -21   11    6     -8.62      0.00
  -19   11    6     -7.79      0.00
  -17   11    6     -4.71      0.00
  -15   11    6     -2.76      0.00
  -13   11    6      4.51      0.00
  -11   11    6      4.78      0.00
   -9   11    6     -2.64      0.00
   -7   11    6     -0.82      0.00
   -5   11    6      9.17      0.00
   -3   11    6     12.25      0.00
   -1   11    6      3.63      0.00
    1   11    6      2.15      0.00
    3   11    6     -1.35      0.00
    5   11    6      1.44      0.00
    7   11    6     -2.81      0.00
    9   11    6      1.07      0.00
   11   11    6     -2.53      0.00
   13   11    6     -1.80      0.00
   15   11    6     -4.04      0.00
   17   11    6     -4.04      0.00
   19   11    6      0.16      0.00
   21   11    6      4.98      0.00
   23   11    6      5.67      0.00
   25   11    6      1.21      0.00
  -30   12    6      4.29      0.00
  -28   12    6      0.84      0.00
  -26   12    6      7.25      0.00
  -24   12    6      6.82      0.00
  -22   12    6     10.64      0.00
  -20   12    6     11.26      0.00
  -18   12    6      6.39      0.00
  -16   12    6      3.79      0.00
  -14   12    6     -1.77      0.00
  -12   12    6     -6.18      0.00
  -10   12    6     -9.45      0.00
   -8   12    6     -3.03      0.00
   -6   12    6     -9.61      0.00
   -4   12    6    -17.65      0.00
   -2   12    6    -15.15      0.00
    0   12    6     -5.45      0.00
    2   12    6     -2.96      0.00
    4   12    6     -3.20      0.00
    6   12    6      0.66      0.00
    8   12    6      2.45      0.00
   10   12    6      2.79      0.00
   12   12    6      3.62      0.00
   14   12    6      5.04      0.00
   16   12    6      2.02      0.00
   18   12    6      2.35      0.00
   20   12    6     -4.43      0.00
   22   12    6     -5.70      0.00
  -29   13    6     -2.21      0.00
  -27   13    6     -7.48      0.00
  -25   13    6     -8.39      0.00
  -23   13    6     -6.94      0.00
  -21   13    6     -9.80      0.00
  -19   13    6    -10.58      0.00
  -17   13    6     -2.30      0.00
  -15   13    6     -1.54      0.00
  -13   13    6      2.86      0.00
  -11   13    6      8.46      0.00
   -9   13    6      9.72      0.00
   -7   13    6      7.50      0.00
   -5   13    6     15.57      0.00
   -3   13    6     21.84      0.00
   -1   13    6     12.56      0.00
    1   13    6      4.64      0.00
    3   13    6      3.82      0.00
    5   13    6      2.12      0.00
    7   13    6     -2.97      0.00
    9   13    6     -4.98      0.00
   11   13    6     -3.09      0.00
   13   13    6     -6.74      0.00
   15   13    6     -2.02      0.00
   17   13    6     -0.44      0.00
   19   13    6      2.20      0.00
   21   13    6      3.66      0.00
   23   13    6      3.60      0.00
  -28   14    6      3.53      0.00
  -26   14    6     11.62      0.00
  -24   14    6      4.26      0.00
  -22   14    6      4.40      0.00
  -20   14    6      8.35      0.00
  -18   14    6      5.22      0.00
  -16   14    6     -0.97      0.00
  -14   14    6     -0.03      0.00
  -12   14    6     -2.27      0.00
  -10   14    6     -8.98      0.00
   -8   14    6     -7.10      0.00
   -6   14    6     -9.68      0.00
   -4   14    6    -18.88      0.00
   -2   14    6    -19.57      0.00
    0   14    6     -6.27      0.00
    2   14    6     -2.18      0.00
    4   14    6     -2.41      0.00
    6   14    6      1.72      0.00
    8   14    6      5.61      0.00
   10   14    6      3.81      0.00
   12   14    6      3.75      0.00
   14   14    6      5.02      0.00
   16   14    6     -1.06      0.00
   18   14    6     -1.29      0.00
   20   14    6     -2.81      0.00
   22   14    6      0.29      0.00
  -27   15    6     -8.15      0.00
  -25   15    6     -6.85      0.00
  -23   15    6     -0.39      0.00
  -21   15    6     -2.03      0.00
  -19   15    6     -5.25      0.00
  -17   15    6      1.18      0.00
  -15   15    6      2.17      0.00
  -13   15    6     -0.02      0.00
  -11   15    6      2.01      0.00
   -9   15    6      5.63      0.00
   -7   15    6      3.67      0.00
   -5   15    6      9.70      0.00
   -3   15    6     18.02      0.00
   -1   15    6      9.28      0.00
    1   15    6     -0.93      0.00
    3   15    6      0.23      0.00
    5   15    6     -1.80      0.00
    7   15    6     -4.85      0.00
    9   15    6     -3.50      0.00
   11   15    6     -1.33      0.00
   13   15    6     -2.04      0.00
   15   15    6     -1.49      0.00
   17   15    6      0.83      0.00
   19   15    6      1.57      0.00
  -26   16    6      6.06      0.00
  -24   16    6      0.89      0.00
  -22   16    6     -0.79      0.00
  -20   16    6      0.57      0.00
  -18   16    6      0.31      0.00
  -16   16    6     -3.82      0.00
  -14   16    6     -1.34      0.00
  -12   16    6      0.37      0.00
  -10   16    6      0.26      0.00
   -8   16    6     -0.03      0.00
   -6   16    6     -0.06      0.00
   -4   16    6     -8.36      0.00
   -2   16    6     -9.44      0.00
    0   16    6      2.71      0.00
    2   16    6      2.99      0.00
    4   16    6      3.25      0.00
    6   16    6      5.65      0.00
    8   16    6      1.70      0.00
   10   16    6      0.14      0.00
   12   16    6     -1.58      0.00
   14   16    6     -0.36      0.00
   16   16    6      1.38      0.00
   18   16    6      0.93      0.00
  -25   17    6      0.15      0.00
  -23   17    6     -0.03      0.00
  -21   17    6      0.63      0.00
  -19   17    6      1.12      0.00
  -17   17    6      2.44      0.00
  -15   17    6      1.47      0.00
  -13   17    6      0.69      0.00
  -11   17    6     -3.06      0.00
   -9   17    6     -4.01      0.00
   -7   17    6     -5.07      0.00
   -5   17    6     -1.41      0.00
   -3   17    6      3.99      0.00
   -1   17    6     -1.93      0.00
    1   17    6     -5.64      0.00
    3   17    6     -4.27      0.00
    5   17    6     -6.90      0.00
    7   17    6     -2.76      0.00
    9   17    6      2.97      0.00
   11   17    6      1.11      0.00
   13   17    6      3.79      0.00
   15   17    6     -0.91      0.00
   17   17    6     -2.59      0.00
  -24   18    6     -1.37      0.00
  -22   18    6      0.98      0.00
  -20   18    6     -0.07      0.00
  -18   18    6     -2.48      0.00
  -16   18    6      0.31      0.00
  -14   18    6      0.82      0.00
  -12   18    6      1.81      0.00
  -10   18    6      6.38      0.00
   -8   18    6      6.72      0.00
   -6   18    6      5.21      0.00
   -4   18    6      2.07      0.00
   -2   18    6      1.77      0.00
    0   18    6      5.80      0.00
    2   18    6      4.46      0.00
    4   18    6      6.65      0.00
    6   18    6      4.66      0.00
    8   18    6     -3.28      0.00
   10   18    6     -2.40      0.00
   12   18    6     -2.11      0.00
   14   18    6     -1.37      0.00
   16   18    6      2.23      0.00
  -21   19    6     -2.01      0.00
  -19   19    6      0.53      0.00
  -17   19    6      0.79      0.00
  -15   19    6     -3.84      0.00
  -13   19    6     -1.69      0.00
  -11   19    6     -5.87      0.00
   -9   19    6     -6.69      0.00
   -7   19    6     -5.20      0.00
   -5   19    6     -2.79      0.00
   -3   19    6     -3.47      0.00
   -1   19    6     -4.17      0.00
    1   19    6     -4.23      0.00
    3   19    6     -5.08      0.00
    5   19    6     -4.58      0.00
    7   19    6      1.34      0.00
    9   19    6      3.19      0.00
   11   19    6      0.65      0.00
   13   19    6      0.46      0.00
  -20   20    6      2.59      0.00
  -18   20    6     -1.87      0.00
  -16   20    6      2.93      0.00
  -14   20    6      3.11      0.00
  -12   20    6      4.08      0.00
  -10   20    6      6.25      0.00
   -8   20    6      4.50      0.00
   -6   20    6      1.89      0.00
   -4   20    6      3.10      0.00
   -2   20    6      4.04      0.00
    0   20    6      3.14      0.00
    2   20    6      3.47      0.00
    4   20    6      3.46      0.00
    6   20    6     -0.38      0.00
    8   20    6     -2.56      0.00
   10   20    6      0.56      0.00
   12   20    6      0.52      0.00
  -17   21    6      1.04      0.00
  -15   21    6     -3.18      0.00
  -13   21    6     -2.29      0.00
  -11   21    6     -4.67      0.00
   -9   21    6     -4.60      0.00
   -7   21    6     -2.05      0.00
   -5   21    6     -3.21      0.00
   -3   21    6     -3.54      0.00
   -1   21    6     -3.22      0.00
    1   21    6     -1.46      0.00
    3   21    6     -2.35      0.00
    5   21    6     -0.30      0.00
    7   21    6      2.40      0.00
    9   21    6     -1.34      0.00
  -12   22    6      1.99      0.00
  -10   22    6      4.20      0.00
   -8   22    6      2.26      0.00
   -6   22    6      4.09      0.00
   -4   22    6      4.17      0.00
   -2   22    6      2.71      0.00
    0   22    6      1.34      0.00
    2   22    6      0.55      0.00
    4   22    6      0.66      0.00
    6   22    6     -1.10      0.00
   -9   23    6     -3.21      0.00
   -7   23    6     -1.17      0.00
   -3   23    6     -1.60      0.00
   -1   23    6     -1.84      0.00
  -35    1    7     -3.38      0.00
  -33    1    7     -1.86      0.00
  -31    1    7     -1.29      0.00
  -29    1    7     -2.32      0.00
  -27    1    7     -0.32      0.00
  -25    1    7      1.32      0.00
  -23    1    7      0.91      0.00
  -21    1    7      0.69      0.00
  -19    1    7      4.76      0.00
  -17    1    7     10.20      0.00
  -15    1    7      9.92      0.00
  -13    1    7     10.88      0.00
  -11    1    7     21.48      0.00
   -9    1    7     18.12      0.00
   -7    1    7      3.92      0.00
   -5    1    7      3.22      0.00
   -3    1    7      1.92      0.00
   -1    1    7     -6.96      0.00
    1    1    7     -7.85      0.00
    3    1    7    -13.24      0.00
    5    1    7    -11.46      0.00
    7    1    7    -10.04      0.00
    9    1    7     -5.05      0.00
   11    1    7     -7.95      0.00
   13    1    7     -5.41      0.00
   15    1    7     -3.91      0.00
   17    1    7     -1.56      0.00
   19    1    7      0.64      0.00
   21    1    7     -0.35      0.00
   23    1    7      1.28      0.00
   25    1    7      1.03      0.00
   27    1    7     -1.77      0.00
  -34    2    7      5.00      0.00
  -32    2    7      2.09      0.00
  -30    2    7      4.43      0.00
  -28    2    7      2.02      0.00
  -26    2    7     -1.02      0.00
  -24    2    7     -4.00      0.00
  -22    2    7      0.26      0.00
  -20    2    7     -5.88      0.00
  -18    2    7    -13.47      0.00
  -16    2    7    -19.56      0.00
  -14    2    7    -15.24      0.00
  -12    2    7    -28.14      0.00
  -10    2    7    -38.90      0.00
   -8    2    7    -16.39      0.00
   -6    2    7     -4.03      0.00
   -4    2    7     -4.89      0.00
   -2    2    7      5.70      0.00
    0    2    7     12.51      0.00
    2    2    7     19.36      0.00
    4    2    7     20.52      0.00
    6    2    7     21.84      0.00
    8    2    7     11.23      0.00
   10    2    7     12.67      0.00
   12    2    7     11.68      0.00
   14    2    7      7.62      0.00
   16    2    7      5.82      0.00
   18    2    7     -0.05      0.00
   20    2    7     -0.19      0.00
   22    2    7     -0.89      0.00
   24    2    7     -2.36      0.00
   26    2    7      0.84      0.00
   28    2    7      3.03      0.00
  -35    3    7     -5.29      0.00
  -33    3    7     -2.71      0.00
  -31    3    7     -5.43      0.00
  -29    3    7     -4.61      0.00
  -27    3    7     -0.79      0.00
  -25    3    7      4.39      0.00
  -23    3    7      1.96      0.00
  -21    3    7      3.41      0.00
  -19    3    7     12.84      0.00
  -17    3    7     23.77      0.00
  -15    3    7     18.19      0.00
  -13    3    7     23.97      0.00
  -11    3    7     43.43      0.00
   -9    3    7     33.60      0.00
   -7    3    7      7.74      0.00
   -5    3    7      3.49      0.00
   -3    3    7      0.07      0.00
   -1    3    7    -11.93      0.00
    1    3    7    -18.58      0.00
    3    3    7    -23.90      0.00
    5    3    7    -26.74      0.00
    7    3    7    -21.02      0.00
    9    3    7    -13.20      0.00
   11    3    7    -16.41      0.00
   13    3    7    -10.38      0.00
   15    3    7     -8.22      0.00
   17    3    7     -3.43      0.00
   19    3    7      1.11      0.00
   21    3    7      0.39      0.00
   23    3    7      2.51      0.00
   25    3    7      0.48      0.00
   27    3    7     -2.36      0.00
  -36    4    7      4.15      0.00
  -34    4    7      1.65      0.00
  -32    4    7      4.93      0.00
  -30    4    7      5.81      0.00
  -28    4    7      3.71      0.00
  -26    4    7     -0.93      0.00
  -24    4    7     -3.14      0.00
  -22    4    7     -1.00      0.00
  -20    4    7     -9.94      0.00
  -18    4    7    -21.82      0.00
  -16    4    7    -21.80      0.00
  -14    4    7    -15.70      0.00
  -12    4    7    -33.36      0.00
  -10    4    7    -41.60      0.00
   -8    4    7    -14.55      0.00
   -6    4    7     -2.16      0.00
   -4    4    7     -0.49      0.00
   -2    4    7      3.79      0.00
    0    4    7     15.09      0.00
    2    4    7     20.74      0.00
    4    4    7     24.04      0.00
    6    4    7     25.78      0.00
    8    4    7     13.91      0.00
   10    4    7     15.50      0.00
   12    4    7     13.18      0.00
   14    4    7      7.62      0.00
   16    4    7      5.81      0.00
   18    4    7     -1.54      0.00
   20    4    7      0.13      0.00
   22    4    7     -2.54      0.00
   24    4    7     -0.95      0.00
   26    4    7      1.44      0.00
  -35    5    7     -1.76      0.00
  -33    5    7     -1.22      0.00
  -31    5    7     -6.25      0.00
  -29    5    7     -3.21      0.00
  -27    5    7     -4.01      0.00
  -25    5    7      0.70      0.00
  -23    5    7     -1.67      0.00
  -21    5    7      5.84      0.00
  -19    5    7     15.44      0.00
  -17    5    7     23.38      0.00
  -15    5    7     10.52      0.00
  -13    5    7     17.02      0.00
  -11    5    7     33.00      0.00
   -9    5    7     23.15      0.00
   -7    5    7     -1.18      0.00
   -5    5    7     -2.34      0.00
   -3    5    7     -1.07      0.00
   -1    5    7     -5.12      0.00
    1    5    7    -15.87      0.00
    3    5    7    -15.99      0.00
    5    5    7    -22.24      0.00
    7    5    7    -11.92      0.00
    9    5    7    -11.02      0.00
   11    5    7    -10.83      0.00
   13    5    7     -8.28      0.00
   15    5    7     -4.43      0.00
   17    5    7      1.38      0.00
   19    5    7      2.01      0.00
   21    5    7      0.96      0.00
   23    5    7      2.72      0.00
   25    5    7     -1.58      0.00
   27    5    7     -0.98      0.00
  -34    6    7      0.16      0.00
  -32    6    7      2.74      0.00
  -30    6    7      2.28      0.00
  -28    6    7      3.00      0.00
  -26    6    7      3.17      0.00
  -24    6    7      3.81      0.00
  -22    6    7      0.17      0.00
  -20    6    7     -8.81      0.00
  -18    6    7    -17.56      0.00
  -16    6    7    -10.49      0.00
  -14    6    7     -4.02      0.00
  -12    6    7    -12.27      0.00
  -10    6    7    -22.05      0.00
   -8    6    7     -1.14      0.00
   -6    6    7      9.84      0.00
   -4    6    7      7.67      0.00
   -2    6    7      0.16      0.00
    0    6    7      6.35      0.00
    2    6    7      8.00      0.00
    4    6    7     13.36      0.00
    6    6    7      4.84      0.00
    8    6    7      4.78      0.00
   10    6    7      2.73      0.00
   12    6    7      6.86      0.00
   14    6    7      1.96      0.00
   16    6    7      0.05      0.00
   18    6    7     -6.57      0.00
   20    6    7     -0.57      0.00
   22    6    7     -3.32      0.00
   24    6    7     -0.50      0.00
   26    6    7      2.09      0.00
  -35    7    7     -0.94      0.00
  -33    7    7      0.47      0.00
  -31    7    7     -0.10      0.00
  -29    7    7      0.15      0.00
  -27    7    7     -2.10      0.00
  -25    7    7     -3.32      0.00
  -23    7    7     -5.21      0.00
  -21    7    7      2.86      0.00
  -19    7    7      8.08      0.00
  -17    7    7      8.00      0.00
  -15    7    7     -1.72      0.00
  -13    7    7     -3.62      0.00
  -11    7    7      2.48      0.00
   -9    7    7      5.27      0.00
   -7    7    7    -12.53      0.00
   -5    7    7    -18.50      0.00
   -3    7    7    -10.31      0.00
   -1    7    7      1.66      0.00
    1    7    7     -0.37      0.00
    3    7    7     -3.55      0.00
    5    7    7      1.66      0.00
    7    7    7      6.60      0.00
    9    7    7      2.26      0.00
   11    7    7      2.75      0.00
   13    7    7     -0.89      0.00
   15    7    7      1.36      0.00
   17    7    7      5.93      0.00
   19    7    7      5.04      0.00
   21    7    7      1.92      0.00
   23    7    7      2.52      0.00
   25    7    7     -0.58      0.00
  -34    8    7      0.88      0.00
  -32    8    7     -4.94      0.00
  -30    8    7     -0.15      0.00
  -28    8    7     -2.06      0.00
  -26    8    7      0.88      0.00
  -24    8    7      3.46      0.00
  -22    8    7      3.27      0.00
  -20    8    7     -2.23      0.00
  -18    8    7     -1.38      0.00
  -16    8    7      5.52      0.00
  -14    8    7      8.21      0.00
  -12    8    7     15.41      0.00
  -10    8    7      6.30      0.00
   -8    8    7      7.50      0.00
   -6    8    7     20.35      0.00
   -4    8    7     26.80      0.00
   -2    8    7      3.96      0.00
    0    8    7     -6.07      0.00
    2    8    7     -3.77      0.00
    4    8    7     -4.19      0.00
    6    8    7    -17.10      0.00
    8    8    7     -6.61      0.00
   10    8    7    -10.49      0.00
   12    8    7     -3.53      0.00
   14    8    7     -4.83      0.00
   16    8    7     -3.44      0.00
   18    8    7     -7.59      0.00
   20    8    7     -2.36      0.00
   22    8    7     -1.64      0.00
   24    8    7     -1.51      0.00
  -33    9    7      4.35      0.00
  -31    9    7      4.74      0.00
  -29    9    7     -0.66      0.00
  -27    9    7      3.35      0.00
  -25    9    7     -0.89      0.00
  -23    9    7     -3.05      0.00
  -21    9    7     -2.09      0.00
  -19    9    7     -1.46      0.00
  -17    9    7     -9.11      0.00
  -15    9    7    -10.59      0.00
  -13    9    7    -15.85      0.00
  -11    9    7    -21.85      0.00
   -9    9    7    -10.89      0.00
   -7    9    7    -11.50      0.00
   -5    9    7    -29.40      0.00
   -3    9    7    -20.62      0.00
   -1    9    7      5.52      0.00
    1    9    7      7.16      0.00
    3    9    7      4.33      0.00
    5    9    7     17.47      0.00
    7    9    7     14.48      0.00
    9    9    7     10.41      0.00
   11    9    7      9.67      0.00
   13    9    7      6.88      0.00
   15    9    7      4.76      0.00
   17    9    7      6.23      0.00
   19    9    7      3.49      0.00
   21    9    7      0.67      0.00
   23    9    7      0.28      0.00
   25    9    7      1.89      0.00
  -32   10    7     -7.84      0.00
  -30   10    7      1.62      0.00
  -28   10    7     -1.97      0.00
  -26   10    7     -0.42      0.00
  -24   10    7      0.95      0.00
  -22   10    7      3.49      0.00
  -20   10    7      0.88      0.00
  -18   10    7      7.90      0.00
  -16   10    7     12.63      0.00
  -14   10    7     11.05      0.00
  -12   10    7     20.61      0.00
  -10   10    7     20.07      0.00
   -8   10    7      8.27      0.00
   -6   10    7     15.56      0.00
   -4   10    7     28.97      0.00
   -2   10    7      5.22      0.00
    0   10    7     -7.30      0.00
    2   10    7     -2.61      0.00
    4   10    7    -10.74      0.00
    6   10    7    -16.72      0.00
    8   10    7    -11.58      0.00
   10   10    7     -9.79      0.00
   12   10    7     -9.12      0.00
   14   10    7     -5.24      0.00
   16   10    7     -5.21      0.00
   18   10    7     -3.90      0.00
   20   10    7     -0.51      0.00
   22   10    7      0.22      0.00
   24   10    7     -1.54      0.00
  -33   11    7      3.09      0.00
  -31   11    7      2.93      0.00
  -29   11    7     -2.77      0.00
  -27   11    7      1.83      0.00
  -25   11    7     -2.73      0.00
  -23   11    7     -2.33      0.00
  -21   11    7     -1.58      0.00
  -19   11    7     -1.81      0.00
  -17   11    7    -10.83      0.00
  -15   11    7     -8.67      0.00
  -13   11    7    -10.76      0.00
  -11   11    7    -18.20      0.00
   -9   11    7    -12.50      0.00
   -7   11    7     -4.56      0.00
   -5   11    7    -19.44      0.00
   -3   11    7    -17.16      0.00
   -1   11    7      2.55      0.00
    1   11    7      1.29      0.00
    3   11    7      2.78      0.00
    5   11    7     10.79      0.00
    7   11    7     12.10      0.00
    9   11    7      8.81      0.00
   11   11    7      8.23      0.00
   13   11    7      5.84      0.00
   15   11    7      2.27      0.00
   17   11    7      4.21      0.00
   19   11    7      0.68      0.00
   21   11    7      2.05      0.00
   23   11    7      0.93      0.00
  -32   12    7     -1.49      0.00
  -30   12    7      1.71      0.00
  -28   12    7     -0.40      0.00
  -26   12    7      1.70      0.00
  -24   12    7      3.97      0.00
  -22   12    7      2.76      0.00
  -20   12    7     -1.02      0.00
  -18   12    7      3.74      0.00
  -16   12    7      7.51      0.00
  -14   12    7      3.54      0.00
  -12   12    7      8.23      0.00
  -10   12    7     11.42      0.00
   -8   12    7      3.59      0.00
   -6   12    7      5.75      0.00
   -4   12    7     17.27      0.00
   -2   12    7      6.88      0.00
    0   12    7     -1.13      0.00
    2   12    7      3.07      0.00
    4   12    7     -2.86      0.00
    6   12    7     -6.34      0.00
    8   12    7     -8.89      0.00
   10   12    7     -4.85      0.00
   12   12    7     -5.67      0.00
   14   12    7     -0.30      0.00
   16   12    7     -1.66      0.00
   18   12    7     -1.68      0.00
   20   12    7     -3.02      0.00
   22   12    7     -4.61      0.00
  -31   13    7     -1.02      0.00
  -29   13    7     -0.16      0.00
  -27   13    7      0.11      0.00
  -25   13    7     -2.89      0.00
  -23   13    7     -4.56      0.00
  -21   13    7     -1.34      0.00
  -19   13    7      2.05      0.00
  -17   13    7     -3.95      0.00
  -15   13    7     -1.13      0.00
  -13   13    7     -0.33      0.00
  -11   13    7     -3.02      0.00
   -9   13    7     -3.85      0.00
   -7   13    7      1.49      0.00
   -5   13    7     -8.34      0.00
   -3   13    7    -11.47      0.00
   -1   13    7     -1.85      0.00
    1   13    7     -4.26      0.00
    3   13    7     -3.94      0.00
    5   13    7     -0.94      0.00
    7   13    7      4.17      0.00
    9   13    7      2.78      0.00
   11   13    7      2.10      0.00
   13   13    7     -0.54      0.00
   15   13    7      0.04      0.00
   17   13    7      1.27      0.00
   19   13    7      2.21      0.00
   21   13    7      6.92      0.00
  -28   14    7     -0.36      0.00
  -26   14    7      0.90      0.00
  -24   14    7      2.44      0.00
  -22   14    7      4.22      0.00
  -20   14    7     -0.16      0.00
  -18   14    7     -2.71      0.00
  -16   14    7      1.68      0.00
  -14   14    7     -3.40      0.00
  -12   14    7     -3.13      0.00
  -10   14    7     -2.35      0.00
   -8   14    7     -2.98      0.00
   -6   14    7     -1.37      0.00
   -4   14    7      7.64      0.00
   -2   14    7      5.08      0.00
    0   14    7      4.02      0.00
    2   14    7      7.58      0.00
    4   14    7      5.69      0.00
    6   14    7      2.70      0.00
    8   14    7      1.11      0.00
   10   14    7      0.75      0.00
   12   14    7      4.50      0.00
   14   14    7      0.45      0.00
   16   14    7     -1.42      0.00
   18   14    7     -1.76      0.00
   20   14    7     -3.33      0.00
  -27   15    7     -2.64      0.00
  -25   15    7      0.77      0.00
  -23   15    7     -2.64      0.00
  -21   15    7     -3.18      0.00
  -19   15    7      3.24      0.00
  -17   15    7      2.61      0.00
  -15   15    7      2.13      0.00
  -13   15    7      4.32      0.00
  -11   15    7      8.16      0.00
   -9   15    7      5.70      0.00
   -7   15    7      6.47      0.00
   -5   15    7     -0.05      0.00
   -3   15    7     -3.79      0.00
   -1   15    7     -4.78      0.00
    1   15    7     -8.44      0.00
    3   15    7     -7.57      0.00
    5   15    7     -6.79      0.00
    7   15    7     -5.31      0.00
    9   15    7     -3.92      0.00
   11   15    7     -5.54      0.00
   13   15    7     -5.89      0.00
   15   15    7      2.40      0.00
   17   15    7      2.19      0.00
  -26   16    7      2.86      0.00
  -24   16    7     -1.31      0.00
  -22   16    7      2.16      0.00
  -20   16    7      0.52      0.00
  -18   16    7     -6.40      0.00
  -16   16    7     -2.42      0.00
  -14   16    7     -3.00      0.00
  -12   16    7     -5.72      0.00
  -10   16    7     -9.69      0.00
   -8   16    7     -6.55      0.00
   -6   16    7     -5.61      0.00
   -4   16    7     -0.78      0.00
   -2   16    7      3.98      0.00
    0   16    7      8.43      0.00
    2   16    7      7.48      0.00
    4   16    7      7.79      0.00
    6   16    7      6.79      0.00
    8   16    7      6.37      0.00
   10   16    7      4.33      0.00
   12   16    7      7.86      0.00
   14   16    7      2.16      0.00
   16   16    7     -2.52      0.00
  -25   17    7     -0.76      0.00
  -23   17    7      0.28      0.00
  -21   17    7     -0.18      0.00
  -19   17    7      3.53      0.00
  -17   17    7      6.14      0.00
  -15   17    7      1.25      0.00
  -13   17    7      1.65      0.00
  -11   17    7      6.01      0.00
   -9   17    7      5.89      0.00
   -7   17    7      4.82      0.00
   -5   17    7      4.77      0.00
   -3   17    7     -0.02      0.00
   -1   17    7     -7.26      0.00
    1   17    7     -6.11      0.00
    3   17    7     -6.81      0.00
    5   17    7     -7.52      0.00
    7   17    7     -4.76      0.00
    9   17    7     -4.41      0.00
   11   17    7     -3.84      0.00
   13   17    7     -5.23      0.00
   15   17    7     -0.78      0.00
   17   17    7      0.37      0.00
  -24   18    7      0.46      0.00
  -22   18    7     -0.64      0.00
  -20   18    7     -1.76      0.00
  -18   18    7     -5.43      0.00
  -16   18    7     -1.79      0.00
  -14   18    7      0.16      0.00
  -12   18    7      0.33      0.00
  -10   18    7     -2.62      0.00
   -8   18    7     -0.87      0.00
   -6   18    7     -4.39      0.00
   -4   18    7     -4.00      0.00
   -2   18    7      2.98      0.00
    0   18    7      4.51      0.00
    2   18    7      3.55      0.00
    4   18    7      8.12      0.00
    6   18    7      3.35      0.00
    8   18    7      1.62      0.00
   10   18    7      1.98      0.00
   12   18    7      1.42      0.00
   14   18    7      3.43      0.00
   16   18    7      0.99      0.00
  -21   19    7      1.25      0.00
  -19   19    7      2.39      0.00
  -17   19    7      2.02      0.00
  -15   19    7     -1.60      0.00
  -13   19    7     -1.50      0.00
  -11   19    7     -2.04      0.00
   -9   19    7     -1.38      0.00
   -7   19    7      0.99      0.00
   -5   19    7      4.67      0.00
   -3   19    7      1.84      0.00
   -1   19    7     -2.33      0.00
    1   19    7      0.06      0.00
    3   19    7     -5.70      0.00
    5   19    7     -4.49      0.00
    7   19    7      1.63      0.00
    9   19    7     -0.03      0.00
   11   19    7      0.80      0.00
   13   19    7     -0.59      0.00
  -20   20    7     -0.50      0.00
  -18   20    7     -0.73      0.00
  -16   20    7      2.86      0.00
  -14   20    7      0.73      0.00
  -12   20    7      3.22      0.00
  -10   20    7      1.04      0.00
   -8   20    7      1.29      0.00
   -6   20    7     -4.32      0.00
   -4   20    7     -2.24      0.00
   -2   20    7     -0.63      0.00
    0   20    7     -1.00      0.00
    2   20    7      0.84      0.00
    4   20    7      4.55      0.00
    6   20    7     -1.68      0.00
    8   20    7     -2.48      0.00
   10   20    7     -1.42      0.00
  -17   21    7     -2.98      0.00
  -15   21    7     -1.59      0.00
  -13   21    7     -1.00      0.00
  -11   21    7     -0.79      0.00
   -9   21    7      0.03      0.00
   -7   21    7      3.27      0.00
   -5   21    7      2.40      0.00
   -3   21    7      0.22      0.00
   -1   21    7      1.23      0.00
    1   21    7      1.55      0.00
    3   21    7     -2.43      0.00
    5   21    7      0.45      0.00
    7   21    7      2.89      0.00
    9   21    7      1.63      0.00
  -12   22    7      1.40      0.00
  -10   22    7     -2.20      0.00
   -8   22    7     -1.06      0.00
   -6   22    7     -3.78      0.00
   -4   22    7      0.87      0.00
   -2   22    7     -0.29      0.00
    0   22    7     -2.39      0.00
    2   22    7      1.41      0.00
    4   22    7      0.74      0.00
   -3   23    7     -0.92      0.00
  -36    0    8    -14.63      0.00
  -34    0    8     -1.69      0.00
  -32    0    8      0.83      0.00
  -30    0    8      0.81      0.00
  -28    0    8      1.45      0.00
  -26    0    8      3.65      0.00
  -24    0    8      5.40      0.00
  -22    0    8     11.83      0.00
  -20    0    8     23.74      0.00
  -18    0    8     21.12      0.00
  -16    0    8      5.95      0.00
  -14    0    8      5.28      0.00
  -12    0    8     23.52      0.00
  -10    0    8      1.54      0.00
   -8    0    8    -20.38      0.00
   -6    0    8    -20.50      0.00
   -4    0    8    -44.65      0.00
   -2    0    8    -47.99      0.00
    0    0    8    -44.35      0.00
    2    0    8    -44.55      0.00
    4    0    8    -32.65      0.00
    6    0    8    -13.70      0.00
    8    0    8      1.05      0.00
   10    0    8     -1.90      0.00
   12    0    8      9.70      0.00
   14    0    8      8.46      0.00
   16    0    8      3.71      0.00
   18    0    8      5.70      0.00
   20    0    8      4.09      0.00
   22    0    8      8.58      0.00
   24    0    8      2.37      0.00
   26    0    8     -1.54      0.00
  -35    1    8      9.50      0.00
  -33    1    8     -2.69      0.00
  -31    1    8      0.59      0.00
  -29    1    8     -2.99      0.00
  -27    1    8     -1.36      0.00
  -25    1    8     -5.26      0.00
  -23    1    8     -4.62      0.00
  -21    1    8    -17.84      0.00
  -19    1    8    -21.66      0.00
  -17    1    8    -12.03      0.00
  -15    1    8     -0.16      0.00
  -13    1    8    -13.78      0.00
  -11    1    8    -16.97      0.00
   -9    1    8     14.48      0.00
   -7    1    8     16.85      0.00
   -5    1    8     30.43      0.00
   -3    1    8     46.61      0.00
   -1    1    8     40.24      0.00
    1    1    8     43.07      0.00
    3    1    8     34.56      0.00
    5    1    8     22.99      0.00
    7    1    8      1.51      0.00
    9    1    8      1.14      0.00
   11    1    8     -2.69      0.00
   13    1    8    -10.81      0.00
   15    1    8     -3.07      0.00
   17    1    8     -5.66      0.00
   19    1    8     -3.29      0.00
   21    1    8     -6.93      0.00
   23    1    8     -5.44      0.00
   25    1    8     -0.24      0.00
  -36    2    8     -7.98      0.00
  -34    2    8     -0.38      0.00
  -32    2    8      0.67      0.00
  -30    2    8      2.46      0.00
  -28    2    8      2.23      0.00
  -26    2    8      2.87      0.00
  -24    2    8      1.28      0.00
  -22    2    8      6.72      0.00
  -20    2    8     16.48      0.00
  -18    2    8     12.24      0.00
  -16    2    8     -0.80      0.00
  -14    2    8      0.76      0.00
  -12    2    8     15.32      0.00
  -10    2    8     -0.08      0.00
   -8    2    8    -14.85      0.00
   -6    2    8    -17.16      0.00
   -4    2    8    -33.27      0.00
   -2    2    8    -32.65      0.00
    0    2    8    -31.83      0.00
    2    2    8    -29.26      0.00
    4    2    8    -21.59      0.00
    6    2    8     -5.96      0.00
    8    2    8      1.22      0.00
   10    2    8     -0.80      0.00
   12    2    8      5.07      0.00
   14    2    8      4.72      0.00
   16    2    8      1.97      0.00
   18    2    8      3.93      0.00
   20    2    8      3.16      0.00
   22    2    8      5.92      0.00
   24    2    8      1.77      0.00
   26    2    8      1.03      0.00
  -35    3    8      2.55      0.00
  -33    3    8     -1.31      0.00
  -31    3    8     -1.00      0.00
  -29    3    8     -2.52      0.00
  -27    3    8     -0.73      0.00
  -25    3    8      0.54      0.00
  -23    3    8      0.99      0.00
  -21    3    8     -6.45      0.00
  -19    3    8     -9.25      0.00
  -17    3    8      2.27      0.00
  -15    3    8      6.70      0.00
  -13    3    8     -1.48      0.00
  -11    3    8     -8.08      0.00
   -9    3    8      7.74      0.00
   -7    3    8      9.06      0.00
   -5    3    8     16.66      0.00
   -3    3    8     18.71      0.00
   -1    3    8     16.65      0.00
    1    3    8     17.64      0.00
    3    3    8     13.06      0.00
    5    3    8      3.27      0.00
    7    3    8     -2.09      0.00
    9    3    8     -1.16      0.00
   11    3    8      2.31      0.00
   13    3    8     -2.49      0.00
   15    3    8      0.59      0.00
   17    3    8     -2.42      0.00
   19    3    8      0.12      0.00
   21    3    8     -3.19      0.00
   23    3    8     -1.46      0.00
   25    3    8     -1.43      0.00
  -36    4    8     -1.47      0.00
  -34    4    8     -0.16      0.00
  -32    4    8      1.14      0.00
  -30    4    8      0.79      0.00
  -28    4    8     -0.77      0.00
  -26    4    8     -2.57      0.00
  -24    4    8     -4.59      0.00
  -22    4    8     -1.92      0.00
  -20    4    8      2.07      0.00
  -18    4    8     -3.52      0.00
  -16    4    8     -9.72      0.00
  -14    4    8    -10.98      0.00
  -12    4    8      1.13      0.00
  -10    4    8      2.03      0.00
   -8    4    8     -3.36      0.00
   -6    4    8     -4.74      0.00
   -4    4    8     -3.95      0.00
   -2    4    8      1.28      0.00
    0    4    8     -2.16      0.00
    2    4    8     -2.13      0.00
    4    4    8      4.99      0.00
    6    4    8      8.09      0.00
    8    4    8      2.48      0.00
   10    4    8     -1.28      0.00
   12    4    8     -5.75      0.00
   14    4    8     -1.75      0.00
   16    4    8     -0.87      0.00
   18    4    8     -1.15      0.00
   20    4    8     -1.91      0.00
   22    4    8      0.07      0.00
   24    4    8     -1.08      0.00
   26    4    8      1.79      0.00
  -35    5    8      2.59      0.00
  -33    5    8     -2.43      0.00
  -31    5    8      1.12      0.00
  -29    5    8      0.87      0.00
  -27    5    8      4.37      0.00
  -25    5    8      6.01      0.00
  -23    5    8      6.47      0.00
  -21    5    8      5.86      0.00
  -19    5    8      6.68      0.00
  -17    5    8     11.93      0.00
  -15    5    8     12.73      0.00
  -13    5    8     15.29      0.00
  -11    5    8     -2.73      0.00
   -9    5    8     -4.34      0.00
   -7    5    8     -2.03      0.00
   -5    5    8     -3.22      0.00
   -3    5    8    -14.95      0.00
   -1    5    8    -16.12      0.00
    1    5    8     -8.92      0.00
    3    5    8    -12.17      0.00
    5    5    8    -19.04      0.00
    7    5    8     -5.32      0.00
    9    5    8     -3.89      0.00
   11    5    8      7.99      0.00
   13    5    8      6.19      0.00
   15    5    8      4.04      0.00
   17    5    8      0.93      0.00
   19    5    8      4.51      0.00
   21    5    8      3.13      0.00
   23    5    8      2.99      0.00
   25    5    8      1.83      0.00
  -34    6    8     -0.18      0.00
  -32    6    8      1.61      0.00
  -30    6    8     -3.76      0.00
  -28    6    8     -1.69      0.00
  -26    6    8     -6.82      0.00
  -24    6    8     -7.41      0.00
  -22    6    8    -10.58      0.00
  -20    6    8    -11.09      0.00
  -18    6    8    -15.58      0.00
  -16    6    8    -10.23      0.00
  -14    6    8    -20.29      0.00
  -12    6    8    -12.38      0.00
  -10    6    8      6.80      0.00
   -8    6    8     10.54      0.00
   -6    6    8      3.40      0.00
   -4    6    8     16.08      0.00
   -2    6    8     28.10      0.00
    0    6    8     21.07      0.00
    2    6    8     14.28      0.00
    4    6    8     25.86      0.00
    6    6    8     13.54      0.00
    8    6    8      5.32      0.00
   10    6    8     -0.25      0.00
   12    6    8     -8.85      0.00
   14    6    8     -6.31      0.00
   16    6    8     -3.21      0.00
   18    6    8     -2.27      0.00
   20    6    8     -5.53      0.00
   22    6    8     -4.48      0.00
   24    6    8     -3.50      0.00
   26    6    8     -2.39      0.00
  -35    7    8      2.36      0.00
  -33    7    8     -3.65      0.00
  -31    7    8      5.21      0.00
  -29    7    8      0.96      0.00
  -27    7    8      4.23      0.00
  -25    7    8      5.93      0.00
  -23    7    8     10.82      0.00
  -21    7    8     12.80      0.00
  -19    7    8     17.05      0.00
  -17    7    8     13.29      0.00
  -15    7    8     11.30      0.00
  -13    7    8     22.74      0.00
  -11    7    8      5.59      0.00
   -9    7    8    -14.13      0.00
   -7    7    8     -9.24      0.00
   -5    7    8     -6.60      0.00
   -3    7    8    -25.43      0.00
   -1    7    8    -27.84      0.00
    1    7    8    -13.82      0.00
    3    7    8    -21.90      0.00
    5    7    8    -20.09      0.00
    7    7    8     -6.71      0.00
    9    7    8     -4.17      0.00
   11    7    8      2.37      0.00
   13    7    8      7.10      0.00
   15    7    8      4.93      0.00
   17    7    8      2.04      0.00
   19    7    8      3.21      0.00
   21    7    8      6.04      0.00
   23    7    8      2.96      0.00
   25    7    8      2.86      0.00
  -34    8    8      0.56      0.00
  -32    8    8     -0.53      0.00
  -30    8    8     -6.01      0.00
  -28    8    8      0.09      0.00
  -26    8    8     -5.01      0.00
  -24    8    8     -5.53      0.00
  -22    8    8    -11.79      0.00
  -20    8    8    -12.16      0.00
  -18    8    8    -16.54      0.00
  -16    8    8     -6.02      0.00
  -14    8    8    -15.09      0.00
  -12    8    8    -16.72      0.00
  -10    8    8      2.00      0.00
   -8    8    8     16.20      0.00
   -6    8    8      2.96      0.00
   -4    8    8     11.44      0.00
   -2    8    8     21.85      0.00
    0    8    8     12.53      0.00
    2    8    8      9.53      0.00
    4    8    8     17.43      0.00
    6    8    8      7.48      0.00
    8    8    8      3.92      0.00
   10    8    8      2.38      0.00
   12    8    8     -2.48      0.00
   14    8    8     -5.04      0.00
   16    8    8     -3.19      0.00
   18    8    8     -1.14      0.00
   20    8    8     -4.41      0.00
   22    8    8     -3.41      0.00
   24    8    8     -0.04      0.00
  -33    9    8     -0.78      0.00
  -31    9    8      4.46      0.00
  -29    9    8      1.97      0.00
  -27    9    8      2.43      0.00
  -25    9    8      2.33      0.00
  -23    9    8      5.39      0.00
  -21    9    8      6.94      0.00
  -19    9    8     10.13      0.00
  -17    9    8      7.78      0.00
  -15    9    8      4.41      0.00
  -13    9    8     12.38      0.00
  -11    9    8     10.48      0.00
   -9    9    8     -8.36      0.00
   -7    9    8     -7.59      0.00
   -5    9    8     -1.42      0.00
   -3    9    8     -6.63      0.00
   -1    9    8     -7.66      0.00
    1    9    8      2.34      0.00
    3    9    8     -6.68      0.00
    5    9    8     -2.10      0.00
    7    9    8     -4.25      0.00
    9    9    8      0.74      0.00
   11    9    8     -3.07      0.00
   13    9    8      4.79      0.00
   15    9    8      2.34      0.00
   17    9    8      1.86      0.00
   19    9    8      0.62      0.00
   21    9    8      2.91      0.00
   23    9    8     -0.96      0.00
  -34   10    8     -1.12      0.00
  -32   10    8      0.52      0.00
  -30   10    8     -2.02      0.00
  -28   10    8     -1.27      0.00
  -26   10    8     -1.49      0.00
  -24   10    8      0.36      0.00
  -22   10    8     -2.48      0.00
  -20   10    8     -1.52      0.00
  -18   10    8     -5.20      0.00
  -16   10    8     -0.92      0.00
  -14   10    8     -4.03      0.00
  -12   10    8     -7.96      0.00
  -10   10    8     -5.68      0.00
   -8   10    8      6.30      0.00
   -6   10    8      0.03      0.00
   -4   10    8     -3.00      0.00
   -2   10    8     -3.24      0.00
    0   10    8     -6.65      0.00
    2   10    8     -6.28      0.00
    4   10    8     -5.28      0.00
    6   10    8     -1.02      0.00
    8   10    8     -1.63      0.00
   10   10    8      0.34      0.00
   12   10    8     -2.22      0.00
   14   10    8     -2.95      0.00
   16   10    8     -1.96      0.00
   18   10    8      1.85      0.00
   20   10    8      0.17      0.00
   22   10    8      0.91      0.00
  -33   11    8      0.28      0.00
  -31   11    8     -3.80      0.00
  -29   11    8      0.66      0.00
  -27   11    8     -0.51      0.00
  -25   11    8     -1.40      0.00
  -23   11    8     -1.83      0.00
  -21   11    8     -0.22      0.00
  -19   11    8     -2.32      0.00
  -17   11    8      0.93      0.00
  -15   11    8     -0.88      0.00
  -13   11    8      2.18      0.00
  -11   11    8      7.41      0.00
   -9   11    8      2.94      0.00
   -7   11    8      0.63      0.00
   -5   11    8      3.12      0.00
   -3   11    8     10.74      0.00
   -1   11    8      8.87      0.00
    1   11    8     12.39      0.00
    3   11    8     10.39      0.00
    5   11    8     10.08      0.00
    7   11    8      2.26      0.00
    9   11    8      4.53      0.00
   11   11    8      2.15      0.00
   13   11    8      3.15      0.00
   15   11    8      1.43      0.00
   17   11    8     -2.00      0.00
   19   11    8     -4.00      0.00
   21   11    8     -2.08      0.00
   23   11    8     -1.83      0.00
  -32   12    8      4.15      0.00
  -30   12    8      4.20      0.00
  -28   12    8      0.02      0.00
  -26   12    8      4.29      0.00
  -24   12    8      2.38      0.00
  -22   12    8      0.22      0.00
  -20   12    8      3.04      0.00
  -18   12    8      2.29      0.00
  -16   12    8      1.03      0.00
  -14   12    8      0.35      0.00
  -12   12    8     -1.99      0.00
  -10   12    8     -8.29      0.00
   -8   12    8     -3.62      0.00
   -6   12    8     -3.33      0.00
   -4   12    8     -6.62      0.00
   -2   12    8    -13.09      0.00
    0   12    8    -11.31      0.00
    2   12    8    -12.22      0.00
    4   12    8    -13.59      0.00
    6   12    8     -8.09      0.00
    8   12    8     -6.38      0.00
   10   12    8     -5.66      0.00
   12   12    8     -4.33      0.00
   14   12    8      1.56      0.00
   16   12    8      0.68      0.00
   18   12    8      6.09      0.00
   20   12    8      2.92      0.00
  -31   13    8     -5.96      0.00
  -29   13    8      0.07      0.00
  -27   13    8     -3.88      0.00
  -25   13    8     -5.05      0.00
  -23   13    8     -0.91      0.00
  -21   13    8      1.34      0.00
  -19   13    8     -4.66      0.00
  -17   13    8      0.51      0.00
  -15   13    8     -0.95      0.00
  -13   13    8      0.11      0.00
  -11   13    8      4.61      0.00
   -9   13    8      7.74      0.00
   -7   13    8      4.45      0.00
   -5   13    8      1.61      0.00
   -3   13    8     10.28      0.00
   -1   13    8     12.63      0.00
    1   13    8      9.65      0.00
    3   13    8     11.21      0.00
    5   13    8     11.68      0.00
    7   13    8      9.04      0.00
    9   13    8      7.94      0.00
   11   13    8      8.35      0.00
   13   13    8     -1.84      0.00
   15   13    8     -3.57      0.00
   17   13    8     -4.43      0.00
   19   13    8     -3.58      0.00
   21   13    8     -2.17      0.00
  -30   14    8      1.24      0.00
  -28   14    8     -1.65      0.00
  -26   14    8      6.55      0.00
  -24   14    8      3.81      0.00
  -22   14    8     -1.37      0.00
  -20   14    8      0.67      0.00
  -18   14    8      1.70      0.00
  -16   14    8     -2.43      0.00
  -14   14    8     -0.28      0.00
  -12   14    8     -1.11      0.00
  -10   14    8     -6.93      0.00
   -8   14    8     -5.92      0.00
   -6   14    8     -1.16      0.00
   -4   14    8     -2.07      0.00
   -2   14    8    -13.75      0.00
    0   14    8     -7.98      0.00
    2   14    8     -6.14      0.00
    4   14    8     -8.85      0.00
    6   14    8     -9.46      0.00
    8   14    8     -9.00      0.00
   10   14    8     -9.69      0.00
   12   14    8     -4.69      0.00
   14   14    8      5.72      0.00
   16   14    8      3.90      0.00
   18   14    8      3.55      0.00
  -29   15    8      3.82      0.00
  -27   15    8     -0.67      0.00
  -25   15    8     -6.16      0.00
  -23   15    8     -3.15      0.00
  -21   15    8      1.29      0.00
  -19   15    8     -1.67      0.00
  -17   15    8      3.04      0.00
  -15   15    8      3.09      0.00
  -13   15    8      1.62      0.00
  -11   15    8      3.60      0.00
   -9   15    8      6.07      0.00
   -7   15    8      1.54      0.00
   -5   15    8     -2.97      0.00
   -3   15    8      7.64      0.00
   -1   15    8      9.44      0.00
    1   15    8      1.25      0.00
    3   15    8      3.94      0.00
    5   15    8      4.66      0.00
    7   15    8      6.24      0.00
    9   15    8      8.63      0.00
   11   15    8      7.43      0.00
   13   15    8      1.47      0.00
   15   15    8     -4.97      0.00
   17   15    8     -2.29      0.00
  -28   16    8     -3.39      0.00
  -26   16    8      2.24      0.00
  -24   16    8      5.88      0.00
  -22   16    8      2.77      0.00
  -20   16    8     -0.27      0.00
  -18   16    8     -1.21      0.00
  -16   16    8     -5.56      0.00
  -14   16    8     -2.80      0.00
  -12   16    8     -4.47      0.00
  -10   16    8     -3.88      0.00
   -8   16    8     -1.68      0.00
   -6   16    8      4.91      0.00
   -4   16    8      1.69      0.00
   -2   16    8     -7.46      0.00
    0   16    8      1.10      0.00
    2   16    8      0.05      0.00
    4   16    8      0.25      0.00
    6   16    8      1.44      0.00
    8   16    8     -4.69      0.00
   10   16    8     -5.38      0.00
   12   16    8     -5.88      0.00
   14   16    8     -0.70      0.00
   16   16    8      2.10      0.00
  -25   17    8     -2.82      0.00
  -23   17    8     -5.22      0.00
  -21   17    8     -1.84      0.00
  -19   17    8      1.85      0.00
  -17   17    8      4.84      0.00
  -15   17    8      3.72      0.00
  -13   17    8      4.71      0.00
  -11   17    8      4.73      0.00
   -9   17    8      0.61      0.00
   -7   17    8     -4.67      0.00
   -5   17    8     -7.40      0.00
   -3   17    8     -0.33      0.00
   -1   17    8     -1.88      0.00
    1   17    8     -4.21      0.00
    3   17    8     -1.47      0.00
    5   17    8     -7.62      0.00
    7   17    8     -3.72      0.00
    9   17    8      3.31      0.00
   11   17    8      2.67      0.00
   13   17    8      5.85      0.00
   15   17    8     -0.24      0.00
  -24   18    8      2.65      0.00
  -22   18    8      3.02      0.00
  -20   18    8     -0.80      0.00
  -18   18    8     -5.37      0.00
  -16   18    8     -3.88      0.00
  -14   18    8     -2.24      0.00
  -12   18    8     -5.56      0.00
  -10   18    8     -0.49      0.00
   -8   18    8      3.52      0.00
   -6   18    8      6.82      0.00
   -4   18    8      6.34      0.00
   -2   18    8      4.14      0.00
    0   18    8      7.17      0.00
    2   18    8      3.00      0.00
    4   18    8      7.92      0.00
    6   18    8     10.73      0.00
    8   18    8      1.21      0.00
   10   18    8     -0.79      0.00
   12   18    8     -3.44      0.00
   14   18    8     -2.26      0.00
  -21   19    8     -0.21      0.00
  -19   19    8      5.09      0.00
  -17   19    8      5.61      0.00
  -15   19    8      0.42      0.00
  -13   19    8      3.18      0.00
  -11   19    8      0.83      0.00
   -9   19    8     -2.76      0.00
   -7   19    8     -3.43      0.00
   -5   19    8     -4.49      0.00
   -3   19    8     -5.75      0.00
   -1   19    8     -7.26      0.00
    1   19    8     -5.71      0.00
    3   19    8     -6.18      0.00
    5   19    8    -11.87      0.00
    7   19    8     -6.12      0.00
    9   19    8     -0.27      0.00
   11   19    8      0.88      0.00
   13   19    8      1.45      0.00
  -20   20    8     -2.87      0.00
  -18   20    8     -7.32      0.00
  -16   20    8     -1.41      0.00
  -14   20    8     -0.81      0.00
  -12   20    8     -0.70      0.00
  -10   20    8      2.86      0.00
   -8   20    8      1.32      0.00
   -6   20    8      0.12      0.00
   -4   20    8      2.72      0.00
   -2   20    8      5.34      0.00
    0   20    8      5.73      0.00
    2   20    8      4.86      0.00
    4   20    8      9.29      0.00
    6   20    8      8.28      0.00
    8   20    8      1.21      0.00
   10   20    8      0.65      0.00
  -17   21    8      4.13      0.00
  -15   21    8     -0.23      0.00
  -13   21    8      1.23      0.00
  -11   21    8     -2.30      0.00
   -9   21    8     -1.49      0.00
   -7   21    8      1.88      0.00
   -5   21    8     -0.16      0.00
   -3   21    8     -1.41      0.00
   -1   21    8     -3.91      0.00
    1   21    8     -1.95      0.00
    3   21    8     -5.18      0.00
    5   21    8     -7.69      0.00
    7   21    8     -2.04      0.00
  -12   22    8      0.26      0.00
  -10   22    8      2.04      0.00
   -8   22    8     -1.67      0.00
   -6   22    8      0.08      0.00
   -4   22    8      0.36      0.00
   -2   22    8      0.48      0.00
    0   22    8      0.41      0.00
    2   22    8     -0.02      0.00
   -3   23    8      1.72      0.00
  -35    1    9     -2.32      0.00
  -33    1    9     -1.75      0.00
  -31    1    9     -1.86      0.00
  -29    1    9     -1.65      0.00
  -27    1    9     -4.33      0.00
  -25    1    9     -4.65      0.00
  -23    1    9     -4.02      0.00
  -21    1    9     -5.03      0.00
  -19    1    9     -3.45      0.00
  -17    1    9      2.17      0.00
  -15    1    9      2.58      0.00
  -13    1    9      4.00      0.00
  -11    1    9     13.80      0.00
   -9    1    9     20.62      0.00
   -7    1    9     16.21      0.00
   -5    1    9     17.22      0.00
   -3    1    9     12.03      0.00
   -1    1    9      5.68      0.00
    1    1    9      2.63      0.00
    3    1    9     -1.77      0.00
    5    1    9     -6.05      0.00
    7    1    9     -6.30      0.00
    9    1    9     -4.18      0.00
   11    1    9     -7.05      0.00
   13    1    9     -4.09      0.00
   15    1    9     -3.88      0.00
   17    1    9     -2.65      0.00
   19    1    9      0.01      0.00
   21    1    9     -0.09      0.00
   23    1    9      2.19      0.00
   25    1    9      2.42      0.00
  -36    2    9     -1.21      0.00
  -34    2    9      4.57      0.00
  -32    2    9      3.08      0.00
  -30    2    9      4.09      0.00
  -28    2    9      4.79      0.00
  -26    2    9      8.04      0.00
  -24    2    9      5.01      0.00
  -22    2    9      8.48      0.00
  -20    2    9      7.30      0.00
  -18    2    9      0.94      0.00
  -16    2    9     -6.22      0.00
  -14    2    9     -2.37      0.00
  -12    2    9    -14.77      0.00
  -10    2    9    -32.45      0.00
   -8    2    9    -33.34      0.00
   -6    2    9    -29.62      0.00
   -4    2    9    -28.36      0.00
   -2    2    9    -14.14      0.00
    0    2    9     -7.27      0.00
    2    2    9     -0.67      0.00
    4    2    9      6.27      0.00
    6    2    9     13.74      0.00
    8    2    9      7.61      0.00
   10    2    9     11.00      0.00
   12    2    9      9.38      0.00
   14    2    9      5.76      0.00
   16    2    9      7.05      0.00
   18    2    9      2.21      0.00
   20    2    9      0.22      0.00
   22    2    9     -1.32      0.00
   24    2    9     -4.23      0.00
  -37    3    9      3.58      0.00
  -35    3    9     -3.94      0.00
  -33    3    9     -2.95      0.00
  -31    3    9     -6.62      0.00
  -29    3    9     -4.60      0.00
  -27    3    9     -8.27      0.00
  -25    3    9     -5.13      0.00
  -23    3    9     -7.01      0.00
  -21    3    9    -10.52      0.00
  -19    3    9     -5.14      0.00
  -17    3    9      7.07      0.00
  -15    3    9      2.30      0.00
  -13    3    9      6.92      0.00
  -11    3    9     28.31      0.00
   -9    3    9     43.23      0.00
   -7    3    9     37.24      0.00
   -5    3    9     38.38      0.00
   -3    3    9     26.14      0.00
   -1    3    9     12.00      0.00
    1    3    9      4.88      0.00
    3    3    9     -0.95      0.00
    5    3    9    -14.71      0.00
    7    3    9    -13.37      0.00
    9    3    9    -10.11      0.00
   11    3    9    -13.20      0.00
   13    3    9     -6.74      0.00
   15    3    9     -8.13      0.00
   17    3    9     -6.50      0.00
   19    3    9     -1.00      0.00
   21    3    9     -0.47      0.00
   23    3    9      3.04      0.00
   25    3    9      3.21      0.00
  -36    4    9      0.99      0.00
  -34    4    9      1.44      0.00
  -32    4    9      5.60      0.00
  -30    4    9      5.02      0.00
  -28    4    9      6.39      0.00
  -26    4    9      5.49      0.00
  -24    4    9      4.29      0.00
  -22    4    9     10.34      0.00
  -20    4    9      9.71      0.00
  -18    4    9     -4.05      0.00
  -16    4    9     -6.34      0.00
  -14    4    9      1.80      0.00
  -12    4    9    -13.54      0.00
  -10    4    9    -36.94      0.00
   -8    4    9    -40.53      0.00
   -6    4    9    -37.38      0.00
   -4    4    9    -34.04      0.00
   -2    4    9    -18.19      0.00
    0    4    9     -7.67      0.00
    2    4    9     -5.86      0.00
    4    4    9      7.44      0.00
    6    4    9     15.64      0.00
    8    4    9      9.65      0.00
   10    4    9     10.19      0.00
   12    4    9      8.63      0.00
   14    4    9      5.45      0.00
   16    4    9      8.39      0.00
   18    4    9      2.58      0.00
   20    4    9      1.58      0.00
   22    4    9     -0.30      0.00
   24    4    9     -2.04      0.00
  -35    5    9     -0.16      0.00
  -33    5    9     -0.87      0.00
  -31    5    9     -5.51      0.00
  -29    5    9     -1.92      0.00
  -27    5    9     -6.02      0.00
  -25    5    9     -2.47      0.00
  -23    5    9     -8.62      0.00
  -21    5    9    -11.40      0.00
  -19    5    9     -3.66      0.00
  -17    5    9      9.24      0.00
  -15    5    9     -2.04      0.00
  -13    5    9     -2.63      0.00
  -11    5    9     16.45      0.00
   -9    5    9     34.80      0.00
   -7    5    9     30.75      0.00
   -5    5    9     30.50      0.00
   -3    5    9     20.89      0.00
   -1    5    9      9.82      0.00
    1    5    9      7.86      0.00
    3    5    9      3.77      0.00
    5    5    9    -11.76      0.00
    7    5    9     -8.30      0.00
    9    5    9     -5.60      0.00
   11    5    9     -4.71      0.00
   13    5    9     -3.98      0.00
   15    5    9     -5.89      0.00
   17    5    9     -3.28      0.00
   19    5    9     -1.41      0.00
   21    5    9     -1.62      0.00
   23    5    9      0.86      0.00
   25    5    9      0.20      0.00
  -36    6    9     -1.42      0.00
  -34    6    9     -1.32      0.00
  -32    6    9      2.66      0.00
  -30    6    9      0.12      0.00
  -28    6    9      2.31      0.00
  -26    6    9      2.14      0.00
  -24    6    9      5.73      0.00
  -22    6    9      9.95      0.00
  -20    6    9      9.59      0.00
  -18    6    9     -4.01      0.00
  -16    6    9     -2.44      0.00
  -14    6    9      7.19      0.00
  -12    6    9      7.11      0.00
  -10    6    9    -15.37      0.00
   -8    6    9    -22.64      0.00
   -6    6    9    -20.50      0.00
   -4    6    9    -14.55      0.00
   -2    6    9     -8.56      0.00
    0    6    9     -4.99      0.00
    2    6    9    -10.02      0.00
    4    6    9      4.92      0.00
    6    6    9      3.16      0.00
    8    6    9      4.52      0.00
   10    6    9     -3.77      0.00
   12    6    9      1.25      0.00
   14    6    9      1.22      0.00
   16    6    9      3.52      0.00
   18    6    9     -0.74      0.00
   20    6    9      1.95      0.00
   22    6    9     -0.69      0.00
   24    6    9     -1.08      0.00
  -35    7    9      1.26      0.00
  -33    7    9      0.07      0.00
  -31    7    9      0.06      0.00
  -29    7    9      1.28      0.00
  -27    7    9     -0.72      0.00
  -25    7    9     -0.86      0.00
  -23    7    9     -7.31      0.00
  -21    7    9     -8.09      0.00
  -19    7    9     -4.09      0.00
  -17    7    9      1.82      0.00
  -15    7    9     -4.20      0.00
  -13    7    9    -13.97      0.00
  -11    7    9    -11.81      0.00
   -9    7    9      7.93      0.00
   -7    7    9     11.63      0.00
   -5    7    9      5.74      0.00
   -3    7    9     -0.61      0.00
   -1    7    9      1.11      0.00
    1    7    9      6.54      0.00
    3    7    9      1.04      0.00
    5    7    9     -0.13      0.00
    7    7    9      0.32      0.00
    9    7    9      3.93      0.00
   11    7    9      7.22      0.00
   13    7    9      2.08      0.00
   15    7    9     -0.73      0.00
   17    7    9      1.46      0.00
   19    7    9      0.36      0.00
   21    7    9      0.98      0.00
   23    7    9      3.14      0.00
  -34    8    9      1.07      0.00
  -32    8    9     -2.74      0.00
  -30    8    9     -0.71      0.00
  -28    8    9     -1.93      0.00
  -26    8    9     -2.23      0.00
  -24    8    9      0.73      0.00
  -22    8    9      5.24      0.00
  -20    8    9      4.00      0.00
  -18    8    9      2.36      0.00
  -16    8    9      4.89      0.00
  -14    8    9      7.67      0.00
  -12    8    9     22.83      0.00
  -10    8    9     14.07      0.00
   -8    8    9     -0.15      0.00
   -6    8    9     -3.08      0.00
   -4    8    9     11.00      0.00
   -2    8    9      4.98      0.00
    0    8    9     -0.06      0.00
    2    8    9     -2.00      0.00
    4    8    9      1.86      0.00
    6    8    9     -7.28      0.00
    8    8    9     -0.66      0.00
   10    8    9    -10.99      0.00
   12    8    9     -5.97      0.00
   14    8    9     -3.60      0.00
   16    8    9     -1.87      0.00
   18    8    9     -3.47      0.00
   20    8    9     -1.99      0.00
   22    8    9     -4.06      0.00
   24    8    9     -4.17      0.00
  -35    9    9     -0.89      0.00
  -33    9    9      1.88      0.00
  -31    9    9      4.13      0.00
  -29    9    9      0.52      0.00
  -27    9    9      4.41      0.00
  -25    9    9      3.68      0.00
  -23    9    9     -0.78      0.00
  -21    9    9     -1.58      0.00
  -19    9    9     -0.75      0.00
  -17    9    9     -6.31      0.00
  -15    9    9     -6.56      0.00
  -13    9    9    -13.73      0.00
  -11    9    9    -25.89      0.00
   -9    9    9    -14.74      0.00
   -7    9    9     -1.14      0.00
   -5    9    9     -9.22      0.00
   -3    9    9    -14.49      0.00
   -1    9    9     -2.67      0.00
    1    9    9     -1.18      0.00
    3    9    9     -3.77      0.00
    5    9    9      6.40      0.00
    7    9    9      4.21      0.00
    9    9    9      5.93      0.00
   11    9    9      9.21      0.00
   13    9    9      6.16      0.00
   15    9    9      3.51      0.00
   17    9    9      6.11      0.00
   19    9    9      3.62      0.00
   21    9    9      4.84      0.00
   23    9    9      3.74      0.00
  -34   10    9      0.88      0.00
  -32   10    9     -6.94      0.00
  -30   10    9     -1.64      0.00
  -28   10    9     -3.95      0.00
  -26   10    9     -4.05      0.00
  -24   10    9     -2.86      0.00
  -22   10    9      1.32      0.00
  -20   10    9     -2.75      0.00
  -18   10    9      2.36      0.00
  -16   10    9      7.63      0.00
  -14   10    9      6.88      0.00
  -12   10    9     18.48      0.00
  -10   10    9     22.79      0.00
   -8   10    9     10.22      0.00
   -6   10    9      2.60      0.00
   -4   10    9     15.17      0.00
   -2   10    9      7.56      0.00
    0   10    9      1.27      0.00
    2   10    9      4.65      0.00
    4   10    9     -1.20      0.00
    6   10    9     -6.10      0.00
    8   10    9     -3.55      0.00
   10   10    9     -6.39      0.00
   12   10    9     -8.51      0.00
   14   10    9     -4.05      0.00
   16   10    9     -6.96      0.00
   18   10    9     -6.00      0.00
   20   10    9     -5.10      0.00
   22   10    9     -3.69      0.00
  -33   11    9      2.75      0.00
  -31   11    9      6.42      0.00
  -29   11    9      1.93      0.00
  -27   11    9      4.30      0.00
  -25   11    9      1.53      0.00
  -23   11    9     -0.25      0.00
  -21   11    9      0.59      0.00
  -19   11    9      3.04      0.00
  -17   11    9     -4.31      0.00
  -15   11    9     -5.23      0.00
  -13   11    9     -8.45      0.00
  -11   11    9    -17.81      0.00
   -9   11    9    -15.58      0.00
   -7   11    9     -2.87      0.00
   -5   11    9     -4.98      0.00
   -3   11    9    -11.62      0.00
   -1   11    9     -1.53      0.00
    1   11    9     -2.40      0.00
    3   11    9     -1.75      0.00
    5   11    9      2.43      0.00
    7   11    9      3.00      0.00
    9   11    9      2.51      0.00
   11   11    9      7.16      0.00
   13   11    9      5.92      0.00
   15   11    9      4.27      0.00
   17   11    9      7.42      0.00
   19   11    9      4.32      0.00
   21   11    9      5.48      0.00
  -32   12    9     -4.52      0.00
  -30   12    9     -3.37      0.00
  -28   12    9     -2.17      0.00
  -26   12    9     -0.86      0.00
  -24   12    9      0.79      0.00
  -22   12    9      1.66      0.00
  -20   12    9     -1.58      0.00
  -18   12    9     -0.49      0.00
  -16   12    9      2.90      0.00
  -14   12    9      2.79      0.00
  -12   12    9      8.74      0.00
  -10   12    9     12.94      0.00
   -8   12    9      5.41      0.00
   -6   12    9     -2.16      0.00
   -4   12    9      5.20      0.00
   -2   12    9      5.70      0.00
    0   12    9     -2.05      0.00
    2   12    9      1.39      0.00
    4   12    9     -0.44      0.00
    6   12    9      1.18      0.00
    8   12    9     -0.74      0.00
   10   12    9     -2.23      0.00
   12   12    9     -5.85      0.00
   14   12    9     -2.77      0.00
   16   12    9     -4.64      0.00
   18   12    9     -4.25      0.00
   20   12    9     -4.57      0.00
  -31   13    9      3.28      0.00
  -29   13    9      0.48      0.00
  -27   13    9     -0.78      0.00
  -25   13    9     -0.52      0.00
  -23   13    9     -1.72      0.00
  -21   13    9     -2.30      0.00
  -19   13    9      0.48      0.00
  -17   13    9     -0.85      0.00
  -15   13    9      1.28      0.00
  -13   13    9     -2.22      0.00
  -11   13    9     -5.60      0.00
   -9   13    9     -5.21      0.00
   -7   13    9      4.25      0.00
   -5   13    9      3.85      0.00
   -3   13    9     -3.49      0.00
   -1   13    9      2.27      0.00
    1   13    9      2.54      0.00
    3   13    9      1.26      0.00
    5   13    9     -2.74      0.00
    7   13    9     -2.49      0.00
    9   13    9     -1.05      0.00
   11   13    9      1.46      0.00
   13   13    9      0.29      0.00
   15   13    9      2.08      0.00
   17   13    9      3.20      0.00
   19   13    9      2.78      0.00
  -30   14    9     -0.94      0.00
  -28   14    9      3.27      0.00
  -26   14    9      1.33      0.00
  -24   14    9      0.16      0.00
  -22   14    9      2.05      0.00
  -20   14    9      3.89      0.00
  -18   14    9     -0.50      0.00
  -16   14    9     -1.37      0.00
  -14   14    9     -3.74      0.00
  -12   14    9      0.74      0.00
  -10   14    9      0.05      0.00
   -8   14    9     -4.36      0.00
   -6   14    9     -9.16      0.00
   -4   14    9     -4.81      0.00
   -2   14    9     -2.77      0.00
    0   14    9     -5.28      0.00
    2   14    9     -2.46      0.00
    4   14    9     -0.69      0.00
    6   14    9      3.87      0.00
    8   14    9      3.00      0.00
   10   14    9      0.77      0.00
   12   14    9      5.56      0.00
   14   14    9      0.86      0.00
   16   14    9     -1.93      0.00
   18   14    9     -3.12      0.00
  -29   15    9     -1.51      0.00
  -27   15    9     -4.60      0.00
  -25   15    9      0.61      0.00
  -23   15    9     -0.13      0.00
  -21   15    9     -3.90      0.00
  -19   15    9     -2.35      0.00
  -17   15    9      2.22      0.00
  -15   15    9      5.40      0.00
  -13   15    9      2.31      0.00
  -11   15    9      4.02      0.00
   -9   15    9      5.47      0.00
   -7   15    9     10.78      0.00
   -5   15    9     10.63      0.00
   -3   15    9      8.34      0.00
   -1   15    9      5.26      0.00
    1   15    9      2.37      0.00
    3   15    9      2.88      0.00
    5   15    9     -0.86      0.00
    7   15    9     -3.16      0.00
    9   15    9     -0.91      0.00
   11   15    9     -5.56      0.00
   13   15    9     -7.55      0.00
   15   15    9      0.96      0.00
   17   15    9      3.46      0.00
  -28   16    9      2.74      0.00
  -26   16    9      2.15      0.00
  -24   16    9     -0.42      0.00
  -22   16    9      0.70      0.00
  -20   16    9      4.83      0.00
  -18   16    9     -2.52      0.00
  -16   16    9     -5.05      0.00
  -14   16    9     -4.99      0.00
  -12   16    9     -2.62      0.00
  -10   16    9     -6.86      0.00
   -8   16    9     -7.85      0.00
   -6   16    9    -11.33      0.00
   -4   16    9    -12.61      0.00
   -2   16    9     -7.13      0.00
    0   16    9     -0.44      0.00
    2   16    9     -1.44      0.00
    4   16    9     -1.01      0.00
    6   16    9      1.50      0.00
    8   16    9      0.68      0.00
   10   16    9      1.52      0.00
   12   16    9      7.82      0.00
   14   16    9      3.21      0.00
   16   16    9     -3.32      0.00
  -25   17    9     -0.91      0.00
  -23   17    9     -0.88      0.00
  -21   17    9     -2.32      0.00
  -19   17    9     -1.55      0.00
  -17   17    9      6.65      0.00
  -15   17    9      5.19      0.00
  -13   17    9      2.57      0.00
  -11   17    9      3.45      0.00
   -9   17    9      3.60      0.00
   -7   17    9      5.28      0.00
   -5   17    9     10.39      0.00
   -3   17    9      9.96      0.00
   -1   17    9     -0.81      0.00
    1   17    9     -0.64      0.00
    3   17    9     -0.24      0.00
    5   17    9     -1.99      0.00
    7   17    9      0.04      0.00
    9   17    9      0.33      0.00
   11   17    9     -2.58      0.00
   13   17    9     -3.86      0.00
   15   17    9      1.08      0.00
  -24   18    9      2.26      0.00
  -22   18    9      1.98      0.00
  -20   18    9      3.19      0.00
  -18   18    9     -4.11      0.00
  -16   18    9     -6.03      0.00
  -14   18    9     -3.61      0.00
  -12   18    9     -1.04      0.00
  -10   18    9      0.25      0.00
   -8   18    9      2.74      0.00
   -6   18    9     -2.60      0.00
   -4   18    9     -7.68      0.00
   -2   18    9     -1.01      0.00
    0   18    9      3.01      0.00
    2   18    9     -0.56      0.00
    4   18    9      4.26      0.00
    6   18    9      1.27      0.00
    8   18    9     -1.72      0.00
   10   18    9      0.69      0.00
   12   18    9      0.12      0.00
   14   18    9      0.58      0.00
  -23   19    9     -3.85      0.00
  -21   19    9     -2.98      0.00
  -19   19    9     -0.58      0.00
  -17   19    9      6.13      0.00
  -15   19    9      3.36      0.00
  -13   19    9      2.76      0.00
  -11   19    9     -1.51      0.00
   -9   19    9     -5.29      0.00
   -7   19    9     -4.18      0.00
   -5   19    9      1.29      0.00
   -3   19    9      1.87      0.00
   -1   19    9     -4.24      0.00
    1   19    9      1.30      0.00
    3   19    9     -1.84      0.00
    5   19    9     -3.57      0.00
    7   19    9      2.03      0.00
    9   19    9      0.89      0.00
   11   19    9      0.12      0.00
  -20   20    9      1.97      0.00
  -18   20    9     -3.12      0.00
  -16   20    9     -3.47      0.00
  -14   20    9     -3.69      0.00
  -12   20    9     -0.34      0.00
  -10   20    9      2.16      0.00
   -8   20    9      4.43      0.00
   -6   20    9      0.71      0.00
   -4   20    9      0.96      0.00
   -2   20    9      2.84      0.00
    0   20    9      1.74      0.00
    2   20    9     -2.95      0.00
    4   20    9      1.95      0.00
    6   20    9     -1.40      0.00
    8   20    9     -2.49      0.00
  -17   21    9      2.95      0.00
  -15   21    9      3.12      0.00
  -13   21    9      2.53      0.00
  -11   21    9      0.46      0.00
   -9   21    9      0.36      0.00
   -7   21    9      1.90      0.00
   -5   21    9     -0.29      0.00
   -3   21    9     -2.45      0.00
   -1   21    9     -3.17      0.00
    1   21    9      2.59      0.00
    3   21    9      2.31      0.00
    5   21    9      1.93      0.00
  -14   22    9     -4.14      0.00
  -12   22    9     -0.11      0.00
  -10   22    9     -3.59      0.00
   -8   22    9     -3.37      0.00
   -6   22    9     -3.59      0.00
   -4   22    9      1.41      0.00
   -2   22    9      2.58      0.00
    2   22    9     -3.14      0.00
  -36    0   10    -11.37      0.00
  -34    0   10     -6.71      0.00
  -32    0   10     -4.56      0.00
  -30    0   10      0.61      0.00
  -28    0   10      1.90      0.00
  -26    0   10      4.73      0.00
  -24    0   10      0.51      0.00
  -22    0   10      0.19      0.00
  -20    0   10     17.38      0.00
  -18    0   10     23.95      0.00
  -16    0   10      6.56      0.00
  -14    0   10      0.70      0.00
  -12    0   10     17.60      0.00
  -10    0   10     20.68      0.00
   -8    0   10     15.42      0.00
   -6    0   10     26.27      0.00
   -4    0   10      5.28      0.00
   -2    0   10    -12.89      0.00
    0    0   10     -8.98      0.00
    2    0   10    -11.05      0.00
    4    0   10    -20.88      0.00
    6    0   10    -12.91      0.00
    8    0   10     -7.54      0.00
   10    0   10    -14.78      0.00
   12    0   10     -5.47      0.00
   14    0   10     -4.02      0.00
   16    0   10     -1.87      0.00
   18    0   10      6.01      0.00
   20    0   10      7.30      0.00
   22    0   10      7.97      0.00
   24    0   10      2.19      0.00
  -35    1   10     10.72      0.00
  -33    1   10      3.63      0.00
  -31    1   10      3.02      0.00
  -29    1   10     -2.34      0.00
  -27    1   10     -3.99      0.00
  -25    1   10     -4.34      0.00
  -23    1   10      2.63      0.00
  -21    1   10     -6.85      0.00
  -19    1   10    -21.87      0.00
  -17    1   10    -14.61      0.00
  -15    1   10      2.35      0.00
  -13    1   10     -6.11      0.00
  -11    1   10    -19.47      0.00
   -9    1   10    -15.77      0.00
   -7    1   10    -20.70      0.00
   -5    1   10    -19.63      0.00
   -3    1   10      7.33      0.00
   -1    1   10      9.60      0.00
    1    1   10      6.63      0.00
    3    1   10     14.45      0.00
    5    1   10     17.05      0.00
    7    1   10      5.73      0.00
    9    1   10      9.57      0.00
   11    1   10      9.35      0.00
   13    1   10      1.78      0.00
   15    1   10      4.41      0.00
   17    1   10     -2.78      0.00
   19    1   10     -6.53      0.00
   21    1   10     -7.33      0.00
   23    1   10     -4.68      0.00
  -36    2   10     -4.95      0.00
  -34    2   10     -3.97      0.00
  -32    2   10     -3.35      0.00
  -30    2   10      0.56      0.00
  -28    2   10      3.80      0.00
  -26    2   10      6.63      0.00
  -24    2   10     -0.49      0.00
  -22    2   10     -2.36      0.00
  -20    2   10     11.90      0.00
  -18    2   10     15.39      0.00
  -16    2   10     -0.47      0.00
  -14    2   10     -6.84      0.00
  -12    2   10      6.71      0.00
  -10    2   10     14.39      0.00
   -8    2   10     15.14      0.00
   -6    2   10     21.46      0.00
   -4    2   10      5.62      0.00
   -2    2   10     -6.89      0.00
    0    2   10     -2.05      0.00
    2    2   10     -3.59      0.00
    4    2   10    -12.32      0.00
    6    2   10     -4.97      0.00
    8    2   10     -0.98      0.00
   10    2   10     -4.85      0.00
   12    2   10     -1.15      0.00
   14    2   10     -1.82      0.00
   16    2   10     -1.11      0.00
   18    2   10      4.66      0.00
   20    2   10      4.98      0.00
   22    2   10      4.28      0.00
   24    2   10      0.92      0.00
  -37    3   10     -2.14      0.00
  -35    3   10      1.39      0.00
  -33    3   10      0.62      0.00
  -31    3   10      0.19      0.00
  -29    3   10     -2.17      0.00
  -27    3   10     -6.11      0.00
  -25    3   10     -1.90      0.00
  -23    3   10      4.50      0.00
  -21    3   10      0.80      0.00
  -19    3   10    -10.38      0.00
  -17    3   10     -0.60      0.00
  -15    3   10     10.88      0.00
  -13    3   10     11.95      0.00
  -11    3   10     -3.92      0.00
   -9    3   10    -10.32      0.00
   -7    3   10    -15.78      0.00
   -5    3   10    -12.14      0.00
   -3    3   10     -1.34      0.00
   -1    3   10     -2.35      0.00
    1    3   10     -6.91      0.00
    3    3   10      1.44      0.00
    5    3   10     -0.50      0.00
    7    3   10     -4.23      0.00
    9    3   10     -5.94      0.00
   11    3   10     -0.90      0.00
   13    3   10     -1.97      0.00
   15    3   10      1.56      0.00
   17    3   10     -1.84      0.00
   19    3   10     -2.28      0.00
   21    3   10     -1.51      0.00
   23    3   10     -0.07      0.00
  -36    4   10      3.63      0.00
  -34    4   10      1.52      0.00
  -32    4   10      3.20      0.00
  -30    4   10      1.59      0.00
  -28    4   10      3.37      0.00
  -26    4   10      2.08      0.00
  -24    4   10     -4.12      0.00
  -22    4   10     -6.67      0.00
  -20    4   10     -0.54      0.00
  -18    4   10     -0.74      0.00
  -16    4   10     -9.06      0.00
  -14    4   10    -21.14      0.00
  -12    4   10    -15.29      0.00
  -10    4   10      1.12      0.00
   -8    4   10      9.58      0.00
   -6    4   10      8.90      0.00
   -4    4   10      6.18      0.00
   -2    4   10      7.95      0.00
    0    4   10     13.65      0.00
    2    4   10     10.06      0.00
    4    4   10      8.97      0.00
    6    4   10     11.42      0.00
    8    4   10     12.20      0.00
   10    4   10      9.89      0.00
   12    4   10      2.73      0.00
   14    4   10      1.30      0.00
   16    4   10     -0.02      0.00
   18    4   10     -0.07      0.00
   20    4   10     -1.23      0.00
   22    4   10     -1.88      0.00
   24    4   10     -1.77      0.00
  -37    5   10     -4.97      0.00
  -35    5   10     -2.00      0.00
  -33    5   10     -6.20      0.00
  -31    5   10     -3.60      0.00
  -29    5   10     -2.76      0.00
  -27    5   10     -0.90      0.00
  -25    5   10      3.90      0.00
  -23    5   10      6.85      0.00
  -21    5   10      8.56      0.00
  -19    5   10      6.81      0.00
  -17    5   10     10.14      0.00
  -15    5   10     15.18      0.00
  -13    5   10     30.37      0.00
  -11    5   10     14.44      0.00
   -9    5   10     -1.00      0.00
   -7    5   10     -5.67      0.00
   -5    5   10     -0.92      0.00
   -3    5   10    -10.46      0.00
   -1    5   10    -16.80      0.00
    1    5   10    -17.05      0.00
    3    5   10    -14.93      0.00
    5    5   10    -21.19      0.00
    7    5   10    -14.92      0.00
    9    5   10    -17.95      0.00
   11    5   10     -6.90      0.00
   13    5   10     -2.73      0.00
   15    5   10      0.12      0.00
   17    5   10      1.05      0.00
   19    5   10      2.95      0.00
   21    5   10      2.86      0.00
   23    5   10      2.59      0.00
  -36    6   10      2.19      0.00
  -34    6   10      3.07      0.00
  -32    6   10      7.42      0.00
  -30    6   10      1.84      0.00
  -28    6   10      3.03      0.00
  -26    6   10     -3.33      0.00
  -24    6   10     -5.68      0.00
  -22    6   10     -8.83      0.00
  -20    6   10    -11.90      0.00
  -18    6   10    -15.77      0.00
  -16    6   10    -10.34      0.00
  -14    6   10    -24.37      0.00
  -12    6   10    -30.39      0.00
  -10    6   10    -11.68      0.00
   -8    6   10      2.96      0.00
   -6    6   10     -3.18      0.00
   -4    6   10      3.35      0.00
   -2    6   10     17.19      0.00
    0    6   10     18.52      0.00
    2    6   10     15.65      0.00
    4    6   10     25.68      0.00
    6    6   10     20.86      0.00
    8    6   10     17.37      0.00
   10    6   10     14.22      0.00
   12    6   10      4.21      0.00
   14    6   10      1.10      0.00
   16    6   10     -1.72      0.00
   18    6   10     -2.73      0.00
   20    6   10     -3.00      0.00
   22    6   10     -2.39      0.00
   24    6   10     -1.79      0.00
  -35    7   10      1.43      0.00
  -33    7   10     -6.97      0.00
  -31    7   10     -1.41      0.00
  -29    7   10     -3.93      0.00
  -27    7   10      0.62      0.00
  -25    7   10      3.24      0.00
  -23    7   10      6.69      0.00
  -21    7   10      8.76      0.00
  -19    7   10     17.62      0.00
  -17    7   10     14.97      0.00
  -15    7   10     10.58      0.00
  -13    7   10     27.70      0.00
  -11    7   10     24.37      0.00
   -9    7   10      4.96      0.00
   -7    7   10      0.03      0.00
   -5    7   10      4.89      0.00
   -3    7   10    -11.42      0.00
   -1    7   10    -18.00      0.00
    1    7   10    -12.61      0.00
    3    7   10    -21.83      0.00
    5    7   10    -24.83      0.00
    7    7   10    -16.54      0.00
    9    7   10    -13.15      0.00
   11    7   10     -8.95      0.00
   13    7   10     -1.93      0.00
   15    7   10      0.34      0.00
   17    7   10      2.52      0.00
   19    7   10      2.17      0.00
   21    7   10      2.65      0.00
   23    7   10      0.86      0.00
  -34    8   10      0.60      0.00
  -32    8   10      4.09      0.00
  -30    8   10     -0.18      0.00
  -28    8   10      2.84      0.00
  -26    8   10     -2.40      0.00
  -24    8   10     -2.38      0.00
  -22    8   10     -4.33      0.00
  -20    8   10     -8.46      0.00
  -18    8   10    -17.06      0.00
  -16    8   10     -7.57      0.00
  -14    8   10    -11.21      0.00
  -12    8   10    -22.27      0.00
  -10    8   10    -14.77      0.00
   -8    8   10      0.87      0.00
   -6    8   10     -3.43      0.00
   -4    8   10      2.41      0.00
   -2    8   10     14.13      0.00
    0    8   10     11.22      0.00
    2    8   10     13.23      0.00
    4    8   10     21.50      0.00
    6    8   10     17.03      0.00
    8    8   10      8.66      0.00
   10    8   10      8.26      0.00
   12    8   10      4.11      0.00
   14    8   10      1.16      0.00
   16    8   10     -1.36      0.00
   18    8   10     -1.51      0.00
   20    8   10     -2.88      0.00
   22    8   10     -2.64      0.00
  -35    9   10      2.93      0.00
  -33    9   10     -2.63      0.00
  -31    9   10     -0.26      0.00
  -29    9   10     -1.06      0.00
  -27    9   10      1.88      0.00
  -25    9   10      0.51      0.00
  -23    9   10      0.01      0.00
  -21    9   10     -0.87      0.00
  -19    9   10      6.76      0.00
  -17    9   10      7.75      0.00
  -15    9   10      1.76      0.00
  -13    9   10      6.95      0.00
  -11    9   10     14.00      0.00
   -9    9   10      2.93      0.00
   -7    9   10     -0.99      0.00
   -5    9   10     -0.59      0.00
   -3    9   10     -4.74      0.00
   -1    9   10    -10.95      0.00
    1    9   10     -6.19      0.00
    3    9   10    -14.29      0.00
    5    9   10    -11.42      0.00
    7    9   10     -9.36      0.00
    9    9   10     -1.00      0.00
   11    9   10     -6.08      0.00
   13    9   10     -0.43      0.00
   15    9   10     -0.83      0.00
   17    9   10      1.65      0.00
   19    9   10      2.13      0.00
   21    9   10      5.00      0.00
  -34   10   10     -2.02      0.00
  -32   10   10      3.00      0.00
  -30   10   10      0.01      0.00
  -28   10   10     -2.16      0.00
  -26   10   10     -2.22      0.00
  -24   10   10      3.21      0.00
  -22   10   10      4.61      0.00
  -20   10   10      4.39      0.00
  -18   10   10     -0.52      0.00
  -16   10   10      2.27      0.00
  -14   10   10      3.18      0.00
  -12   10   10     -1.51      0.00
  -10   10   10     -4.24      0.00
   -8   10   10      3.35      0.00
   -6   10   10      2.28      0.00
   -4   10   10      0.87      0.00
   -2   10   10      3.09      0.00
    0   10   10      5.16      0.00
    2   10   10      5.73      0.00
    4   10   10      4.03      0.00
    6   10   10      6.09      0.00
    8   10   10     -0.80      0.00
   10   10   10      2.31      0.00
   12   10   10      1.00      0.00
   14   10   10      0.71      0.00
   16   10   10     -1.76      0.00
   18   10   10     -1.34      0.00
   20   10   10     -4.83      0.00
   22   10   10     -5.08      0.00
  -33   11   10     -0.37      0.00
  -31   11   10     -3.43      0.00
  -29   11   10      2.75      0.00
  -27   11   10      3.37      0.00
  -25   11   10     -1.73      0.00
  -23   11   10     -7.02      0.00
  -21   11   10     -5.88      0.00
  -19   11   10     -7.76      0.00
  -17   11   10     -6.95      0.00
  -15   11   10     -8.92      0.00
  -13   11   10     -7.48      0.00
  -11   11   10     -2.07      0.00
   -9   11   10     -4.00      0.00
   -7   11   10     -3.23      0.00
   -5   11   10     -3.20      0.00
   -3   11   10      3.91      0.00
   -1   11   10     -1.89      0.00
    1   11   10     -0.17      0.00
    3   11   10      0.73      0.00
    5   11   10      2.74      0.00
    7   11   10     -0.55      0.00
    9   11   10      2.26      0.00
   11   11   10     -0.77      0.00
   13   11   10     -0.04      0.00
   15   11   10      1.32      0.00
   17   11   10      1.64      0.00
   19   11   10      2.99      0.00
   21   11   10      5.61      0.00
  -32   12   10      3.24      0.00
  -30   12   10      0.36      0.00
  -28   12   10     -5.15      0.00
  -26   12   10     -0.03      0.00
  -24   12   10      5.36      0.00
  -22   12   10      5.53      0.00
  -20   12   10      6.24      0.00
  -18   12   10     10.42      0.00
  -16   12   10     12.85      0.00
  -14   12   10     11.83      0.00
  -12   12   10      9.83      0.00
  -10   12   10      4.97      0.00
   -8   12   10      5.46      0.00
   -6   12   10      2.20      0.00
   -4   12   10      0.38      0.00
   -2   12   10     -5.11      0.00
    0   12   10     -2.04      0.00
    2   12   10     -4.27      0.00
    4   12   10     -7.50      0.00
    6   12   10     -2.90      0.00
    8   12   10     -2.56      0.00
   10   12   10     -1.45      0.00
   12   12   10     -2.00      0.00
   14   12   10      1.12      0.00
   16   12   10     -2.10      0.00
   18   12   10     -1.11      0.00
   20   12   10     -4.63      0.00
  -31   13   10     -2.79      0.00
  -29   13   10      4.50      0.00
  -27   13   10      3.13      0.00
  -25   13   10     -2.01      0.00
  -23   13   10     -4.90      0.00
  -21   13   10     -1.43      0.00
  -19   13   10     -8.07      0.00
  -17   13   10    -11.52      0.00
  -15   13   10    -14.92      0.00
  -13   13   10    -13.08      0.00
  -11   13   10     -9.84      0.00
   -9   13   10     -6.01      0.00
   -7   13   10     -1.81      0.00
   -5   13   10     -3.46      0.00
   -3   13   10      2.67      0.00
   -1   13   10      6.37      0.00
    1   13   10      5.30      0.00
    3   13   10      7.78      0.00
    5   13   10      6.21      0.00
    7   13   10      2.11      0.00
    9   13   10      1.61      0.00
   11   13   10      4.47      0.00
   13   13   10     -0.10      0.00
   15   13   10     -1.11      0.00
   17   13   10      0.83      0.00
   19   13   10      3.03      0.00
  -30   14   10     -0.61      0.00
  -28   14   10     -6.06      0.00
  -26   14   10     -1.71      0.00
  -24   14   10      1.64      0.00
  -22   14   10      1.19      0.00
  -20   14   10      1.10      0.00
  -18   14   10      8.08      0.00
  -16   14   10     10.77      0.00
  -14   14   10     13.81      0.00
  -12   14   10     12.77      0.00
  -10   14   10      7.78      0.00
   -8   14   10      3.02      0.00
   -6   14   10      1.41      0.00
   -4   14   10      4.47      0.00
   -2   14   10     -7.12      0.00
    0   14   10     -5.87      0.00
    2   14   10     -6.60      0.00
    4   14   10     -6.32      0.00
    6   14   10     -1.64      0.00
    8   14   10      0.11      0.00
   10   14   10     -2.27      0.00
   12   14   10     -4.00      0.00
   14   14   10      2.24      0.00
   16   14   10      0.50      0.00
   18   14   10     -2.06      0.00
  -29   15   10      3.24      0.00
  -27   15   10      5.72      0.00
  -25   15   10      2.22      0.00
  -23   15   10     -0.89      0.00
  -21   15   10      1.36      0.00
  -19   15   10     -2.43      0.00
  -17   15   10     -4.65      0.00
  -15   15   10     -8.75      0.00
  -13   15   10    -11.15      0.00
  -11   15   10     -8.74      0.00
   -9   15   10     -3.61      0.00
   -7   15   10     -0.57      0.00
   -5   15   10     -5.09      0.00
   -3   15   10      0.42      0.00
   -1   15   10      6.76      0.00
    1   15   10      3.39      0.00
    3   15   10      6.95      0.00
    5   15   10      1.02      0.00
    7   15   10     -2.48      0.00
    9   15   10     -1.29      0.00
   11   15   10      0.96      0.00
   13   15   10      2.71      0.00
   15   15   10     -2.31      0.00
   17   15   10      2.69      0.00
  -28   16   10     -4.05      0.00
  -26   16   10     -5.31      0.00
  -24   16   10     -1.63      0.00
  -22   16   10      0.04      0.00
  -20   16   10     -1.70      0.00
  -18   16   10      0.86      0.00
  -16   16   10      0.56      0.00
  -14   16   10      7.31      0.00
  -12   16   10      4.82      0.00
  -10   16   10      2.94      0.00
   -8   16   10      0.05      0.00
   -6   16   10      2.47      0.00
   -4   16   10      4.89      0.00
   -2   16   10     -3.46      0.00
    0   16   10      0.51      0.00
    2   16   10     -5.25      0.00
    4   16   10     -3.81      0.00
    6   16   10      4.26      0.00
    8   16   10      3.23      0.00
   10   16   10      4.13      0.00
   12   16   10     -1.69      0.00
   14   16   10     -1.20      0.00
   16   16   10     -1.43      0.00
  -25   17   10      3.44      0.00
  -23   17   10      0.89      0.00
  -21   17   10      0.39      0.00
  -19   17   10      2.15      0.00
  -17   17   10      3.20      0.00
  -15   17   10     -1.25      0.00
  -13   17   10     -2.52      0.00
  -11   17   10      1.06      0.00
   -9   17   10      0.51      0.00
   -7   17   10     -0.19      0.00
   -5   17   10     -3.90      0.00
   -3   17   10     -2.50      0.00
   -1   17   10     -2.87      0.00
    1   17   10     -2.59      0.00
    3   17   10      6.42      0.00
    5   17   10     -2.27      0.00
    7   17   10     -4.80      0.00
    9   17   10     -4.00      0.00
   11   17   10     -3.90      0.00
   13   17   10      3.20      0.00
   15   17   10      0.64      0.00
  -24   18   10     -1.90      0.00
  -22   18   10      0.16      0.00
  -20   18   10     -0.56      0.00
  -18   18   10     -4.28      0.00
  -16   18   10     -2.94      0.00
  -14   18   10      2.29      0.00
  -12   18   10     -2.56      0.00
  -10   18   10     -0.73      0.00
   -8   18   10      0.11      0.00
   -6   18   10      0.34      0.00
   -4   18   10      3.48      0.00
   -2   18   10      4.27      0.00
    0   18   10      8.68      0.00
    2   18   10     -0.09      0.00
    4   18   10     -1.49      0.00
    6   18   10      4.78      0.00
    8   18   10      2.85      0.00
   10   18   10      4.22      0.00
   12   18   10     -0.39      0.00
  -23   19   10      0.97      0.00
  -21   19   10     -2.24      0.00
  -19   19   10      2.26      0.00
  -17   19   10      4.51      0.00
  -15   19   10     -1.20      0.00
  -13   19   10      0.06      0.00
  -11   19   10     -0.49      0.00
   -9   19   10     -3.03      0.00
   -7   19   10     -0.06      0.00
   -5   19   10      0.69      0.00
   -3   19   10     -3.13      0.00
   -1   19   10     -7.71      0.00
    1   19   10     -8.23      0.00
    3   19   10     -0.97      0.00
    5   19   10     -2.85      0.00
    7   19   10     -2.55      0.00
    9   19   10     -2.59      0.00
  -20   20   10      2.23      0.00
  -18   20   10     -4.28      0.00
  -16   20   10     -0.49      0.00
  -14   20   10      1.53      0.00
  -12   20   10      1.94      0.00
  -10   20   10      6.24      0.00
   -8   20   10      3.18      0.00
   -6   20   10     -2.08      0.00
   -4   20   10     -0.98      0.00
   -2   20   10      3.66      0.00
    0   20   10      8.49      0.00
    2   20   10      6.29      0.00
    4   20   10      2.76      0.00
    6   20   10      2.02      0.00
    8   20   10      1.35      0.00
  -17   21   10      2.82      0.00
  -15   21   10     -1.57      0.00
  -13   21   10     -1.25      0.00
  -11   21   10     -6.05      0.00
   -9   21   10     -5.35      0.00
   -7   21   10      0.57      0.00
   -5   21   10      1.71      0.00
   -3   21   10      0.71      0.00
   -1   21   10     -5.38      0.00
    1   21   10     -5.69      0.00
    3   21   10     -4.01      0.00
    5   21   10     -1.25      0.00
  -14   22   10      0.37      0.00
  -12   22   10      2.59      0.00
  -10   22   10      4.27      0.00
   -8   22   10     -0.57      0.00
   -6   22   10     -0.31      0.00
   -4   22   10     -0.96      0.00
    0   22   10      4.09      0.00
  -37    1   11      4.55      0.00
  -35    1   11     -0.23      0.00
  -33    1   11     -0.90      0.00
  -31    1   11     -2.93      0.00
  -29    1   11      0.40      0.00
  -27    1   11     -1.59      0.00
  -25    1   11     -3.18      0.00
  -23    1   11     -4.68      0.00
  -21    1   11     -8.15      0.00
  -19    1   11     -7.68      0.00
  -17    1   11     -2.15      0.00
  -15    1   11     -2.68      0.00
  -13    1   11     -2.34      0.00
  -11    1   11      3.25      0.00
   -9    1   11      7.12      0.00
   -7    1   11      6.21      0.00
   -5    1   11     13.18      0.00
   -3    1   11     16.35      0.00
   -1    1   11     11.37      0.00
    1    1   11      9.73      0.00
    3    1   11      7.76      0.00
    5    1   11      0.84      0.00
    7    1   11      0.12      0.00
    9    1   11      1.21      0.00
   11    1   11     -2.03      0.00
   13    1   11      0.30      0.00
   15    1   11     -0.50      0.00
   17    1   11     -1.68      0.00
   19    1   11     -2.11      0.00
   21    1   11     -1.07      0.00
   23    1   11      2.23      0.00
  -36    2   11     -4.13      0.00
  -34    2   11      1.00      0.00
  -32    2   11      3.55      0.00
  -30    2   11      3.37      0.00
  -28    2   11      1.40      0.00
  -26    2   11      5.43      0.00
  -24    2   11      4.97      0.00
  -22    2   11     11.30      0.00
  -20    2   11     14.56      0.00
  -18    2   11      8.00      0.00
  -16    2   11      0.62      0.00
  -14    2   11      6.51      0.00
  -12    2   11     -2.07      0.00
  -10    2   11     -9.03      0.00
   -8    2   11    -12.54      0.00
   -6    2   11    -15.73      0.00
   -4    2   11    -31.22      0.00
   -2    2   11    -24.71      0.00
    0    2   11    -17.57      0.00
    2    2   11    -16.58      0.00
    4    2   11     -8.29      0.00
    6    2   11      1.63      0.00
    8    2   11     -2.08      0.00
   10    2   11      2.90      0.00
   12    2   11      1.96      0.00
   14    2   11     -0.50      0.00
   16    2   11      2.45      0.00
   18    2   11      3.84      0.00
   20    2   11      3.08      0.00
   22    2   11     -0.99      0.00
  -37    3   11      5.79      0.00
  -35    3   11      0.36      0.00
  -33    3   11     -0.42      0.00
  -31    3   11     -6.83      0.00
  -29    3   11     -2.67      0.00
  -27    3   11     -6.95      0.00
  -25    3   11     -4.98      0.00
  -23    3   11     -7.82      0.00
  -21    3   11    -17.06      0.00
  -19    3   11    -14.17      0.00
  -17    3   11     -0.17      0.00
  -15    3   11     -3.01      0.00
  -13    3   11     -2.82      0.00
  -11    3   11      7.30      0.00
   -9    3   11     13.90      0.00
   -7    3   11     15.35      0.00
   -5    3   11     32.22      0.00
   -3    3   11     37.96      0.00
   -1    3   11     23.10      0.00
    1    3   11     19.43      0.00
    3    3   11     18.23      0.00
    5    3   11      2.06      0.00
    7    3   11     -0.34      0.00
    9    3   11     -1.04      0.00
   11    3   11     -5.84      0.00
   13    3   11      0.53      0.00
   15    3   11     -1.86      0.00
   17    3   11     -4.24      0.00
   19    3   11     -3.73      0.00
   21    3   11     -1.45      0.00
   23    3   11      3.53      0.00
  -38    4   11     -1.88      0.00
  -36    4   11     -1.67      0.00
  -34    4   11     -1.79      0.00
  -32    4   11      4.69      0.00
  -30    4   11      4.25      0.00
  -28    4   11      6.83      0.00
  -26    4   11      6.14      0.00
  -24    4   11      4.30      0.00
  -22    4   11     11.70      0.00
  -20    4   11     18.93      0.00
  -18    4   11      4.08      0.00
  -16    4   11     -4.51      0.00
  -14    4   11      2.56      0.00
  -12    4   11     -3.36      0.00
  -10    4   11     -9.61      0.00
   -8    4   11    -14.02      0.00
   -6    4   11    -22.25      0.00
   -4    4   11    -39.78      0.00
   -2    4   11    -27.98      0.00
    0    4   11    -14.92      0.00
    2    4   11    -20.72      0.00
    4    4   11    -10.40      0.00
    6    4   11      0.06      0.00
    8    4   11      0.74      0.00
   10    4   11      4.82      0.00
   12    4   11      2.97      0.00
   14    4   11      0.30      0.00
   16    4   11      3.50      0.00
   18    4   11      2.65      0.00
   20    4   11      0.83      0.00
   22    4   11     -0.99      0.00
  -37    5   11      0.58      0.00
  -35    5   11      1.12      0.00
  -33    5   11      0.20      0.00
  -31    5   11     -5.02      0.00
  -29    5   11     -2.83      0.00
  -27    5   11     -7.28      0.00
  -25    5   11     -2.56      0.00
  -23    5   11     -4.91      0.00
  -21    5   11    -15.17      0.00
  -19    5   11    -11.78      0.00
  -17    5   11      6.21      0.00
  -15    5   11      6.19      0.00
  -13    5   11      1.64      0.00
  -11    5   11      4.11      0.00
   -9    5   11      8.19      0.00
   -7    5   11     12.49      0.00
   -5    5   11     26.99      0.00
   -3    5   11     27.39      0.00
   -1    5   11      9.10      0.00
    1    5   11     10.57      0.00
    3    5   11     14.75      0.00
    5    5   11      3.42      0.00
    7    5   11     -0.07      0.00
    9    5   11     -2.49      0.00
   11    5   11     -3.33      0.00
   13    5   11     -0.61      0.00
   15    5   11     -2.53      0.00
   17    5   11     -0.34      0.00
   19    5   11      1.33      0.00
   21    5   11      1.50      0.00
   23    5   11      1.74      0.00
  -36    6   11     -0.20      0.00
  -34    6   11     -1.93      0.00
  -32    6   11      2.98      0.00
  -30    6   11      0.54      0.00
  -28    6   11      4.18      0.00
  -26    6   11      1.68      0.00
  -24    6   11      1.16      0.00
  -22    6   11      4.49      0.00
  -20    6   11     13.60      0.00
  -18    6   11     -0.43      0.00
  -16    6   11    -10.80      0.00
  -14    6   11     -9.75      0.00
  -12    6   11     -0.79      0.00
  -10    6   11     -1.09      0.00
   -8    6   11     -3.21      0.00
   -6    6   11    -12.81      0.00
   -4    6   11    -16.40      0.00
   -2    6   11     -5.59      0.00
    0    6   11      4.32      0.00
    2    6   11     -8.42      0.00
    4    6   11     -3.33      0.00
    6    6   11     -3.75      0.00
    8    6   11      3.71      0.00
   10    6   11     -0.22      0.00
   12    6   11      1.37      0.00
   14    6   11      1.06      0.00
   16    6   11      0.03      0.00
   18    6   11     -3.75      0.00
   20    6   11     -3.41      0.00
   22    6   11     -2.03      0.00
  -35    7   11      1.58      0.00
  -33    7   11      0.36      0.00
  -31    7   11     -0.72      0.00
  -29    7   11     -0.40      0.00
  -27    7   11     -1.05      0.00
  -25    7   11      2.63      0.00
  -23    7   11      2.35      0.00
  -21    7   11     -3.72      0.00
  -19    7   11     -4.19      0.00
  -17    7   11      7.42      0.00
  -15    7   11     15.37      0.00
  -13    7   11      8.49      0.00
  -11    7   11     -3.60      0.00
   -9    7   11     -4.58      0.00
   -7    7   11      1.69      0.00
   -5    7   11      5.41      0.00
   -3    7   11     -1.73      0.00
   -1    7   11    -10.53      0.00
    1    7   11     -5.88      0.00
    3    7   11     -1.49      0.00
    5    7   11      2.74      0.00
    7    7   11     -0.96      0.00
    9    7   11     -1.94      0.00
   11    7   11      0.97      0.00
   13    7   11     -0.53      0.00
   15    7   11     -0.86      0.00
   17    7   11      4.33      0.00
   19    7   11      3.99      0.00
   21    7   11      3.08      0.00
   23    7   11      2.25      0.00
  -34    8   11     -1.67      0.00
  -32    8   11     -1.84      0.00
  -30    8   11      0.21      0.00
  -28    8   11      0.00      0.00
  -26    8   11     -4.18      0.00
  -24    8   11     -6.79      0.00
  -22    8   11     -4.59      0.00
  -20    8   11     -0.64      0.00
  -18    8   11     -4.20      0.00
  -16    8   11    -11.17      0.00
  -14    8   11    -17.34      0.00
  -12    8   11     -1.51      0.00
  -10    8   11      7.50      0.00
   -8    8   11      7.49      0.00
   -6    8   11     -0.97      0.00
   -4    8   11      9.50      0.00
   -2    8   11     11.20      0.00
    0    8   11     14.34      0.00
    2    8   11      8.24      0.00
    4    8   11      5.17      0.00
    6    8   11     -3.98      0.00
    8    8   11      4.71      0.00
   10    8   11     -1.10      0.00
   12    8   11      0.03      0.00
   14    8   11      1.60      0.00
   16    8   11     -2.09      0.00
   18    8   11     -4.01      0.00
   20    8   11     -2.69      0.00
   22    8   11     -2.31      0.00
  -35    9   11      2.67      0.00
  -33    9   11      3.32      0.00
  -31    9   11      2.31      0.00
  -29    9   11     -0.70      0.00
  -27    9   11      3.85      0.00
  -25    9   11      8.43      0.00
  -23    9   11      7.71      0.00
  -21    9   11      4.98      0.00
  -19    9   11      6.15      0.00
  -17    9   11      7.47      0.00
  -15    9   11     14.34      0.00
  -13    9   11     11.97      0.00
  -11    9   11     -4.39      0.00
   -9    9   11     -9.40      0.00
   -7    9   11     -3.99      0.00
   -5    9   11     -6.49      0.00
   -3    9   11    -14.69      0.00
   -1    9   11    -11.89      0.00
    1    9   11    -12.78      0.00
    3    9   11    -11.10      0.00
    5    9   11      0.87      0.00
    7    9   11     -0.27      0.00
    9    9   11     -2.21      0.00
   11    9   11      0.89      0.00
   13    9   11     -1.50      0.00
   15    9   11     -1.69      0.00
   17    9   11      3.49      0.00
   19    9   11      1.75      0.00
   21    9   11      1.88      0.00
  -34   10   11     -2.30      0.00
  -32   10   11     -4.58      0.00
  -30   10   11     -0.34      0.00
  -28   10   11     -2.98      0.00
  -26   10   11     -6.43      0.00
  -24   10   11     -8.52      0.00
  -22   10   11     -3.86      0.00
  -20   10   11     -6.42      0.00
  -18   10   11     -7.50      0.00
  -16   10   11     -9.09      0.00
  -14   10   11    -13.39      0.00
  -12   10   11     -3.46      0.00
  -10   10   11      6.79      0.00
   -8   10   11      6.62      0.00
   -6   10   11      1.14      0.00
   -4   10   11     10.29      0.00
   -2   10   11     10.35      0.00
    0   10   11      9.85      0.00
    2   10   11     12.46      0.00
    4   10   11      5.51      0.00
    6   10   11     -1.87      0.00
    8   10   11      1.50      0.00
   10   10   11      0.79      0.00
   12   10   11     -1.27      0.00
   14   10   11      3.77      0.00
   16   10   11     -0.94      0.00
   18   10   11     -1.51      0.00
   20   10   11     -1.50      0.00
  -33   11   11      1.36      0.00
  -31   11   11      3.02      0.00
  -29   11   11      1.93      0.00
  -27   11   11      5.09      0.00
  -25   11   11      5.35      0.00
  -23   11   11      3.66      0.00
  -21   11   11      1.82      0.00
  -19   11   11      5.80      0.00
  -17   11   11      6.12      0.00
  -15   11   11      9.63      0.00
  -13   11   11      8.17      0.00
  -11   11   11     -2.86      0.00
   -9   11   11     -6.09      0.00
   -7   11   11     -1.05      0.00
   -5   11   11      1.05      0.00
   -3   11   11     -7.11      0.00
   -1   11   11     -5.68      0.00
    1   11   11     -8.99      0.00
    3   11   11     -8.07      0.00
    5   11   11     -1.68      0.00
    7   11   11      0.14      0.00
    9   11   11     -2.54      0.00
   11   11   11      1.98      0.00
   13   11   11     -0.56      0.00
   15   11   11     -2.21      0.00
   17   11   11      0.91      0.00
   19   11   11      0.40      0.00
  -32   12   11     -0.50      0.00
  -30   12   11     -2.55      0.00
  -28   12   11     -3.43      0.00
  -26   12   11     -2.70      0.00
  -24   12   11     -2.27      0.00
  -22   12   11     -0.75      0.00
  -20   12   11     -0.83      0.00
  -18   12   11     -2.17      0.00
  -16   12   11     -4.75      0.00
  -14   12   11     -8.76      0.00
  -12   12   11     -2.16      0.00
  -10   12   11      5.59      0.00
   -8   12   11      2.59      0.00
   -6   12   11     -4.47      0.00
   -4   12   11     -3.47      0.00
   -2   12   11      3.82      0.00
    0   12   11      2.54      0.00
    2   12   11      7.09      0.00
    4   12   11      3.06      0.00
    6   12   11      2.27      0.00
    8   12   11      2.22      0.00
   10   12   11      0.76      0.00
   12   12   11     -1.95      0.00
   14   12   11      1.57      0.00
   16   12   11      1.48      0.00
   18   12   11      0.29      0.00
  -31   13   11      1.69      0.00
  -29   13   11      2.28      0.00
  -27   13   11      0.90      0.00
  -25   13   11      0.45      0.00
  -23   13   11      1.56      0.00
  -21   13   11     -0.14      0.00
  -19   13   11     -2.03      0.00
  -17   13   11     -2.03      0.00
  -15   13   11      5.88      0.00
  -13   13   11      5.81      0.00
  -11   13   11     -1.29      0.00
   -9   13   11     -4.56      0.00
   -7   13   11      2.10      0.00
   -5   13   11      7.78      0.00
   -3   13   11      2.85      0.00
   -1   13   11      0.95      0.00
    1   13   11     -2.37      0.00
    3   13   11     -1.84      0.00
    5   13   11     -2.33      0.00
    7   13   11     -2.70      0.00
    9   13   11     -1.73      0.00
   11   13   11      0.62      0.00
   13   13   11     -1.80      0.00
   15   13   11     -2.75      0.00
   17   13   11     -1.69      0.00
  -30   14   11     -2.53      0.00
  -28   14   11      0.54      0.00
  -26   14   11      0.62      0.00
  -24   14   11     -0.43      0.00
  -22   14   11     -2.49      0.00
  -20   14   11      3.09      0.00
  -18   14   11      5.50      0.00
  -16   14   11      1.94      0.00
  -14   14   11     -6.47      0.00
  -12   14   11     -3.01      0.00
  -10   14   11      1.47      0.00
   -8   14   11      0.24      0.00
   -6   14   11     -4.51      0.00
   -4   14   11     -7.88      0.00
   -2   14   11     -4.42      0.00
    0   14   11     -2.75      0.00
    2   14   11      0.66      0.00
    4   14   11     -2.09      0.00
    6   14   11      2.07      0.00
    8   14   11      0.87      0.00
   10   14   11     -1.35      0.00
   12   14   11      4.71      0.00
   14   14   11      4.87      0.00
   16   14   11      3.74      0.00
  -29   15   11      0.80      0.00
  -27   15   11     -2.08      0.00
  -25   15   11     -0.20      0.00
  -23   15   11      1.27      0.00
  -21   15   11      0.46      0.00
  -19   15   11     -6.07      0.00
  -17   15   11     -5.96      0.00
  -15   15   11      1.73      0.00
  -13   15   11      3.71      0.00
  -11   15   11      3.26      0.00
   -9   15   11      0.87      0.00
   -7   15   11      2.53      0.00
   -5   15   11      5.50      0.00
   -3   15   11      9.25      0.00
   -1   15   11      5.90      0.00
    1   15   11      1.44      0.00
    3   15   11      4.22      0.00
    5   15   11      2.34      0.00
    7   15   11     -0.17      0.00
    9   15   11      3.45      0.00
   11   15   11     -2.60      0.00
   13   15   11     -9.12      0.00
   15   15   11     -5.78      0.00
  -28   16   11      1.13      0.00
  -26   16   11      0.86      0.00
  -24   16   11      1.30      0.00
  -22   16   11     -1.79      0.00
  -20   16   11      4.09      0.00
  -18   16   11      5.46      0.00
  -16   16   11      2.57      0.00
  -14   16   11     -2.06      0.00
  -12   16   11     -2.76      0.00
  -10   16   11     -4.51      0.00
   -8   16   11     -2.08      0.00
   -6   16   11     -2.33      0.00
   -4   16   11     -9.16      0.00
   -2   16   11     -9.44      0.00
    0   16   11     -3.64      0.00
    2   16   11     -4.11      0.00
    4   16   11     -5.26      0.00
    6   16   11     -0.93      0.00
    8   16   11     -3.46      0.00
   10   16   11     -1.43      0.00
   12   16   11      7.38      0.00
   14   16   11      9.00      0.00
  -27   17   11     -1.01      0.00
  -25   17   11     -1.13      0.00
  -23   17   11     -1.51      0.00
  -21   17   11     -0.15      0.00
  -19   17   11     -6.31      0.00
  -17   17   11     -1.91      0.00
  -15   17   11     -0.89      0.00
  -13   17   11      1.47      0.00
  -11   17   11      4.20      0.00
   -9   17   11      2.68      0.00
   -7   17   11     -0.35      0.00
   -5   17   11      3.95      0.00
   -3   17   11     10.94      0.00
   -1   17   11      4.76      0.00
    1   17   11      5.02      0.00
    3   17   11      5.20      0.00
    5   17   11      0.96      0.00
    7   17   11      1.79      0.00
    9   17   11      2.44      0.00
   11   17   11     -2.97      0.00
   13   17   11     -7.72      0.00
  -24   18   11      2.18      0.00
  -22   18   11      0.29      0.00
  -20   18   11      4.51      0.00
  -18   18   11      3.77      0.00
  -16   18   11      1.12      0.00
  -14   18   11      0.03      0.00
  -12   18   11     -2.52      0.00
  -10   18   11     -2.53      0.00
   -8   18   11      2.63      0.00
   -6   18   11      1.73      0.00
   -4   18   11     -5.81      0.00
   -2   18   11     -5.98      0.00
    0   18   11     -2.65      0.00
    2   18   11     -6.83      0.00
    4   18   11      0.52      0.00
    6   18   11      0.97      0.00
    8   18   11     -2.26      0.00
   10   18   11      1.78      0.00
   12   18   11      3.37      0.00
  -23   19   11     -1.82      0.00
  -21   19   11     -1.55      0.00
  -19   19   11     -6.46      0.00
  -17   19   11     -1.40      0.00
  -15   19   11     -1.86      0.00
  -13   19   11      1.82      0.00
  -11   19   11      0.80      0.00
   -9   19   11     -2.91      0.00
   -7   19   11     -4.40      0.00
   -5   19   11     -1.03      0.00
   -3   19   11      4.63      0.00
   -1   19   11     -0.71      0.00
    1   19   11      4.04      0.00
    3   19   11      1.17      0.00
    5   19   11     -4.16      0.00
    7   19   11      0.89      0.00
  -20   20   11      4.18      0.00
  -18   20   11      4.42      0.00
  -16   20   11      2.00      0.00
  -14   20   11     -0.30      0.00
  -12   20   11      0.85      0.00
  -10   20   11      2.93      0.00
   -8   20   11      4.31      0.00
   -6   20   11      1.31      0.00
   -4   20   11     -0.26      0.00
   -2   20   11     -0.56      0.00
    0   20   11      4.11      0.00
    2   20   11     -1.50      0.00
    4   20   11      4.35      0.00
    6   20   11      1.40      0.00
  -17   21   11     -2.53      0.00
  -15   21   11     -0.72      0.00
  -13   21   11     -1.01      0.00
  -11   21   11     -4.51      0.00
   -9   21   11     -3.40      0.00
   -7   21   11      1.15      0.00
   -5   21   11      0.58      0.00
   -3   21   11      1.74      0.00
   -1   21   11     -4.94      0.00
    1   21   11     -4.49      0.00
    3   21   11     -2.57      0.00
  -12   22   11      5.19      0.00
  -10   22   11      2.88      0.00
   -8   22   11     -0.67      0.00
   -6   22   11     -3.73      0.00
  -36    0   12     -4.07      0.00
  -34    0   12     -3.68      0.00
  -32    0   12     -8.07      0.00
  -30    0   12     -6.62      0.00
  -28    0   12    -10.60      0.00
  -26    0   12     -3.90      0.00
  -24    0   12     -3.98      0.00
  -22    0   12    -11.78      0.00
  -20    0   12      2.34      0.00
  -18    0   12     21.29      0.00
  -16    0   12     18.95      0.00
  -14    0   12     18.68      0.00
  -12    0   12     25.06      0.00
  -10    0   12     16.09      0.00
   -8    0   12     12.01      0.00
   -6    0   12     28.67      0.00
   -4    0   12     22.05      0.00
   -2    0   12    -10.83      0.00
    0    0   12    -13.41      0.00
    2    0   12    -12.64      0.00
    4    0   12    -23.30      0.00
    6    0   12    -15.69      0.00
    8    0   12     -9.85      0.00
   10    0   12    -11.89      0.00
   12    0   12     -1.13      0.00
   14    0   12     -0.95      0.00
   16    0   12     -4.15      0.00
   18    0   12     -5.54      0.00
   20    0   12     -0.01      0.00
   22    0   12      4.50      0.00
  -37    1   12     -1.78      0.00
  -35    1   12      4.23      0.00
  -33    1   12      4.60      0.00
  -31    1   12      7.13      0.00
  -29    1   12      8.53      0.00
  -27    1   12      6.72      0.00
  -25    1   12      0.71      0.00
  -23    1   12      7.45      0.00
  -21    1   12      7.31      0.00
  -19    1   12    -13.35      0.00
  -17    1   12    -21.52      0.00
  -15    1   12    -15.32      0.00
  -13    1   12    -21.75      0.00
  -11    1   12    -17.17      0.00
   -9    1   12    -10.87      0.00
   -7    1   12    -16.33      0.00
   -5    1   12    -30.37      0.00
   -3    1   12     -2.19      0.00
   -1    1   12     15.12      0.00
    1    1   12     10.29      0.00
    3    1   12     17.28      0.00
    5    1   12     19.96      0.00
    7    1   12      9.83      0.00
    9    1   12     11.10      0.00
   11    1   12      5.81      0.00
   13    1   12     -0.24      0.00
   15    1   12      2.40      0.00
   17    1   12      5.33      0.00
   19    1   12      2.43      0.00
   21    1   12     -2.08      0.00
  -36    2   12     -0.62      0.00
  -34    2   12     -1.54      0.00
  -32    2   12     -4.90      0.00
  -30    2   12     -5.85      0.00
  -28    2   12     -6.86      0.00
  -26    2   12      0.66      0.00
  -24    2   12     -0.09      0.00
  -22    2   12     -7.99      0.00
  -20    2   12      2.79      0.00
  -18    2   12     17.00      0.00
  -16    2   12     16.54      0.00
  -14    2   12     13.64      0.00
  -12    2   12     13.03      0.00
  -10    2   12      5.09      0.00
   -8    2   12      6.85      0.00
   -6    2   12     20.32      0.00
   -4    2   12     14.02      0.00
   -2    2   12    -11.58      0.00
    0    2   12    -11.80      0.00
    2    2   12     -9.08      0.00
    4    2   12    -16.17      0.00
    6    2   12    -10.73      0.00
    8    2   12     -7.04      0.00
   10    2   12     -7.03      0.00
   12    2   12     -0.55      0.00
   14    2   12     -1.41      0.00
   16    2   12     -3.17      0.00
   18    2   12     -2.70      0.00
   20    2   12     -0.17      0.00
   22    2   12      1.02      0.00
  -37    3   12     -1.53      0.00
  -35    3   12     -0.59      0.00
  -33    3   12      0.80      0.00
  -31    3   12      2.23      0.00
  -29    3   12      4.76      0.00
  -27    3   12     -0.80      0.00
  -25    3   12     -3.34      0.00
  -23    3   12      0.82      0.00
  -21    3   12      4.72      0.00
  -19    3   12     -8.96      0.00
  -17    3   12    -13.10      0.00
  -15    3   12    -12.36      0.00
  -13    3   12     -4.69      0.00
  -11    3   12      2.32      0.00
   -9    3   12      3.71      0.00
   -7    3   12     -6.39      0.00
   -5    3   12    -10.74      0.00
   -3    3   12      4.51      0.00
   -1    3   12     13.87      0.00
    1    3   12      5.61      0.00
    3    3   12      8.29      0.00
    5    3   12      6.59      0.00
    7    3   12      4.16      0.00
    9    3   12      2.11      0.00
   11    3   12      1.92      0.00
   13    3   12      0.70      0.00
   15    3   12      1.99      0.00
   17    3   12      1.14      0.00
   19    3   12     -0.27      0.00
   21    3   12      2.09      0.00
  -38    4   12     -0.96      0.00
  -36    4   12      2.10      0.00
  -34    4   12      0.44      0.00
  -32    4   12      1.72      0.00
  -30    4   12     -0.68      0.00
  -28    4   12      1.19      0.00
  -26    4   12      4.12      0.00
  -24    4   12      3.84      0.00
  -22    4   12     -2.39      0.00
  -20    4   12     -0.31      0.00
  -18    4   12      5.38      0.00
  -16    4   12     10.51      0.00
  -14    4   12      2.60      0.00
  -12    4   12     -9.64      0.00
  -10    4   12    -14.25      0.00
   -8    4   12     -5.50      0.00
   -6    4   12     -0.24      0.00
   -4    4   12     -4.91      0.00
   -2    4   12    -12.61      0.00
    0    4   12     -8.19      0.00
    2    4   12     -3.39      0.00
    4    4   12     -1.27      0.00
    6    4   12      0.99      0.00
    8    4   12      2.13      0.00
   10    4   12      2.12      0.00
   12    4   12     -1.17      0.00
   14    4   12     -1.33      0.00
   16    4   12      0.10      0.00
   18    4   12      1.43      0.00
   20    4   12     -1.16      0.00
   22    4   12     -4.55      0.00
  -37    5   12     -1.06      0.00
  -35    5   12      0.29      0.00
  -33    5   12     -2.52      0.00
  -31    5   12     -2.07      0.00
  -29    5   12     -3.27      0.00
  -27    5   12     -4.95      0.00
  -25    5   12     -4.84      0.00
  -23    5   12     -3.37      0.00
  -21    5   12      2.44      0.00
  -19    5   12      2.15      0.00
  -17    5   12     -1.02      0.00
  -15    5   12     -5.97      0.00
  -13    5   12     12.34      0.00
  -11    5   12     20.11      0.00
   -9    5   12     17.11      0.00
   -7    5   12      6.55      0.00
   -5    5   12     12.43      0.00
   -3    5   12     11.53      0.00
   -1    5   12     11.32      0.00
    1    5   12      4.59      0.00
    3    5   12      1.16      0.00
    5    5   12     -6.28      0.00
    7    5   12     -4.16      0.00
    9    5   12     -6.99      0.00
   11    5   12     -1.25      0.00
   13    5   12      0.89      0.00
   15    5   12     -0.34      0.00
   17    5   12     -1.98      0.00
   19    5   12     -0.96      0.00
   21    5   12      3.72      0.00
  -36    6   12     -0.20      0.00
  -34    6   12     -0.34      0.00
  -32    6   12      3.20      0.00
  -30    6   12      2.52      0.00
  -28    6   12      7.23      0.00
  -26    6   12      6.05      0.00
  -24    6   12      5.85      0.00
  -22    6   12      2.54      0.00
  -20    6   12     -2.99      0.00
  -18    6   12     -7.78      0.00
  -16    6   12      0.67      0.00
  -14    6   12     -4.97      0.00
  -12    6   12    -21.53      0.00
  -10    6   12    -22.79      0.00
   -8    6   12    -12.41      0.00
   -6    6   12    -13.37      0.00
   -4    6   12    -15.59      0.00
   -2    6   12    -10.05      0.00
    0    6   12     -8.36      0.00
    2    6   12     -5.12      0.00
    4    6   12      4.55      0.00
    6    6   12      7.13      0.00
    8    6   12      6.32      0.00
   10    6   12      5.38      0.00
   12    6   12      0.14      0.00
   14    6   12      0.93      0.00
   16    6   12      1.64      0.00
   18    6   12      2.09      0.00
   20    6   12     -0.59      0.00
   22    6   12     -2.68      0.00
  -37    7   12     -0.28      0.00
  -35    7   12      2.34      0.00
  -33    7   12     -2.85      0.00
  -31    7   12     -0.40      0.00
  -29    7   12     -7.08      0.00
  -27    7   12     -7.39      0.00
  -25    7   12     -8.06      0.00
  -23    7   12     -4.26      0.00
  -21    7   12     -3.77      0.00
  -19    7   12      6.65      0.00
  -17    7   12      8.41      0.00
  -15    7   12      1.33      0.00
  -13    7   12     13.47      0.00
  -11    7   12     21.75      0.00
   -9    7   12     16.88      0.00
   -7    7   12     10.15      0.00
   -5    7   12     15.96      0.00
   -3    7   12      9.92      0.00
   -1    7   12      7.32      0.00
    1    7   12      8.78      0.00
    3    7   12      1.64      0.00
    5    7   12     -6.25      0.00
    7    7   12     -6.50      0.00
    9    7   12     -3.75      0.00
   11    7   12     -2.44      0.00
   13    7   12     -0.54      0.00
   15    7   12     -2.06      0.00
   17    7   12     -2.36      0.00
   19    7   12     -1.87      0.00
   21    7   12      0.53      0.00
  -36    8   12     -1.24      0.00
  -34    8   12     -0.14      0.00
  -32    8   12      2.33      0.00
  -30    8   12      3.34      0.00
  -28    8   12      8.29      0.00
  -26    8   12      7.80      0.00
  -24    8   12      5.17      0.00
  -22    8   12      5.16      0.00
  -20    8   12      3.33      0.00
  -18    8   12     -7.80      0.00
  -16    8   12     -5.54      0.00
  -14    8   12     -3.99      0.00
  -12    8   12    -13.99      0.00
  -10    8   12    -15.08      0.00
   -8    8   12     -9.07      0.00
   -6    8   12     -9.37      0.00
   -4    8   12    -10.03      0.00
   -2    8   12     -5.29      0.00
    0    8   12     -7.06      0.00
    2    8   12     -6.21      0.00
    4    8   12      0.79      0.00
    6    8   12      6.96      0.00
    8    8   12      2.09      0.00
   10    8   12      1.18      0.00
   12    8   12     -0.15      0.00
   14    8   12      1.44      0.00
   16    8   12      2.18      0.00
   18    8   12      3.79      0.00
   20    8   12      1.51      0.00
  -35    9   12      2.23      0.00
  -33    9   12     -2.48      0.00
  -31    9   12     -3.36      0.00
  -29    9   12     -7.46      0.00
  -27    9   12     -5.09      0.00
  -25    9   12     -5.49      0.00
  -23    9   12     -2.12      0.00
  -21    9   12     -7.52      0.00
  -19    9   12     -1.51      0.00
  -17    9   12      5.21      0.00
  -15    9   12      2.29      0.00
  -13    9   12      3.76      0.00
  -11    9   12      9.03      0.00
   -9    9   12      5.63      0.00
   -7    9   12      4.21      0.00
   -5    9   12      3.26      0.00
   -3    9   12      6.62      0.00
   -1    9   12      2.67      0.00
    1    9   12      6.85      0.00
    3    9   12      2.78      0.00
    5    9   12     -0.97      0.00
    7    9   12     -5.16      0.00
    9    9   12      2.93      0.00
   11    9   12      0.24      0.00
   13    9   12      1.54      0.00
   15    9   12     -0.90      0.00
   17    9   12     -3.52      0.00
   19    9   12     -3.83      0.00
  -34   10   12     -1.80      0.00
  -32   10   12      4.77      0.00
  -30   10   12      7.15      0.00
  -28   10   12      3.83      0.00
  -26   10   12      1.73      0.00
  -24   10   12      1.44      0.00
  -22   10   12      3.61      0.00
  -20   10   12      6.33      0.00
  -18   10   12      0.48      0.00
  -16   10   12     -1.20      0.00
  -14   10   12      0.82      0.00
  -12   10   12     -1.16      0.00
  -10   10   12     -1.83      0.00
   -8   10   12      1.07      0.00
   -6   10   12      2.46      0.00
   -4   10   12     -0.90      0.00
   -2   10   12     -4.15      0.00
    0   10   12     -2.41      0.00
    2   10   12     -4.42      0.00
    4   10   12     -5.04      0.00
    6   10   12      2.69      0.00
    8   10   12     -2.51      0.00
   10   10   12     -2.88      0.00
   12   10   12     -3.34      0.00
   14   10   12     -2.08      0.00
   16   10   12      0.03      0.00
   18   10   12      4.32      0.00
  -33   11   12     -0.89      0.00
  -31   11   12     -7.40      0.00
  -29   11   12     -4.46      0.00
  -27   11   12      1.75      0.00
  -25   11   12      0.47      0.00
  -23   11   12     -1.42      0.00
  -21   11   12     -3.20      0.00
  -19   11   12     -3.23      0.00
  -17   11   12     -0.56      0.00
  -15   11   12     -3.02      0.00
  -13   11   12     -3.70      0.00
  -11   11   12     -2.17      0.00
   -9   11   12     -4.85      0.00
   -7   11   12     -4.68      0.00
   -5   11   12     -7.07      0.00
   -3   11   12      2.65      0.00
   -1   11   12     -0.38      0.00
    1   11   12      2.77      0.00
    3   11   12      5.44      0.00
    5   11   12      5.35      0.00
    7   11   12      0.83      0.00
    9   11   12      5.87      0.00
   11   11   12      5.23      0.00
   13   11   12      4.91      0.00
   15   11   12      4.24      0.00
   17   11   12     -1.38      0.00
   19   11   12     -2.70      0.00
  -32   12   12      4.03      0.00
  -30   12   12      5.50      0.00
  -28   12   12     -2.34      0.00
  -26   12   12     -3.00      0.00
  -24   12   12     -0.53      0.00
  -22   12   12      1.59      0.00
  -20   12   12      0.72      0.00
  -18   12   12      0.66      0.00
  -16   12   12      2.99      0.00
  -14   12   12      5.38      0.00
  -12   12   12      6.84      0.00
  -10   12   12      5.76      0.00
   -8   12   12      7.44      0.00
   -6   12   12      6.14      0.00
   -4   12   12      5.78      0.00
   -2   12   12      0.34      0.00
    0   12   12      2.26      0.00
    2   12   12     -2.28      0.00
    4   12   12     -7.39      0.00
    6   12   12     -3.57      0.00
    8   12   12     -5.00      0.00
   10   12   12     -7.81      0.00
   12   12   12     -8.76      0.00
   14   12   12     -6.45      0.00
   16   12   12     -2.84      0.00
   18   12   12      1.45      0.00
  -31   13   12     -4.06      0.00
  -29   13   12      0.16      0.00
  -27   13   12      4.38      0.00
  -25   13   12      2.68      0.00
  -23   13   12     -0.47      0.00
  -21   13   12     -0.03      0.00
  -19   13   12     -0.22      0.00
  -17   13   12     -0.44      0.00
  -15   13   12     -4.44      0.00
  -13   13   12     -7.07      0.00
  -11   13   12     -9.02      0.00
   -9   13   12     -7.94      0.00
   -7   13   12     -4.64      0.00
   -5   13   12     -6.11      0.00
   -3   13   12     -4.45      0.00
   -1   13   12     -3.63      0.00
    1   13   12     -3.30      0.00
    3   13   12      2.72      0.00
    5   13   12      5.18      0.00
    7   13   12      2.82      0.00
    9   13   12      6.72      0.00
   11   13   12     11.44      0.00
   13   13   12      9.81      0.00
   15   13   12      4.52      0.00
   17   13   12      0.54      0.00
  -30   14   12      2.20      0.00
  -28   14   12     -3.25      0.00
  -26   14   12     -3.26      0.00
  -24   14   12     -2.46      0.00
  -22   14   12      1.51      0.00
  -20   14   12      0.39      0.00
  -18   14   12      1.26      0.00
  -16   14   12     -0.01      0.00
  -14   14   12      3.47      0.00
  -12   14   12      8.10      0.00
  -10   14   12      8.58      0.00
   -8   14   12      5.31      0.00
   -6   14   12      1.24      0.00
   -4   14   12      5.69      0.00
   -2   14   12      2.35      0.00
    0   14   12      5.64      0.00
    2   14   12      2.43      0.00
    4   14   12     -2.63      0.00
    6   14   12     -1.66      0.00
    8   14   12     -2.67      0.00
   10   14   12     -8.36      0.00
   12   14   12    -11.99      0.00
   14   14   12     -6.39      0.00
   16   14   12     -1.09      0.00
  -29   15   12     -0.75      0.00
  -27   15   12      2.89      0.00
  -25   15   12      2.92      0.00
  -23   15   12      0.09      0.00
  -21   15   12     -2.15      0.00
  -19   15   12     -2.64      0.00
  -17   15   12      0.87      0.00
  -15   15   12      1.94      0.00
  -13   15   12     -1.48      0.00
  -11   15   12     -5.86      0.00
   -9   15   12     -3.97      0.00
   -7   15   12     -0.29      0.00
   -5   15   12     -0.46      0.00
   -3   15   12     -1.70      0.00
   -1   15   12     -1.17      0.00
    1   15   12     -5.16      0.00
    3   15   12      1.86      0.00
    5   15   12      0.98      0.00
    7   15   12      0.02      0.00
    9   15   12      3.51      0.00
   11   15   12      6.72      0.00
   13   15   12      9.04      0.00
  -28   16   12     -0.21      0.00
  -26   16   12     -1.75      0.00
  -24   16   12     -1.47      0.00
  -22   16   12      2.22      0.00
  -20   16   12      2.00      0.00
  -18   16   12      1.30      0.00
  -16   16   12     -5.42      0.00
  -14   16   12     -3.03      0.00
  -12   16   12     -2.57      0.00
  -10   16   12     -0.39      0.00
   -8   16   12     -1.73      0.00
   -6   16   12     -3.04      0.00
   -4   16   12     -0.80      0.00
   -2   16   12     -3.21      0.00
    0   16   12      2.89      0.00
    2   16   12     -1.91      0.00
    4   16   12     -3.72      0.00
    6   16   12      0.69      0.00
    8   16   12     -1.34      0.00
   10   16   12     -1.05      0.00
   12   16   12     -5.31      0.00
   14   16   12     -3.10      0.00
  -25   17   12      0.14      0.00
  -23   17   12      0.11      0.00
  -21   17   12     -1.50      0.00
  -19   17   12     -0.13      0.00
  -17   17   12      4.52      0.00
  -15   17   12      5.11      0.00
  -13   17   12      6.03      0.00
  -11   17   12      7.31      0.00
   -9   17   12      5.92      0.00
   -7   17   12      4.36      0.00
   -5   17   12      4.30      0.00
   -3   17   12      2.96      0.00
   -1   17   12      2.91      0.00
    1   17   12     -0.40      0.00
    3   17   12      7.14      0.00
    5   17   12      0.61      0.00
    7   17   12      0.32      0.00
    9   17   12      0.39      0.00
   11   17   12      0.07      0.00
  -24   18   12     -0.34      0.00
  -22   18   12     -0.67      0.00
  -20   18   12     -0.68      0.00
  -18   18   12     -4.03      0.00
  -16   18   12     -5.53      0.00
  -14   18   12     -3.61      0.00
  -12   18   12     -9.51      0.00
  -10   18   12     -8.36      0.00
   -8   18   12     -4.80      0.00
   -6   18   12     -4.94      0.00
   -4   18   12     -2.27      0.00
   -2   18   12     -4.15      0.00
    0   18   12     -1.14      0.00
    2   18   12     -3.42      0.00
    4   18   12     -2.84      0.00
    6   18   12      1.19      0.00
    8   18   12     -0.67      0.00
   10   18   12      0.60      0.00
  -23   19   12      2.72      0.00
  -21   19   12      0.70      0.00
  -19   19   12      3.05      0.00
  -17   19   12      5.24      0.00
  -15   19   12      1.71      0.00
  -13   19   12      5.42      0.00
  -11   19   12      7.04      0.00
   -9   19   12      2.70      0.00
   -7   19   12      1.20      0.00
   -5   19   12      2.03      0.00
   -3   19   12      0.60      0.00
   -1   19   12      4.28      0.00
    1   19   12      0.27      0.00
    3   19   12     -0.09      0.00
    5   19   12     -2.26      0.00
    7   19   12     -0.22      0.00
  -18   20   12     -4.14      0.00
  -16   20   12     -1.60      0.00
  -14   20   12     -1.34      0.00
  -12   20   12     -3.38      0.00
  -10   20   12      0.59      0.00
   -8   20   12      3.50      0.00
   -6   20   12      1.25      0.00
   -4   20   12      1.68      0.00
   -2   20   12     -1.96      0.00
    0   20   12     -2.70      0.00
    2   20   12      3.39      0.00
    4   20   12      4.58      0.00
    6   20   12      1.19      0.00
  -17   21   12      2.47      0.00
  -15   21   12     -0.27      0.00
  -13   21   12      0.59      0.00
  -11   21   12     -2.57      0.00
   -9   21   12     -5.30      0.00
   -7   21   12     -3.76      0.00
   -5   21   12     -3.40      0.00
   -3   21   12     -0.59      0.00
   -1   21   12      1.58      0.00
    3   21   12     -6.62      0.00
  -12   22   12      2.86      0.00
   -8   22   12      2.24      0.00
   -6   22   12      3.05      0.00
  -37    1   13      3.03      0.00
  -35    1   13      1.66      0.00
  -33    1   13      2.47      0.00
  -31    1   13     -1.23      0.00
  -29    1   13      1.18      0.00
  -27    1   13      0.06      0.00
  -25    1   13      0.15      0.00
  -23    1   13     -0.83      0.00
  -21    1   13     -6.33      0.00
  -19    1   13     -8.60      0.00
  -17    1   13     -4.70      0.00
  -15    1   13     -7.08      0.00
  -13    1   13     -9.28      0.00
  -11    1   13     -3.57      0.00
   -9    1   13     -1.37      0.00
   -7    1   13     -3.36      0.00
   -5    1   13      2.65      0.00
   -3    1   13      9.96      0.00
   -1    1   13      5.69      0.00
    1    1   13      6.32      0.00
    3    1   13      8.88      0.00
    5    1   13      4.29      0.00
    7    1   13      3.59      0.00
    9    1   13      3.58      0.00
   11    1   13     -1.33      0.00
   13    1   13     -0.95      0.00
   15    1   13     -0.31      0.00
   17    1   13      0.91      0.00
   19    1   13     -2.75      0.00
   21    1   13     -4.78      0.00
  -36    2   13     -3.89      0.00
  -34    2   13     -4.60      0.00
  -32    2   13     -1.53      0.00
  -30    2   13      0.22      0.00
  -28    2   13     -1.02      0.00
  -26    2   13      1.25      0.00
  -24    2   13     -0.64      0.00
  -22    2   13      6.08      0.00
  -20    2   13     14.76      0.00
  -18    2   13     12.51      0.00
  -16    2   13      7.39      0.00
  -14    2   13     17.11      0.00
  -12    2   13      9.70      0.00
  -10    2   13      4.53      0.00
   -8    2   13      4.27      0.00
   -6    2   13      5.58      0.00
   -4    2   13    -14.52      0.00
   -2    2   13    -14.24      0.00
    0    2   13     -9.23      0.00
    2    2   13    -14.53      0.00
    4    2   13    -13.05      0.00
    6    2   13     -5.40      0.00
    8    2   13     -8.03      0.00
   10    2   13     -0.15      0.00
   12    2   13      2.61      0.00
   14    2   13      1.94      0.00
   16    2   13     -0.53      0.00
   18    2   13      2.03      0.00
   20    2   13      7.73      0.00
  -37    3   13      3.93      0.00
  -35    3   13      4.15      0.00
  -33    3   13      6.55      0.00
  -31    3   13     -0.40      0.00
  -29    3   13      1.63      0.00
  -27    3   13     -2.62      0.00
  -25    3   13     -0.37      0.00
  -23    3   13     -1.35      0.00
  -21    3   13    -14.44      0.00
  -19    3   13    -18.97      0.00
  -17    3   13    -10.60      0.00
  -15    3   13    -14.03      0.00
  -13    3   13    -17.45      0.00
  -11    3   13     -6.09      0.00
   -9    3   13     -5.72      0.00
   -7    3   13    -10.76      0.00
   -5    3   13      3.68      0.00
   -3    3   13     21.23      0.00
   -1    3   13     12.27      0.00
    1    3   13     13.02      0.00
    3    3   13     19.26      0.00
    5    3   13     10.34      0.00
    7    3   13      8.39      0.00
    9    3   13      5.46      0.00
   11    3   13     -4.12      0.00
   13    3   13     -2.02      0.00
   15    3   13     -2.58      0.00
   17    3   13     -1.32      0.00
   19    3   13     -6.59      0.00
   21    3   13     -9.61      0.00
  -38    4   13     -1.13      0.00
  -36    4   13     -2.61      0.00
  -34    4   13     -7.29      0.00
  -32    4   13     -2.39      0.00
  -30    4   13     -1.74      0.00
  -28    4   13      2.14      0.00
  -26    4   13      2.18      0.00
  -24    4   13      0.05      0.00
  -22    4   13      5.96      0.00
  -20    4   13     20.67      0.00
  -18    4   13     16.09      0.00
  -16    4   13     10.04      0.00
  -14    4   13     16.58      0.00
  -12    4   13      8.62      0.00
  -10    4   13      5.04      0.00
   -8    4   13     10.00      0.00
   -6    4   13      9.52      0.00
   -4    4   13    -15.43      0.00
   -2    4   13    -16.53      0.00
    0    4   13     -8.19      0.00
    2    4   13    -16.15      0.00
    4    4   13    -14.81      0.00
    6    4   13     -8.33      0.00
    8    4   13     -7.79      0.00
   10    4   13      0.49      0.00
   12    4   13      1.99      0.00
   14    4   13      2.78      0.00
   16    4   13      2.98      0.00
   18    4   13      4.53      0.00
   20    4   13      6.68      0.00
  -37    5   13      1.07      0.00
  -35    5   13      3.92      0.00
  -33    5   13      5.11      0.00
  -31    5   13      0.43      0.00
  -29    5   13      0.64      0.00
  -27    5   13     -3.03      0.00
  -25    5   13     -1.18      0.00
  -23    5   13      0.77      0.00
  -21    5   13    -11.86      0.00
  -19    5   13    -18.62      0.00
  -17    5   13    -12.12      0.00
  -15    5   13     -8.91      0.00
  -13    5   13     -9.67      0.00
  -11    5   13     -1.80      0.00
   -9    5   13     -7.47      0.00
   -7    5   13    -12.31      0.00
   -5    5   13      1.41      0.00
   -3    5   13     15.85      0.00
   -1    5   13      6.70      0.00
    1    5   13      6.37      0.00
    3    5   13     12.75      0.00
    5    5   13      8.52      0.00
    7    5   13      6.34      0.00
    9    5   13      3.41      0.00
   11    5   13     -0.12      0.00
   13    5   13      0.83      0.00
   15    5   13     -3.64      0.00
   17    5   13     -2.83      0.00
   19    5   13     -2.97      0.00
   21    5   13     -3.32      0.00
  -36    6   13     -1.01      0.00
  -34    6   13     -4.63      0.00
  -32    6   13     -0.50      0.00
  -30    6   13     -1.35      0.00
  -28    6   13      2.00      0.00
  -26    6   13      0.82      0.00
  -24    6   13      0.07      0.00
  -22    6   13     -1.88      0.00
  -20    6   13     12.48      0.00
  -18    6   13     12.58      0.00
  -16    6   13      7.44      0.00
  -14    6   13      3.00      0.00
  -12    6   13      0.68      0.00
  -10    6   13      1.62      0.00
   -8    6   13     10.81      0.00
   -6    6   13      5.43      0.00
   -4    6   13     -6.89      0.00
   -2    6   13     -8.64      0.00
    0    6   13      1.00      0.00
    2    6   13     -5.51      0.00
    4    6   13     -4.73      0.00
    6    6   13     -5.98      0.00
    8    6   13     -1.56      0.00
   10    6   13     -2.54      0.00
   12    6   13     -3.69      0.00
   14    6   13     -0.43      0.00
   16    6   13      1.26      0.00
   18    6   13      0.54      0.00
   20    6   13     -1.47      0.00
  -37    7   13      0.56      0.00
  -35    7   13      1.80      0.00
  -33    7   13      2.54      0.00
  -31    7   13      0.91      0.00
  -29    7   13     -0.39      0.00
  -27    7   13     -0.72      0.00
  -25    7   13     -0.55      0.00
  -23    7   13      5.81      0.00
  -21    7   13      1.95      0.00
  -19    7   13     -6.47      0.00
  -17    7   13     -7.68      0.00
  -15    7   13      0.84      0.00
  -13    7   13      3.84      0.00
  -11    7   13      3.12      0.00
   -9    7   13     -6.19      0.00
   -7    7   13     -7.61      0.00
   -5    7   13      0.46      0.00
   -3    7   13      4.39      0.00
   -1    7   13      0.34      0.00
    1    7   13     -2.58      0.00
    3    7   13     -0.49      0.00
    5    7   13      2.78      0.00
    7    7   13      1.17      0.00
    9    7   13      0.19      0.00
   11    7   13      4.05      0.00
   13    7   13      4.67      0.00
   15    7   13      1.00      0.00
   17    7   13      2.06      0.00
   19    7   13      2.91      0.00
   21    7   13      2.91      0.00
  -36    8   13      0.20      0.00
  -34    8   13     -2.08      0.00
  -32    8   13     -3.39      0.00
  -30    8   13     -0.89      0.00
  -28    8   13      1.01      0.00
  -26    8   13     -0.53      0.00
  -24    8   13     -3.96      0.00
  -22    8   13     -9.83      0.00
  -20    8   13     -4.27      0.00
  -18    8   13      2.21      0.00
  -16    8   13      1.03      0.00
  -14    8   13     -8.46      0.00
  -12    8   13     -6.93      0.00
  -10    8   13     -0.61      0.00
   -8    8   13      8.47      0.00
   -6    8   13      1.34      0.00
   -4    8   13      2.77      0.00
   -2    8   13     -0.76      0.00
    0    8   13      5.60      0.00
    2    8   13      4.66      0.00
    4    8   13      4.25      0.00
    6    8   13     -2.32      0.00
    8    8   13      2.39      0.00
   10    8   13     -1.23      0.00
   12    8   13     -4.99      0.00
   14    8   13     -2.58      0.00
   16    8   13     -3.25      0.00
   18    8   13     -3.33      0.00
   20    8   13     -4.09      0.00
  -35    9   13     -0.16      0.00
  -33    9   13      3.97      0.00
  -31    9   13      3.89      0.00
  -29    9   13     -0.53      0.00
  -27    9   13      0.78      0.00
  -25    9   13      3.41      0.00
  -23    9   13      8.93      0.00
  -21    9   13      9.72      0.00
  -19    9   13      5.26      0.00
  -17    9   13     -0.29      0.00
  -15    9   13      6.07      0.00
  -13    9   13     11.68      0.00
  -11    9   13      4.54      0.00
   -9    9   13     -4.08      0.00
   -7    9   13     -5.58      0.00
   -5    9   13     -2.95      0.00
   -3    9   13     -5.87      0.00
   -1    9   13     -4.36      0.00
    1    9   13     -8.32      0.00
    3    9   13     -8.75      0.00
    5    9   13     -2.36      0.00
    7    9   13     -0.82      0.00
    9    9   13     -2.47      0.00
   11    9   13      2.37      0.00
   13    9   13      2.81      0.00
   15    9   13      1.55      0.00
   17    9   13      3.06      0.00
   19    9   13      3.65      0.00
  -34   10   13     -1.15      0.00
  -32   10   13     -4.70      0.00
  -30   10   13     -1.15      0.00
  -28   10   13     -0.98      0.00
  -26   10   13     -3.05      0.00
  -24   10   13     -6.73      0.00
  -22   10   13     -8.34      0.00
  -20   10   13     -7.83      0.00
  -18   10   13     -2.55      0.00
  -16   10   13     -1.85      0.00
  -14   10   13    -10.92      0.00
  -12   10   13     -8.99      0.00
  -10   10   13      0.78      0.00
   -8   10   13      6.91      0.00
   -6   10   13      4.17      0.00
   -4   10   13      6.54      0.00
   -2   10   13      6.50      0.00
    0   10   13      7.73      0.00
    2   10   13     10.27      0.00
    4   10   13      7.95      0.00
    6   10   13      1.95      0.00
    8   10   13      3.00      0.00
   10   10   13      2.40      0.00
   12   10   13     -2.73      0.00
   14   10   13      0.06      0.00
   16   10   13     -1.22      0.00
   18   10   13     -1.85      0.00
  -35   11   13      0.35      0.00
  -33   11   13      0.90      0.00
  -31   11   13      1.70      0.00
  -29   11   13      0.65      0.00
  -27   11   13      3.19      0.00
  -25   11   13      3.75      0.00
  -23   11   13      6.38      0.00
  -21   11   13      6.33      0.00
  -19   11   13      4.10      0.00
  -17   11   13     -0.84      0.00
  -15   11   13      4.42      0.00
  -13   11   13     11.76      0.00
  -11   11   13      2.24      0.00
   -9   11   13     -5.81      0.00
   -7   11   13     -8.07      0.00
   -5   11   13     -3.72      0.00
   -3   11   13     -5.87      0.00
   -1   11   13     -5.04      0.00
    1   11   13     -7.36      0.00
    3   11   13     -8.48      0.00
    5   11   13     -5.31      0.00
    7   11   13     -2.61      0.00
    9   11   13     -5.93      0.00
   11   11   13     -0.40      0.00
   13   11   13      1.40      0.00
   15   11   13      0.13      0.00
   17   11   13     -0.20      0.00
  -32   12   13      1.17      0.00
  -30   12   13      0.38      0.00
  -28   12   13     -2.41      0.00
  -26   12   13     -2.03      0.00
  -24   12   13     -2.74      0.00
  -22   12   13     -6.08      0.00
  -20   12   13     -4.75      0.00
  -18   12   13      0.68      0.00
  -16   12   13      3.17      0.00
  -14   12   13     -6.87      0.00
  -12   12   13     -7.50      0.00
  -10   12   13      4.35      0.00
   -8   12   13      8.51      0.00
   -6   12   13      6.86      0.00
   -4   12   13      0.82      0.00
   -2   12   13      2.63      0.00
    0   12   13      0.13      0.00
    2   12   13      4.67      0.00
    4   12   13      3.70      0.00
    6   12   13      3.27      0.00
    8   12   13      5.00      0.00
   10   12   13      5.01      0.00
   12   12   13     -1.51      0.00
   14   12   13     -2.29      0.00
   16   12   13      0.79      0.00
  -33   13   13     -3.87      0.00
  -31   13   13     -1.68      0.00
  -29   13   13      0.30      0.00
  -27   13   13      1.52      0.00
  -25   13   13     -0.29      0.00
  -23   13   13      3.81      0.00
  -21   13   13      6.55      0.00
  -19   13   13      2.04      0.00
  -17   13   13     -6.07      0.00
  -15   13   13     -2.70      0.00
  -13   13   13      5.76      0.00
  -11   13   13      1.05      0.00
   -9   13   13     -7.51      0.00
   -7   13   13     -7.93      0.00
   -5   13   13     -2.70      0.00
   -3   13   13      1.48      0.00
   -1   13   13      3.95      0.00
    1   13   13      2.01      0.00
    3   13   13      0.68      0.00
    5   13   13     -0.45      0.00
    7   13   13     -2.19      0.00
    9   13   13     -4.48      0.00
   11   13   13     -0.23      0.00
   13   13   13      3.55      0.00
   15   13   13      1.21      0.00
  -30   14   13      0.75      0.00
  -28   14   13     -0.33      0.00
  -26   14   13      0.25      0.00
  -24   14   13     -0.12      0.00
  -22   14   13     -6.01      0.00
  -20   14   13     -4.27      0.00
  -18   14   13      2.80      0.00
  -16   14   13      8.50      0.00
  -14   14   13      2.71      0.00
  -12   14   13     -1.31      0.00
  -10   14   13      4.22      0.00
   -8   14   13      5.94      0.00
   -6   14   13      5.84      0.00
   -4   14   13     -1.30      0.00
   -2   14   13     -4.60      0.00
    0   14   13     -6.27      0.00
    2   14   13     -2.42      0.00
    4   14   13     -5.22      0.00
    6   14   13     -0.72      0.00
    8   14   13      0.07      0.00
   10   14   13     -1.53      0.00
   12   14   13     -3.14      0.00
   14   14   13     -3.01      0.00
  -29   15   13     -0.19      0.00
  -27   15   13     -0.14      0.00
  -25   15   13      0.26      0.00
  -23   15   13      1.65      0.00
  -21   15   13      4.76      0.00
  -19   15   13     -0.80      0.00
  -17   15   13     -6.03      0.00
  -15   15   13     -8.23      0.00
  -13   15   13     -5.76      0.00
  -11   15   13     -3.41      0.00
   -9   15   13     -5.15      0.00
   -7   15   13     -4.14      0.00
   -5   15   13     -2.62      0.00
   -3   15   13      4.68      0.00
   -1   15   13      5.91      0.00
    1   15   13      2.53      0.00
    3   15   13      5.75      0.00
    5   15   13      5.20      0.00
    7   15   13      2.09      0.00
    9   15   13      5.25      0.00
   11   15   13      5.13      0.00
   13   15   13      3.29      0.00
  -26   16   13     -1.25      0.00
  -24   16   13      0.00      0.00
  -22   16   13     -2.65      0.00
  -20   16   13      0.63      0.00
  -18   16   13      3.27      0.00
  -16   16   13      6.27      0.00
  -14   16   13      9.43      0.00
  -12   16   13      8.12      0.00
  -10   16   13      5.11      0.00
   -8   16   13      3.99      0.00
   -6   16   13      3.59      0.00
   -4   16   13     -2.56      0.00
   -2   16   13     -5.77      0.00
    0   16   13     -2.51      0.00
    2   16   13     -3.05      0.00
    4   16   13     -7.16      0.00
    6   16   13     -2.68      0.00
    8   16   13     -5.84      0.00
   10   16   13     -6.66      0.00
   12   16   13     -5.30      0.00
  -25   17   13      1.53      0.00
  -23   17   13      0.00      0.00
  -21   17   13      1.91      0.00
  -19   17   13     -4.45      0.00
  -17   17   13     -2.02      0.00
  -15   17   13     -7.65      0.00
  -13   17   13     -9.32      0.00
  -11   17   13     -6.27      0.00
   -9   17   13     -4.08      0.00
   -7   17   13     -4.12      0.00
   -5   17   13     -1.01      0.00
   -3   17   13      5.75      0.00
   -1   17   13      2.54      0.00
    1   17   13      3.01      0.00
    3   17   13      5.98      0.00
    5   17   13      3.17      0.00
    7   17   13      3.36      0.00
    9   17   13      5.89      0.00
  -24   18   13     -0.32      0.00
  -22   18   13     -2.87      0.00
  -20   18   13      1.16      0.00
  -18   18   13      2.78      0.00
  -16   18   13      3.89      0.00
  -14   18   13      6.79      0.00
  -12   18   13      5.15      0.00
  -10   18   13      1.73      0.00
   -8   18   13      4.18      0.00
   -6   18   13      3.38      0.00
   -4   18   13     -1.14      0.00
   -2   18   13     -3.80      0.00
    0   18   13     -1.31      0.00
    2   18   13     -7.24      0.00
    4   18   13     -2.59      0.00
    6   18   13     -0.72      0.00
    8   18   13     -4.34      0.00
  -23   19   13      1.34      0.00
  -21   19   13      4.26      0.00
  -19   19   13     -2.95      0.00
  -17   19   13     -2.41      0.00
  -15   19   13     -5.49      0.00
  -13   19   13     -1.74      0.00
  -11   19   13      0.34      0.00
   -9   19   13     -0.99      0.00
   -7   19   13     -3.24      0.00
   -5   19   13     -3.98      0.00
   -3   19   13      1.87      0.00
   -1   19   13     -0.26      0.00
    1   19   13      4.56      0.00
    3   19   13      4.50      0.00
    5   19   13     -1.88      0.00
  -18   20   13      3.26      0.00
  -16   20   13      4.72      0.00
  -14   20   13      0.87      0.00
  -12   20   13     -1.24      0.00
  -10   20   13     -1.52      0.00
   -8   20   13      1.94      0.00
   -6   20   13      2.78      0.00
   -4   20   13      4.50      0.00
   -2   20   13     -1.65      0.00
    0   20   13      2.35      0.00
    2   20   13     -4.30      0.00
  -17   21   13     -4.14      0.00
  -13   21   13      1.62      0.00
  -11   21   13      0.48      0.00
   -9   21   13     -1.21      0.00
   -7   21   13     -0.15      0.00
   -5   21   13     -5.68      0.00
   -3   21   13     -0.44      0.00
  -36    0   14     -1.86      0.00
  -34    0   14     -0.14      0.00
  -32    0   14     -5.05      0.00
  -30    0   14     -0.67      0.00
  -28    0   14     -5.87      0.00
  -26    0   14     -4.21      0.00
  -24    0   14     -4.24      0.00
  -22    0   14    -16.13      0.00
  -20    0   14    -15.74      0.00
  -18    0   14     -4.18      0.00
  -16    0   14     -2.01      0.00
  -14    0   14      1.41      0.00
  -12    0   14     15.11      0.00
  -10    0   14      4.03      0.00
   -8    0   14     -0.46      0.00
   -6    0   14     22.02      0.00
   -4    0   14     31.72      0.00
   -2    0   14      8.56      0.00
    0    0   14      6.94      0.00
    2    0   14      9.07      0.00
    4    0   14     -0.09      0.00
    6    0   14      3.10      0.00
    8    0   14      2.99      0.00
   10    0   14     -4.37      0.00
   12    0   14     -1.02      0.00
   14    0   14     -1.77      0.00
   16    0   14      0.45      0.00
   18    0   14     -5.66      0.00
   20    0   14     -3.07      0.00
  -37    1   14      0.47      0.00
  -35    1   14     -0.08      0.00
  -33    1   14      2.07      0.00
  -31    1   14      2.37      0.00
  -29    1   14      2.79      0.00
  -27    1   14      5.22      0.00
  -25    1   14      2.42      0.00
  -23    1   14      8.25      0.00
  -21    1   14     17.62      0.00
  -19    1   14      9.29      0.00
  -17    1   14      0.93      0.00
  -15    1   14      2.09      0.00
  -13    1   14    -11.10      0.00
  -11    1   14     -9.18      0.00
   -9    1   14      1.21      0.00
   -7    1   14     -5.13      0.00
   -5    1   14    -31.20      0.00
   -3    1   14    -17.58      0.00
   -1    1   14     -4.62      0.00
    1    1   14     -8.10      0.00
    3    1   14     -4.19      0.00
    5    1   14      0.79      0.00
    7    1   14     -4.84      0.00
    9    1   14      2.62      0.00
   11    1   14      1.46      0.00
   13    1   14      2.02      0.00
   15    1   14     -0.42      0.00
   17    1   14      3.20      0.00
   19    1   14      3.79      0.00
  -38    2   14     -0.95      0.00
  -36    2   14      0.92      0.00
  -34    2   14      1.84      0.00
  -32    2   14     -1.82      0.00
  -30    2   14     -0.83      0.00
  -28    2   14     -3.72      0.00
  -26    2   14     -1.77      0.00
  -24    2   14     -1.46      0.00
  -22    2   14    -11.51      0.00
  -20    2   14    -11.68      0.00
  -18    2   14     -4.44      0.00
  -16    2   14      1.27      0.00
  -14    2   14      4.85      0.00
  -12    2   14     12.11      0.00
  -10    2   14     -1.04      0.00
   -8    2   14     -4.80      0.00
   -6    2   14     13.10      0.00
   -4    2   14     21.61      0.00
   -2    2   14      5.16      0.00
    0    2   14      2.69      0.00
    2    2   14      4.98      0.00
    4    2   14     -0.57      0.00
    6    2   14      1.29      0.00
    8    2   14      0.97      0.00
   10    2   14     -2.11      0.00
   12    2   14      0.98      0.00
   14    2   14     -1.41      0.00
   16    2   14     -0.75      0.00
   18    2   14     -2.52      0.00
   20    2   14     -0.16      0.00
  -37    3   14     -0.81      0.00
  -35    3   14     -3.05      0.00
  -33    3   14     -1.30      0.00
  -31    3   14     -0.13      0.00
  -29    3   14      1.30      0.00
  -27    3   14     -0.11      0.00
  -25    3   14     -0.53      0.00
  -23    3   14      1.28      0.00
  -21    3   14      9.61      0.00
  -19    3   14      5.67      0.00
  -17    3   14      0.82      0.00
  -15    3   14     -6.32      0.00
  -13    3   14     -9.27      0.00
  -11    3   14     -2.64      0.00
   -9    3   14      9.80      0.00
   -7    3   14      3.76      0.00
   -5    3   14     -9.85      0.00
   -3    3   14     -5.99      0.00
   -1    3   14      2.74      0.00
    1    3   14     -0.22      0.00
    3    3   14      0.30      0.00
    5    3   14      0.79      0.00
    7    3   14     -0.79      0.00
    9    3   14     -0.47      0.00
   11    3   14     -2.84      0.00
   13    3   14     -1.30      0.00
   15    3   14      0.35      0.00
   17    3   14      0.55      0.00
   19    3   14     -3.14      0.00
  -38    4   14     -1.05      0.00
  -36    4   14      2.30      0.00
  -34    4   14      2.52      0.00
  -32    4   14      1.23      0.00
  -30    4   14      0.38      0.00
  -28    4   14      2.13      0.00
  -26    4   14      1.84      0.00
  -24    4   14      3.96      0.00
  -22    4   14     -1.14      0.00
  -20    4   14     -3.35      0.00
  -18    4   14     -3.63      0.00
  -16    4   14      5.92      0.00
  -14    4   14      8.48      0.00
  -12    4   14      4.55      0.00
  -10    4   14     -9.57      0.00
   -8    4   14    -12.82      0.00
   -6    4   14     -5.29      0.00
   -4    4   14     -1.15      0.00
   -2    4   14     -5.10      0.00
    0    4   14     -6.82      0.00
    2    4   14     -3.20      0.00
    4    4   14     -2.11      0.00
    6    4   14     -0.71      0.00
    8    4   14      1.58      0.00
   10    4   14      4.66      0.00
   12    4   14      5.15      0.00
   14    4   14      2.21      0.00
   16    4   14      1.05      0.00
   18    4   14      4.68      0.00
   20    4   14      5.99      0.00
  -37    5   14     -0.44      0.00
  -35    5   14     -1.08      0.00
  -33    5   14     -2.34      0.00
  -31    5   14     -0.10      0.00
  -29    5   14     -2.82      0.00
  -27    5   14     -3.46      0.00
  -25    5   14     -4.37      0.00
  -23    5   14     -6.71      0.00
  -21    5   14     -2.89      0.00
  -19    5   14      0.23      0.00
  -17    5   14     -0.53      0.00
  -15    5   14     -9.70      0.00
  -13    5   14     -3.74      0.00
  -11    5   14      5.48      0.00
   -9    5   14     16.96      0.00
   -7    5   14     12.34      0.00
   -5    5   14     11.68      0.00
   -3    5   14      7.23      0.00
   -1    5   14     10.53      0.00
    1    5   14      7.18      0.00
    3    5   14      5.17      0.00
    5    5   14      1.46      0.00
    7    5   14      0.44      0.00
    9    5   14     -4.62      0.00
   11    5   14     -6.35      0.00
   13    5   14     -5.91      0.00
   15    5   14     -3.59      0.00
   17    5   14     -4.21      0.00
   19    5   14     -8.31      0.00
  -36    6   14     -0.71      0.00
  -34    6   14      1.42      0.00
  -32    6   14      1.09      0.00
  -30    6   14      0.43      0.00
  -28    6   14      3.66      0.00
  -26    6   14      3.98      0.00
  -24    6   14      7.93      0.00
  -22    6   14      9.23      0.00
  -20    6   14      6.85      0.00
  -18    6   14      0.62      0.00
  -16    6   14      5.32      0.00
  -14    6   14      5.84      0.00
  -12    6   14     -3.99      0.00
  -10    6   14    -13.85      0.00
   -8    6   14    -16.64      0.00
   -6    6   14    -14.28      0.00
   -4    6   14    -12.51      0.00
   -2    6   14     -8.49      0.00
    0    6   14     -9.21      0.00
    2    6   14     -6.70      0.00
    4    6   14     -3.67      0.00
    6    6   14     -0.87      0.00
    8    6   14      1.43      0.00
   10    6   14      4.40      0.00
   12    6   14      5.59      0.00
   14    6   14      6.30      0.00
   16    6   14      3.75      0.00
   18    6   14      6.42      0.00
   20    6   14      6.29      0.00
  -37    7   14      1.52      0.00
  -35    7   14      1.52      0.00
  -33    7   14     -2.80      0.00
  -31    7   14      1.57      0.00
  -29    7   14     -1.83      0.00
  -27    7   14     -1.81      0.00
  -25    7   14     -7.03      0.00
  -23    7   14     -7.92      0.00
  -21    7   14    -11.94      0.00
  -19    7   14     -6.23      0.00
  -17    7   14     -2.01      0.00
  -15    7   14     -5.50      0.00
  -13    7   14      1.41      0.00
  -11    7   14      9.01      0.00
   -9    7   14     15.82      0.00
   -7    7   14     13.93      0.00
   -5    7   14     13.73      0.00
   -3    7   14      7.93      0.00
   -1    7   14      6.26      0.00
    1    7   14      5.73      0.00
    3    7   14      4.49      0.00
    5    7   14      1.46      0.00
    7    7   14     -1.57      0.00
    9    7   14     -0.68      0.00
   11    7   14     -2.09      0.00
   13    7   14     -4.62      0.00
   15    7   14     -3.76      0.00
   17    7   14     -3.33      0.00
   19    7   14     -4.87      0.00
  -36    8   14     -2.81      0.00
  -34    8   14      0.06      0.00
  -32    8   14     -0.09      0.00
  -30    8   14     -0.87      0.00
  -28    8   14     -0.38      0.00
  -26    8   14      3.57      0.00
  -24    8   14      4.84      0.00
  -22    8   14      7.61      0.00
  -20    8   14     10.00      0.00
  -18    8   14      3.98      0.00
  -16    8   14      2.13      0.00
  -14    8   14      2.33      0.00
  -12    8   14     -5.97      0.00
  -10    8   14     -9.22      0.00
   -8    8   14    -13.01      0.00
   -6    8   14    -10.25      0.00
   -4    8   14     -7.79      0.00
   -2    8   14     -3.70      0.00
    0    8   14     -2.28      0.00
    2    8   14     -2.80      0.00
    4    8   14     -2.59      0.00
    6    8   14      2.83      0.00
    8    8   14      1.54      0.00
   10    8   14     -0.96      0.00
   12    8   14      0.38      0.00
   14    8   14      2.19      0.00
   16    8   14      0.27      0.00
   18    8   14      2.57      0.00
  -35    9   14      3.67      0.00
  -33    9   14      1.00      0.00
  -31    9   14      2.07      0.00
  -29    9   14      0.15      0.00
  -27    9   14      2.28      0.00
  -25    9   14     -3.27      0.00
  -23    9   14     -0.38      0.00
  -21    9   14     -6.01      0.00
  -19    9   14     -5.52      0.00
  -17    9   14     -0.89      0.00
  -15    9   14     -2.42      0.00
  -13    9   14      1.73      0.00
  -11    9   14      5.11      0.00
   -9    9   14      6.78      0.00
   -7    9   14      7.93      0.00
   -5    9   14      2.25      0.00
   -3    9   14      3.52      0.00
   -1    9   14     -1.42      0.00
    1    9   14      0.79      0.00
    3    9   14      1.35      0.00
    5    9   14      0.59      0.00
    7    9   14     -5.40      0.00
    9    9   14      0.97      0.00
   11    9   14      1.14      0.00
   13    9   14     -0.11      0.00
   15    9   14      1.73      0.00
   17    9   14      0.32      0.00
  -34   10   14     -5.03      0.00
  -32   10   14     -3.26      0.00
  -30   10   14      0.29      0.00
  -28   10   14     -3.64      0.00
  -26   10   14     -1.90      0.00
  -24   10   14     -0.97      0.00
  -22   10   14     -0.97      0.00
  -20   10   14      2.65      0.00
  -18   10   14      0.89      0.00
  -16   10   14      0.17      0.00
  -14   10   14      1.55      0.00
  -12   10   14     -2.35      0.00
  -10   10   14     -2.12      0.00
   -8   10   14     -2.92      0.00
   -6   10   14      1.15      0.00
   -4   10   14      2.98      0.00
   -2   10   14      1.07      0.00
    0   10   14      3.40      0.00
    2   10   14     -0.40      0.00
    4   10   14     -2.93      0.00
    6   10   14      3.02      0.00
    8   10   14      1.71      0.00
   10   10   14     -1.04      0.00
   12   10   14      0.30      0.00
   14   10   14     -0.85      0.00
   16   10   14     -2.78      0.00
  -35   11   14      5.33      0.00
  -33   11   14      5.27      0.00
  -31   11   14      1.36      0.00
  -29   11   14      0.37      0.00
  -27   11   14      6.94      0.00
  -25   11   14      1.74      0.00
  -23   11   14      2.93      0.00
  -21   11   14      1.66      0.00
  -19   11   14     -0.18      0.00
  -17   11   14      1.68      0.00
  -15   11   14     -1.77      0.00
  -13   11   14     -0.69      0.00
  -11   11   14     -0.11      0.00
   -9   11   14     -1.65      0.00
   -7   11   14     -2.64      0.00
   -5   11   14     -8.69      0.00
   -3   11   14     -3.28      0.00
   -1   11   14     -5.95      0.00
    1   11   14     -1.78      0.00
    3   11   14      1.02      0.00
    5   11   14      2.38      0.00
    7   11   14     -2.57      0.00
    9   11   14      0.81      0.00
   11   11   14     -0.22      0.00
   13   11   14     -1.80      0.00
   15   11   14      2.42      0.00
   17   11   14      0.95      0.00
  -34   12   14     -4.88      0.00
  -32   12   14     -2.87      0.00
  -30   12   14      1.23      0.00
  -28   12   14     -5.89      0.00
  -26   12   14     -5.26      0.00
  -24   12   14     -2.64      0.00
  -22   12   14     -3.22      0.00
  -20   12   14     -1.64      0.00
  -18   12   14     -0.65      0.00
  -16   12   14      0.43      0.00
  -14   12   14      1.75      0.00
  -12   12   14      2.92      0.00
  -10   12   14      2.99      0.00
   -8   12   14      6.11      0.00
   -6   12   14      7.04      0.00
   -4   12   14      8.06      0.00
   -2   12   14      4.43      0.00
    0   12   14      5.58      0.00
    2   12   14      2.11      0.00
    4   12   14     -1.40      0.00
    6   12   14      0.32      0.00
    8   12   14      1.15      0.00
   10   12   14     -0.76      0.00
   12   12   14      1.28      0.00
   14   12   14     -0.13      0.00
   16   12   14     -0.57      0.00
  -31   13   14     -0.21      0.00
  -29   13   14      1.42      0.00
  -27   13   14      7.64      0.00
  -25   13   14      3.19      0.00
  -23   13   14      4.62      0.00
  -21   13   14      3.41      0.00
  -19   13   14     -0.56      0.00
  -17   13   14     -1.54      0.00
  -15   13   14     -2.15      0.00
  -13   13   14     -1.99      0.00
  -11   13   14     -5.34      0.00
   -9   13   14     -6.69      0.00
   -7   13   14     -7.88      0.00
   -5   13   14     -6.69      0.00
   -3   13   14     -4.05      0.00
   -1   13   14     -4.25      0.00
    1   13   14     -4.98      0.00
    3   13   14     -3.76      0.00
    5   13   14     -0.43      0.00
    7   13   14     -3.12      0.00
    9   13   14     -1.27      0.00
   11   13   14      0.90      0.00
   13   13   14      0.66      0.00
  -30   14   14      1.02      0.00
  -28   14   14     -5.77      0.00
  -26   14   14     -4.61      0.00
  -24   14   14     -5.57      0.00
  -22   14   14     -5.44      0.00
  -20   14   14     -1.69      0.00
  -18   14   14      4.38      0.00
  -16   14   14      3.31      0.00
  -14   14   14      0.72      0.00
  -12   14   14      3.18      0.00
  -10   14   14      6.28      0.00
   -8   14   14      8.96      0.00
   -6   14   14      6.16      0.00
   -4   14   14      3.58      0.00
   -2   14   14      0.49      0.00
    0   14   14      4.19      0.00
    2   14   14      6.10      0.00
    4   14   14      4.12      0.00
    6   14   14      3.04      0.00
    8   14   14      4.79      0.00
   10   14   14      0.39      0.00
   12   14   14     -2.32      0.00
  -29   15   14      1.62      0.00
  -27   15   14      5.82      0.00
  -25   15   14      4.22      0.00
  -23   15   14      6.52      0.00
  -21   15   14      4.09      0.00
  -19   15   14     -2.72      0.00
  -17   15   14     -4.58      0.00
  -15   15   14     -2.02      0.00
  -13   15   14      1.56      0.00
  -11   15   14     -3.99      0.00
   -9   15   14     -5.48      0.00
   -7   15   14     -8.33      0.00
   -5   15   14     -2.98      0.00
   -3   15   14     -0.33      0.00
   -1   15   14      0.08      0.00
    1   15   14     -5.37      0.00
    3   15   14     -4.31      0.00
    5   15   14     -3.09      0.00
    7   15   14     -4.35      0.00
    9   15   14     -3.16      0.00
   11   15   14      0.30      0.00
  -26   16   14     -3.72      0.00
  -24   16   14     -4.07      0.00
  -22   16   14     -3.14      0.00
  -20   16   14     -0.70      0.00
  -18   16   14      3.36      0.00
  -16   16   14      1.12      0.00
  -14   16   14     -0.59      0.00
  -12   16   14     -1.49      0.00
  -10   16   14      2.26      0.00
   -8   16   14      4.48      0.00
   -6   16   14      3.85      0.00
   -4   16   14      0.40      0.00
   -2   16   14     -1.50      0.00
    0   16   14      2.84      0.00
    2   16   14      1.87      0.00
    4   16   14      0.92      0.00
    6   16   14      1.84      0.00
    8   16   14      2.71      0.00
   10   16   14      2.29      0.00
  -25   17   14      1.14      0.00
  -23   17   14      0.27      0.00
  -21   17   14     -1.02      0.00
  -19   17   14     -0.96      0.00
  -17   17   14      1.80      0.00
  -15   17   14     -0.08      0.00
  -13   17   14      2.45      0.00
  -11   17   14      0.16      0.00
   -9   17   14      0.60      0.00
   -7   17   14     -2.04      0.00
   -5   17   14      2.64      0.00
   -3   17   14      0.50      0.00
   -1   17   14      0.85      0.00
    1   17   14     -1.59      0.00
    3   17   14      3.56      0.00
    5   17   14      0.11      0.00
    7   17   14     -0.10      0.00
    9   17   14     -2.50      0.00
  -24   18   14      1.99      0.00
  -22   18   14      3.93      0.00
  -20   18   14      3.26      0.00
  -18   18   14     -2.58      0.00
  -16   18   14     -3.02      0.00
  -14   18   14     -0.26      0.00
  -12   18   14     -1.60      0.00
  -10   18   14     -1.11      0.00
   -8   18   14     -0.60      0.00
   -6   18   14     -5.24      0.00
   -4   18   14     -3.74      0.00
   -2   18   14     -1.83      0.00
    0   18   14     -1.49      0.00
    2   18   14     -3.71      0.00
    4   18   14     -3.08      0.00
    6   18   14     -0.66      0.00
  -23   19   14     -3.48      0.00
  -21   19   14     -6.50      0.00
  -19   19   14     -1.49      0.00
  -17   19   14      4.08      0.00
  -15   19   14      0.74      0.00
  -13   19   14      1.34      0.00
  -11   19   14      0.69      0.00
   -9   19   14      0.10      0.00
   -7   19   14      3.01      0.00
   -5   19   14      8.37      0.00
   -3   19   14      1.74      0.00
   -1   19   14      4.95      0.00
    1   19   14      4.42      0.00
    3   19   14      3.40      0.00
    5   19   14      0.60      0.00
  -18   20   14     -0.75      0.00
  -16   20   14     -1.44      0.00
  -14   20   14     -1.35      0.00
  -12   20   14     -0.90      0.00
  -10   20   14      0.66      0.00
   -8   20   14      1.40      0.00
   -6   20   14     -6.41      0.00
   -4   20   14     -3.90      0.00
   -2   20   14     -2.89      0.00
    0   20   14     -7.22      0.00
    2   20   14     -3.21      0.00
  -15   21   14      1.48      0.00
  -13   21   14      1.00      0.00
  -11   21   14     -0.49      0.00
   -9   21   14     -2.91      0.00
   -7   21   14      1.30      0.00
   -5   21   14      3.60      0.00
  -37    1   15      1.56      0.00
  -35    1   15      0.10      0.00
  -33    1   15      1.27      0.00
  -31    1   15     -0.89      0.00
  -29    1   15      0.75      0.00
  -27    1   15     -0.54      0.00
  -25    1   15      0.48      0.00
  -23    1   15      2.18      0.00
  -21    1   15     -0.88      0.00
  -19    1   15     -4.18      0.00
  -17    1   15     -1.97      0.00
  -15    1   15     -4.84      0.00
  -13    1   15     -9.04      0.00
  -11    1   15     -4.57      0.00
   -9    1   15     -3.93      0.00
   -7    1   15     -8.55      0.00
   -5    1   15     -4.85      0.00
   -3    1   15      3.09      0.00
   -1    1   15      1.54      0.00
    1    1   15      1.43      0.00
    3    1   15      3.73      0.00
    5    1   15      0.76      0.00
    7    1   15      0.54      0.00
    9    1   15      3.43      0.00
   11    1   15      1.95      0.00
   13    1   15      1.15      0.00
   15    1   15     -1.00      0.00
   17    1   15      0.90      0.00
   19    1   15     -0.27      0.00
  -38    2   15     -2.61      0.00
  -36    2   15     -0.07      0.00
  -34    2   15     -1.42      0.00
  -32    2   15     -0.40      0.00
  -30    2   15     -0.18      0.00
  -28    2   15     -0.34      0.00
  -26    2   15      1.49      0.00
  -24    2   15     -3.10      0.00
  -22    2   15     -2.44      0.00
  -20    2   15      4.70      0.00
  -18    2   15      5.89      0.00
  -16    2   15      3.69      0.00
  -14    2   15     14.55      0.00
  -12    2   15     11.26      0.00
  -10    2   15      5.86      0.00
   -8    2   15      9.66      0.00
   -6    2   15     16.13      0.00
   -4    2   15     -0.54      0.00
   -2    2   15     -4.50      0.00
    0    2   15     -2.65      0.00
    2    2   15     -4.28      0.00
    4    2   15     -5.42      0.00
    6    2   15      0.54      0.00
    8    2   15     -5.45      0.00
   10    2   15     -4.01      0.00
   12    2   15     -3.50      0.00
   14    2   15      0.65      0.00
   16    2   15     -0.04      0.00
   18    2   15     -0.40      0.00
  -37    3   15      0.53      0.00
  -35    3   15     -0.73      0.00
  -33    3   15      2.32      0.00
  -31    3   15      0.09      0.00
  -29    3   15      1.50      0.00
  -27    3   15     -2.65      0.00
  -25    3   15      0.33      0.00
  -23    3   15      5.75      0.00
  -21    3   15     -0.37      0.00
  -19    3   15     -6.45      0.00
  -17    3   15     -5.23      0.00
  -15    3   15    -10.36      0.00
  -13    3   15    -18.14      0.00
  -11    3   15     -7.08      0.00
   -9    3   15     -6.32      0.00
   -7    3   15    -17.32      0.00
   -5    3   15    -11.29      0.00
   -3    3   15      5.54      0.00
   -1    3   15      4.80      0.00
    1    3   15      3.05      0.00
    3    3   15      6.46      0.00
    5    3   15      2.04      0.00
    7    3   15      2.74      0.00
    9    3   15      7.11      0.00
   11    3   15      3.23      0.00
   13    3   15      3.10      0.00
   15    3   15     -1.63      0.00
   17    3   15      0.26      0.00
   19    3   15     -1.79      0.00
  -38    4   15     -0.67      0.00
  -36    4   15      2.13      0.00
  -34    4   15     -1.82      0.00
  -32    4   15     -1.23      0.00
  -30    4   15     -2.11      0.00
  -28    4   15      2.07      0.00
  -26    4   15      2.29      0.00
  -24    4   15     -3.44      0.00
  -22    4   15     -6.57      0.00
  -20    4   15      2.82      0.00
  -18    4   15      5.48      0.00
  -16    4   15      7.12      0.00
  -14    4   15     16.01      0.00
  -12    4   15     11.07      0.00
  -10    4   15      2.37      0.00
   -8    4   15      8.42      0.00
   -6    4   15     17.11      0.00
   -4    4   15      0.38      0.00
   -2    4   15     -6.65      0.00
    0    4   15     -3.55      0.00
    2    4   15     -2.18      0.00
    4    4   15     -3.66      0.00
    6    4   15      0.05      0.00
    8    4   15     -5.74      0.00
   10    4   15     -3.54      0.00
   12    4   15     -4.05      0.00
   14    4   15     -0.38      0.00
   16    4   15      1.28      0.00
   18    4   15      2.60      0.00
  -37    5   15     -1.22      0.00
  -35    5   15     -0.30      0.00
  -33    5   15      3.01      0.00
  -31    5   15      1.74      0.00
  -29    5   15     -0.16      0.00
  -27    5   15     -2.93      0.00
  -25    5   15     -1.07      0.00
  -23    5   15      7.87      0.00
  -21    5   15      3.83      0.00
  -19    5   15     -1.25      0.00
  -17    5   15     -6.87      0.00
  -15    5   15     -8.84      0.00
  -13    5   15    -13.00      0.00
  -11    5   15     -0.59      0.00
   -9    5   15     -0.31      0.00
   -7    5   15     -9.70      0.00
   -5    5   15     -6.99      0.00
   -3    5   15      5.68      0.00
   -1    5   15      5.93      0.00
    1    5   15     -0.97      0.00
    3    5   15     -0.05      0.00
    5    5   15     -0.51      0.00
    7    5   15      0.76      0.00
    9    5   15      3.14      0.00
   11    5   15      1.45      0.00
   13    5   15      2.80      0.00
   15    5   15     -1.71      0.00
   17    5   15     -3.13      0.00
   19    5   15     -3.68      0.00
  -36    6   15      0.92      0.00
  -34    6   15     -2.75      0.00
  -32    6   15     -2.68      0.00
  -30    6   15     -1.42      0.00
  -28    6   15      2.47      0.00
  -26    6   15      1.69      0.00
  -24    6   15     -0.89      0.00
  -22    6   15     -8.87      0.00
  -20    6   15     -3.08      0.00
  -18    6   15      1.57      0.00
  -16    6   15      6.32      0.00
  -14    6   15      7.09      0.00
  -12    6   15      2.18      0.00
  -10    6   15     -5.17      0.00
   -8    6   15      1.13      0.00
   -6    6   15      4.94      0.00
   -4    6   15     -1.22      0.00
   -2    6   15     -8.17      0.00
    0    6   15     -0.21      0.00
    2    6   15      4.07      0.00
    4    6   15      2.88      0.00
    6    6   15      0.60      0.00
    8    6   15     -0.16      0.00
   10    6   15      0.62      0.00
   12    6   15     -0.44      0.00
   14    6   15      1.02      0.00
   16    6   15      2.53      0.00
   18    6   15      4.89      0.00
  -37    7   15      0.61      0.00
  -35    7   15      0.17      0.00
  -33    7   15      3.43      0.00
  -31    7   15      2.94      0.00
  -29    7   15     -0.86      0.00
  -27    7   15     -0.92      0.00
  -25    7   15     -3.33      0.00
  -23    7   15      4.29      0.00
  -21    7   15      5.94      0.00
  -19    7   15      4.53      0.00
  -17    7   15     -3.25      0.00
  -15    7   15     -1.60      0.00
  -13    7   15     -0.47      0.00
  -11    7   15      7.13      0.00
   -9    7   15      4.90      0.00
   -7    7   15     -0.24      0.00
   -5    7   15      0.71      0.00
   -3    7   15      5.07      0.00
   -1    7   15      4.92      0.00
    1    7   15     -5.45      0.00
    3    7   15     -5.73      0.00
    5    7   15     -1.71      0.00
    7    7   15      0.22      0.00
    9    7   15     -1.15      0.00
   11    7   15     -2.94      0.00
   13    7   15     -2.49      0.00
   15    7   15     -2.58      0.00
   17    7   15     -3.51      0.00
  -36    8   15      0.76      0.00
  -34    8   15     -0.12      0.00
  -32    8   15     -3.92      0.00
  -30    8   15     -1.79      0.00
  -28    8   15      1.31      0.00
  -26    8   15      1.67      0.00
  -24    8   15      2.87      0.00
  -22    8   15     -3.65      0.00
  -20    8   15     -5.82      0.00
  -18    8   15     -2.61      0.00
  -16    8   15      0.29      0.00
  -14    8   15     -3.77      0.00
  -12    8   15     -7.76      0.00
  -10    8   15     -9.45      0.00
   -8    8   15     -3.31      0.00
   -6    8   15     -3.86      0.00
   -4    8   15     -1.99      0.00
   -2    8   15     -6.09      0.00
    0    8   15      3.57      0.00
    2    8   15      7.37      0.00
    4    8   15      5.69      0.00
    6    8   15     -0.83      0.00
    8    8   15     -0.64      0.00
   10    8   15      2.65      0.00
   12    8   15      4.24      0.00
   14    8   15      4.37      0.00
   16    8   15      2.11      0.00
   18    8   15      3.27      0.00
  -35    9   15     -2.94      0.00
  -33    9   15      1.01      0.00
  -31    9   15      3.54      0.00
  -29    9   15     -0.95      0.00
  -27    9   15     -0.92      0.00
  -25    9   15     -3.19      0.00
  -23    9   15     -1.87      0.00
  -21    9   15      2.66      0.00
  -19    9   15      5.69      0.00
  -17    9   15      1.17      0.00
  -15    9   15      3.69      0.00
  -13    9   15     10.01      0.00
  -11    9   15     10.74      0.00
   -9    9   15      8.30      0.00
   -7    9   15      4.61      0.00
   -5    9   15      5.31      0.00
   -3    9   15      2.94      0.00
   -1    9   15      0.47      0.00
    1    9   15     -8.51      0.00
    3    9   15     -8.59      0.00
    5    9   15     -3.73      0.00
    7    9   15      1.59      0.00
    9    9   15      0.24      0.00
   11    9   15     -3.37      0.00
   13    9   15     -4.80      0.00
   15    9   15     -2.69      0.00
   17    9   15     -2.46      0.00
  -34   10   15      2.44      0.00
  -32   10   15     -1.99      0.00
  -30   10   15      0.06      0.00
  -28   10   15      2.20      0.00
  -26   10   15      0.71      0.00
  -24   10   15      3.76      0.00
  -22   10   15      1.54      0.00
  -20   10   15     -4.22      0.00
  -18   10   15     -3.90      0.00
  -16   10   15     -0.96      0.00
  -14   10   15     -8.40      0.00
  -12   10   15    -12.78      0.00
  -10   10   15     -9.91      0.00
   -8   10   15     -6.53      0.00
   -6   10   15     -6.01      0.00
   -4   10   15     -4.52      0.00
   -2   10   15     -2.01      0.00
    0   10   15      5.15      0.00
    2   10   15      9.23      0.00
    4   10   15      8.22      0.00
    6   10   15      2.16      0.00
    8   10   15     -1.99      0.00
   10   10   15      1.86      0.00
   12   10   15      3.06      0.00
   14   10   15      2.89      0.00
   16   10   15      1.25      0.00
  -35   11   15     -1.47      0.00
  -33   11   15     -0.47      0.00
  -31   11   15     -0.20      0.00
  -29   11   15     -3.34      0.00
  -27   11   15     -0.23      0.00
  -25   11   15     -2.07      0.00
  -23   11   15     -3.76      0.00
  -21   11   15      1.21      0.00
  -19   11   15      5.68      0.00
  -17   11   15      1.55      0.00
  -15   11   15      1.67      0.00
  -13   11   15     12.54      0.00
  -11   11   15     10.58      0.00
   -9   11   15      7.69      0.00
   -7   11   15      3.84      0.00
   -5   11   15      5.13      0.00
   -3   11   15      3.42      0.00
   -1   11   15      0.01      0.00
    1   11   15     -5.08      0.00
    3   11   15     -7.89      0.00
    5   11   15     -6.09      0.00
    7   11   15      1.07      0.00
    9   11   15     -0.57      0.00
   11   11   15     -3.15      0.00
   13   11   15     -1.89      0.00
   15   11   15      0.41      0.00
  -34   12   15     -0.06      0.00
  -32   12   15      0.14      0.00
  -30   12   15      3.63      0.00
  -28   12   15      1.25      0.00
  -26   12   15     -0.29      0.00
  -24   12   15      4.07      0.00
  -22   12   15      0.89      0.00
  -20   12   15     -4.64      0.00
  -18   12   15     -5.19      0.00
  -16   12   15      1.70      0.00
  -14   12   15     -4.27      0.00
  -12   12   15    -11.86      0.00
  -10   12   15     -6.71      0.00
   -8   12   15     -3.98      0.00
   -6   12   15     -0.54      0.00
   -4   12   15     -3.54      0.00
   -2   12   15     -1.56      0.00
    0   12   15     -1.71      0.00
    2   12   15      3.54      0.00
    4   12   15      5.26      0.00
    6   12   15      0.97      0.00
    8   12   15     -2.25      0.00
   10   12   15      3.72      0.00
   12   12   15      2.85      0.00
   14   12   15     -1.44      0.00
  -31   13   15     -1.49      0.00
  -29   13   15     -2.52      0.00
  -27   13   15      1.74      0.00
  -25   13   15     -1.94      0.00
  -23   13   15     -2.43      0.00
  -21   13   15      2.33      0.00
  -19   13   15      5.27      0.00
  -17   13   15      1.10      0.00
  -15   13   15     -3.38      0.00
  -13   13   15      5.26      0.00
  -11   13   15      7.81      0.00
   -9   13   15      2.81      0.00
   -7   13   15      0.27      0.00
   -5   13   15     -1.58      0.00
   -3   13   15      0.62      0.00
   -1   13   15      2.45      0.00
    1   13   15      1.55      0.00
    3   13   15     -2.51      0.00
    5   13   15     -1.81      0.00
    7   13   15      4.10      0.00
    9   13   15      0.02      0.00
   11   13   15     -3.90      0.00
   13   13   15      0.06      0.00
  -30   14   15      1.73      0.00
  -28   14   15     -1.61      0.00
  -26   14   15     -1.13      0.00
  -24   14   15      1.50      0.00
  -22   14   15     -0.52      0.00
  -20   14   15     -1.41      0.00
  -18   14   15     -1.52      0.00
  -16   14   15      3.04      0.00
  -14   14   15      3.88      0.00
  -12   14   15     -4.59      0.00
  -10   14   15     -2.36      0.00
   -8   14   15     -1.27      0.00
   -6   14   15      3.18      0.00
   -4   14   15      2.73      0.00
   -2   14   15      1.18      0.00
    0   14   15     -1.96      0.00
    2   14   15      2.32      0.00
    4   14   15      1.45      0.00
    6   14   15     -1.74      0.00
    8   14   15     -4.91      0.00
   10   14   15      0.91      0.00
   12   14   15      1.55      0.00
  -29   15   15      0.83      0.00
  -27   15   15      2.46      0.00
  -25   15   15      1.26      0.00
  -23   15   15      0.57      0.00
  -21   15   15     -0.21      0.00
  -19   15   15     -3.66      0.00
  -17   15   15     -1.48      0.00
  -15   15   15     -4.87      0.00
  -13   15   15     -2.70      0.00
  -11   15   15      2.26      0.00
   -9   15   15     -0.34      0.00
   -7   15   15     -0.57      0.00
   -5   15   15     -5.13      0.00
   -3   15   15     -3.26      0.00
   -1   15   15     -1.47      0.00
    1   15   15     -3.42      0.00
    3   15   15     -3.51      0.00
    5   15   15     -0.71      0.00
    7   15   15      3.67      0.00
    9   15   15      3.92      0.00
   11   15   15     -0.68      0.00
  -26   16   15     -1.89      0.00
  -24   16   15     -1.86      0.00
  -22   16   15     -1.47      0.00
  -20   16   15      5.22      0.00
  -18   16   15      4.52      0.00
  -16   16   15      1.38      0.00
  -14   16   15      3.99      0.00
  -12   16   15      0.61      0.00
  -10   16   15     -0.54      0.00
   -8   16   15      0.82      0.00
   -6   16   15      3.79      0.00
   -4   16   15      4.31      0.00
   -2   16   15      2.80      0.00
    0   16   15      3.35      0.00
    2   16   15      5.31      0.00
    4   16   15      1.66      0.00
    6   16   15      0.49      0.00
    8   16   15     -4.81      0.00
  -25   17   15      1.46      0.00
  -23   17   15      1.79      0.00
  -21   17   15      0.56      0.00
  -19   17   15     -6.30      0.00
  -17   17   15      0.82      0.00
  -15   17   15     -1.00      0.00
  -13   17   15     -1.10      0.00
  -11   17   15      1.64      0.00
   -9   17   15      1.12      0.00
   -7   17   15     -2.38      0.00
   -5   17   15     -4.47      0.00
   -3   17   15     -2.42      0.00
   -1   17   15     -2.55      0.00
    1   17   15     -2.63      0.00
    3   17   15     -1.50      0.00
    5   17   15     -1.44      0.00
    7   17   15      1.46      0.00
  -24   18   15      0.00      0.00
  -22   18   15     -3.53      0.00
  -20   18   15      0.43      0.00
  -18   18   15     -1.47      0.00
  -16   18   15     -2.41      0.00
  -14   18   15     -0.77      0.00
  -12   18   15     -1.17      0.00
  -10   18   15     -5.42      0.00
   -8   18   15     -0.26      0.00
   -6   18   15      2.24      0.00
   -4   18   15      3.73      0.00
   -2   18   15      0.95      0.00
    0   18   15      1.13      0.00
    2   18   15     -2.26      0.00
    4   18   15      0.45      0.00
    6   18   15      1.04      0.00
  -23   19   15      0.19      0.00
  -21   19   15      4.96      0.00
  -19   19   15      3.12      0.00
  -17   19   15      5.74      0.00
  -15   19   15      1.34      0.00
  -13   19   15      1.95      0.00
  -11   19   15      4.57      0.00
   -9   19   15      4.61      0.00
   -7   19   15      0.90      0.00
   -5   19   15     -3.26      0.00
   -3   19   15     -1.51      0.00
   -1   19   15     -0.51      0.00
    1   19   15      2.80      0.00
  -18   20   15     -6.02      0.00
  -16   20   15     -2.46      0.00
  -14   20   15     -2.42      0.00
  -12   20   15     -1.66      0.00
  -10   20   15     -4.57      0.00
   -8   20   15     -1.29      0.00
   -6   20   15     -1.02      0.00
   -4   20   15      4.78      0.00
   -2   20   15     -1.87      0.00
    0   20   15      0.53      0.00
  -13   21   15      1.54      0.00
  -11   21   15      0.85      0.00
   -9   21   15     -1.19      0.00
  -38    0   16     -3.79      0.00
  -36    0   16     -4.75      0.00
  -34    0   16     -2.58      0.00
  -32    0   16     -5.64      0.00
  -30    0   16     -1.29      0.00
  -28    0   16     -4.73      0.00
  -26    0   16     -5.80      0.00
  -24    0   16     -4.44      0.00
  -22    0   16     -7.54      0.00
  -20    0   16     -8.53      0.00
  -18    0   16     -7.84      0.00
  -16    0   16    -11.88      0.00
  -14    0   16    -11.24      0.00
  -12    0   16      8.76      0.00
  -10    0   16      5.70      0.00
   -8    0   16     -3.50      0.00
   -6    0   16     14.71      0.00
   -4    0   16     25.95      0.00
   -2    0   16     12.04      0.00
    0    0   16      7.48      0.00
    2    0   16      8.16      0.00
    4    0   16      0.58      0.00
    6    0   16      0.77      0.00
    8    0   16      0.14      0.00
   10    0   16     -5.19      0.00
   12    0   16     -2.48      0.00
   14    0   16     -2.35      0.00
   16    0   16      4.70      0.00
   18    0   16     -1.85      0.00
  -39    1   16      1.83      0.00
  -37    1   16      4.68      0.00
  -35    1   16      2.49      0.00
  -33    1   16      3.23      0.00
  -31    1   16      2.66      0.00
  -29    1   16      2.29      0.00
  -27    1   16      5.33      0.00
  -25    1   16      4.75      0.00
  -23    1   16      3.91      0.00
  -21    1   16      7.49      0.00
  -19    1   16      6.70      0.00
  -17    1   16      8.52      0.00
  -15    1   16     12.94      0.00
  -13    1   16     -0.01      0.00
  -11    1   16     -9.67      0.00
   -9    1   16      0.64      0.00
   -7    1   16     -0.24      0.00
   -5    1   16    -23.66      0.00
   -3    1   16    -17.46      0.00
   -1    1   16     -8.86      0.00
    1    1   16     -6.22      0.00
    3    1   16     -5.07      0.00
    5    1   16      1.71      0.00
    7    1   16     -2.81      0.00
    9    1   16      5.12      0.00
   11    1   16      2.94      0.00
   13    1   16      4.55      0.00
   15    1   16     -2.32      0.00
   17    1   16     -0.70      0.00
  -38    2   16     -3.49      0.00
  -36    2   16     -2.91      0.00
  -34    2   16      0.27      0.00
  -32    2   16     -1.21      0.00
  -30    2   16     -0.80      0.00
  -28    2   16     -3.70      0.00
  -26    2   16     -4.17      0.00
  -24    2   16     -1.57      0.00
  -22    2   16     -2.77      0.00
  -20    2   16     -2.92      0.00
  -18    2   16     -6.99      0.00
  -16    2   16     -7.34      0.00
  -14    2   16     -6.21      0.00
  -12    2   16      8.44      0.00
  -10    2   16      4.03      0.00
   -8    2   16     -4.99      0.00
   -6    2   16      7.86      0.00
   -4    2   16     18.77      0.00
   -2    2   16     10.72      0.00
    0    2   16      3.90      0.00
    2    2   16      3.35      0.00
    4    2   16     -0.25      0.00
    6    2   16      0.40      0.00
    8    2   16     -1.15      0.00
   10    2   16     -5.92      0.00
   12    2   16     -3.49      0.00
   14    2   16     -2.84      0.00
   16    2   16      1.76      0.00
   18    2   16     -2.53      0.00
  -39    3   16      2.45      0.00
  -37    3   16      2.50      0.00
  -35    3   16     -0.16      0.00
  -33    3   16     -2.35      0.00
  -31    3   16     -0.38      0.00
  -29    3   16      2.23      0.00
  -27    3   16      2.37      0.00
  -25    3   16      1.97      0.00
  -23    3   16     -2.05      0.00
  -21    3   16     -0.77      0.00
  -19    3   16      1.92      0.00
  -17    3   16      6.30      0.00
  -15    3   16      2.57      0.00
  -13    3   16     -3.28      0.00
  -11    3   16     -8.05      0.00
   -9    3   16      2.21      0.00
   -7    3   16      3.69      0.00
   -5    3   16     -8.75      0.00
   -3    3   16    -10.61      0.00
   -1    3   16     -2.79      0.00
    1    3   16      2.26      0.00
    3    3   16      1.41      0.00
    5    3   16      1.97      0.00
    7    3   16      0.12      0.00
    9    3   16      4.43      0.00
   11    3   16      4.01      0.00
   13    3   16      3.78      0.00
   15    3   16      0.47      0.00
   17    3   16      1.83      0.00
  -38    4   16     -1.57      0.00
  -36    4   16     -1.65      0.00
  -34    4   16      3.02      0.00
  -32    4   16      2.07      0.00
  -30    4   16     -0.97      0.00
  -28    4   16     -1.03      0.00
  -26    4   16     -1.85      0.00
  -24    4   16      2.38      0.00
  -22    4   16      3.42      0.00
  -20    4   16      3.85      0.00
  -18    4   16     -5.21      0.00
  -16    4   16     -0.11      0.00
  -14    4   16      2.72      0.00
  -12    4   16      7.98      0.00
  -10    4   16      2.76      0.00
   -8    4   16     -4.46      0.00
   -6    4   16     -1.73      0.00
   -4    4   16      4.71      0.00
   -2    4   16      2.34      0.00
    0    4   16     -6.44      0.00
    2    4   16     -6.32      0.00
    4    4   16     -4.18      0.00
    6    4   16     -2.53      0.00
    8    4   16     -2.20      0.00
   10    4   16     -3.71      0.00
   12    4   16     -3.08      0.00
   14    4   16     -1.43      0.00
   16    4   16     -1.15      0.00
   18    4   16     -1.91      0.00
  -37    5   16      1.59      0.00
  -35    5   16      1.05      0.00
  -33    5   16     -3.79      0.00
  -31    5   16      0.07      0.00
  -29    5   16     -0.09      0.00
  -27    5   16      0.37      0.00
  -25    5   16      0.23      0.00
  -23    5   16     -3.96      0.00
  -21    5   16     -5.31      0.00
  -19    5   16     -0.92      0.00
  -17    5   16      2.29      0.00
  -15    5   16     -5.27      0.00
  -13    5   16     -5.89      0.00
  -11    5   16     -5.98      0.00
   -9    5   16      1.50      0.00
   -7    5   16      3.31      0.00
   -5    5   16      2.73      0.00
   -3    5   16     -1.12      0.00
   -1    5   16      7.13      0.00
    1    5   16      9.48      0.00
    3    5   16      7.50      0.00
    5    5   16      4.44      0.00
    7    5   16      3.47      0.00
    9    5   16      2.70      0.00
   11    5   16      3.56      0.00
   13    5   16      1.48      0.00
   15    5   16     -0.09      0.00
   17    5   16      1.68      0.00
  -38    6   16     -0.40      0.00
  -36    6   16     -4.43      0.00
  -34    6   16      1.12      0.00
  -32    6   16      2.19      0.00
  -30    6   16      1.01      0.00
  -28    6   16      1.40      0.00
  -26    6   16     -0.82      0.00
  -24    6   16      0.98      0.00
  -22    6   16      4.01      0.00
  -20    6   16      5.07      0.00
  -18    6   16     -0.72      0.00
  -16    6   16      3.84      0.00
  -14    6   16      6.45      0.00
  -12    6   16      4.81      0.00
  -10    6   16      2.11      0.00
   -8    6   16     -1.87      0.00
   -6    6   16     -3.25      0.00
   -4    6   16     -2.93      0.00
   -2    6   16     -4.34      0.00
    0    6   16     -9.48      0.00
    2    6   16     -8.13      0.00
    4    6   16     -6.10      0.00
    6    6   16     -4.68      0.00
    8    6   16     -3.20      0.00
   10    6   16     -4.38      0.00
   12    6   16     -3.75      0.00
   14    6   16      0.42      0.00
   16    6   16     -0.66      0.00
   18    6   16     -1.03      0.00
  -37    7   16      3.39      0.00
  -35    7   16      4.83      0.00
  -33    7   16     -2.94      0.00
  -31    7   16     -2.08      0.00
  -29    7   16     -3.37      0.00
  -27    7   16     -0.31      0.00
  -25    7   16      0.67      0.00
  -23    7   16     -0.11      0.00
  -21    7   16     -4.91      0.00
  -19    7   16     -2.69      0.00
  -17    7   16     -1.83      0.00
  -15    7   16     -6.37      0.00
  -13    7   16     -3.45      0.00
  -11    7   16     -2.79      0.00
   -9    7   16     -0.39      0.00
   -7    7   16      0.53      0.00
   -5    7   16      3.92      0.00
   -3    7   16      3.70      0.00
   -1    7   16      6.50      0.00
    1    7   16      6.05      0.00
    3    7   16      5.79      0.00
    5    7   16      5.68      0.00
    7    7   16      3.26      0.00
    9    7   16      4.35      0.00
   11    7   16      6.18      0.00
   13    7   16      2.54      0.00
   15    7   16      0.53      0.00
   17    7   16      1.51      0.00
  -36    8   16     -5.90      0.00
  -34    8   16     -1.52      0.00
  -32    8   16      2.53      0.00
  -30    8   16      4.25      0.00
  -28    8   16      2.25      0.00
  -26    8   16      0.03      0.00
  -24    8   16     -2.53      0.00
  -22    8   16      1.56      0.00
  -20    8   16      3.70      0.00
  -18    8   16      2.01      0.00
  -16    8   16      3.21      0.00
  -14    8   16      4.57      0.00
  -12    8   16     -0.20      0.00
  -10    8   16      2.70      0.00
   -8    8   16      0.84      0.00
   -6    8   16     -0.36      0.00
   -4    8   16     -3.49      0.00
   -2    8   16     -4.01      0.00
    0    8   16     -2.42      0.00
    2    8   16     -3.19      0.00
    4    8   16     -5.37      0.00
    6    8   16     -4.50      0.00
    8    8   16     -2.43      0.00
   10    8   16     -6.18      0.00
   12    8   16     -5.56      0.00
   14    8   16     -2.36      0.00
   16    8   16     -2.65      0.00
  -35    9   16      4.56      0.00
  -33    9   16      0.11      0.00
  -31    9   16     -1.98      0.00
  -29    9   16     -4.99      0.00
  -27    9   16     -0.10      0.00
  -25    9   16      1.23      0.00
  -23    9   16      2.13      0.00
  -21    9   16     -2.68      0.00
  -19    9   16     -2.72      0.00
  -17    9   16     -0.11      0.00
  -15    9   16     -3.77      0.00
  -13    9   16      0.89      0.00
  -11    9   16     -0.36      0.00
   -9    9   16     -2.18      0.00
   -7    9   16     -1.21      0.00
   -5    9   16     -0.98      0.00
   -3    9   16      2.31      0.00
   -1    9   16     -2.27      0.00
    1    9   16     -0.83      0.00
    3    9   16      1.72      0.00
    5    9   16      5.97      0.00
    7    9   16      1.76      0.00
    9    9   16      4.10      0.00
   11    9   16      5.96      0.00
   13    9   16      3.64      0.00
   15    9   16      3.80      0.00
  -34   10   16     -2.94      0.00
  -32   10   16     -2.02      0.00
  -30   10   16      4.05      0.00
  -28   10   16      2.23      0.00
  -26   10   16     -1.24      0.00
  -24   10   16     -1.89      0.00
  -22   10   16      0.55      0.00
  -20   10   16      2.76      0.00
  -18   10   16      0.54      0.00
  -16   10   16     -0.51      0.00
  -14   10   16      0.60      0.00
  -12   10   16     -2.77      0.00
  -10   10   16      0.49      0.00
   -8   10   16      1.15      0.00
   -6   10   16      2.70      0.00
   -4   10   16      3.43      0.00
   -2   10   16      4.67      0.00
    0   10   16      8.61      0.00
    2   10   16      2.72      0.00
    4   10   16     -2.23      0.00
    6   10   16     -3.07      0.00
    8   10   16     -2.17      0.00
   10   10   16     -4.91      0.00
   12   10   16     -3.65      0.00
   14   10   16     -2.96      0.00
  -35   11   16      2.33      0.00
  -33   11   16      3.67      0.00
  -31   11   16      1.45      0.00
  -29   11   16     -5.50      0.00
  -27   11   16      2.42      0.00
  -25   11   16      0.43      0.00
  -23   11   16      0.54      0.00
  -21   11   16     -1.31      0.00
  -19   11   16     -2.31      0.00
  -17   11   16      2.27      0.00
  -15   11   16      0.59      0.00
  -13   11   16      3.05      0.00
  -11   11   16      2.05      0.00
   -9   11   16      0.86      0.00
   -7   11   16     -1.27      0.00
   -5   11   16     -6.24      0.00
   -3   11   16     -6.66      0.00
   -1   11   16    -14.06      0.00
    1   11   16     -9.07      0.00
    3   11   16     -4.07      0.00
    5   11   16      1.28      0.00
    7   11   16      0.90      0.00
    9   11   16      2.97      0.00
   11   11   16      3.68      0.00
   13   11   16      1.40      0.00
  -32   12   16     -4.23      0.00
  -30   12   16      3.46      0.00
  -28   12   16      0.48      0.00
  -26   12   16     -2.37      0.00
  -24   12   16      0.70      0.00
  -22   12   16     -1.19      0.00
  -20   12   16      0.53      0.00
  -18   12   16     -0.04      0.00
  -16   12   16     -2.06      0.00
  -14   12   16     -3.23      0.00
  -12   12   16     -2.34      0.00
  -10   12   16     -3.65      0.00
   -8   12   16      0.17      0.00
   -6   12   16      3.16      0.00
   -4   12   16      7.52      0.00
   -2   12   16     11.36      0.00
    0   12   16     14.50      0.00
    2   12   16      8.11      0.00
    4   12   16      3.88      0.00
    6   12   16      0.45      0.00
    8   12   16      0.11      0.00
   10   12   16     -1.90      0.00
   12   12   16     -1.52      0.00
   14   12   16     -1.61      0.00
  -31   13   16      1.03      0.00
  -29   13   16     -3.80      0.00
  -27   13   16      4.34      0.00
  -25   13   16     -1.15      0.00
  -23   13   16      2.24      0.00
  -21   13   16      4.02      0.00
  -19   13   16      0.67      0.00
  -17   13   16      0.79      0.00
  -15   13   16      1.92      0.00
  -13   13   16      3.89      0.00
  -11   13   16      2.79      0.00
   -9   13   16      3.33      0.00
   -7   13   16     -2.21      0.00
   -5   13   16     -4.25      0.00
   -3   13   16     -6.36      0.00
   -1   13   16    -11.30      0.00
    1   13   16     -9.04      0.00
    3   13   16     -7.04      0.00
    5   13   16     -1.82      0.00
    7   13   16     -1.51      0.00
    9   13   16     -1.94      0.00
   11   13   16      0.83      0.00
  -30   14   16      2.67      0.00
  -28   14   16     -2.31      0.00
  -26   14   16     -2.07      0.00
  -24   14   16     -0.81      0.00
  -22   14   16     -6.70      0.00
  -20   14   16     -5.26      0.00
  -18   14   16     -0.17      0.00
  -16   14   16      0.71      0.00
  -14   14   16     -2.75      0.00
  -12   14   16     -3.15      0.00
  -10   14   16     -4.56      0.00
   -8   14   16     -0.29      0.00
   -6   14   16      3.11      0.00
   -4   14   16      3.01      0.00
   -2   14   16      4.57      0.00
    0   14   16      6.36      0.00
    2   14   16      5.40      0.00
    4   14   16      3.27      0.00
    6   14   16     -1.17      0.00
    8   14   16      3.02      0.00
   10   14   16      1.57      0.00
  -29   15   16     -0.53      0.00
  -27   15   16      4.81      0.00
  -25   15   16      1.11      0.00
  -23   15   16      5.31      0.00
  -21   15   16      7.76      0.00
  -19   15   16      1.62      0.00
  -17   15   16     -1.09      0.00
  -15   15   16     -2.36      0.00
  -13   15   16      4.03      0.00
  -11   15   16      2.26      0.00
   -9   15   16      4.61      0.00
   -7   15   16     -3.06      0.00
   -5   15   16     -2.10      0.00
   -3   15   16     -2.21      0.00
   -1   15   16     -3.23      0.00
    1   15   16     -3.10      0.00
    3   15   16     -2.27      0.00
    5   15   16      2.83      0.00
    7   15   16      2.08      0.00
    9   15   16     -1.88      0.00
  -26   16   16     -3.81      0.00
  -24   16   16     -3.77      0.00
  -22   16   16     -5.70      0.00
  -20   16   16     -2.37      0.00
  -18   16   16      1.57      0.00
  -16   16   16      2.93      0.00
  -14   16   16      0.83      0.00
  -12   16   16     -2.11      0.00
  -10   16   16     -2.02      0.00
   -8   16   16     -0.85      0.00
   -6   16   16      3.30      0.00
   -4   16   16      1.45      0.00
   -2   16   16      3.39      0.00
    0   16   16      3.87      0.00
    2   16   16      0.71      0.00
    4   16   16     -2.38      0.00
    6   16   16     -6.67      0.00
    8   16   16     -2.41      0.00
  -25   17   16      4.32      0.00
  -23   17   16      4.21      0.00
  -21   17   16      1.12      0.00
  -19   17   16     -3.51      0.00
  -17   17   16     -0.99      0.00
  -15   17   16     -4.23      0.00
  -13   17   16      1.14      0.00
  -11   17   16     -2.40      0.00
   -9   17   16      1.20      0.00
   -7   17   16     -3.58      0.00
   -5   17   16      0.21      0.00
   -3   17   16     -3.69      0.00
   -1   17   16     -5.24      0.00
    1   17   16     -3.09      0.00
    3   17   16      2.77      0.00
    5   17   16      5.42      0.00
    7   17   16      7.15      0.00
  -24   18   16     -4.98      0.00
  -22   18   16     -1.95      0.00
  -20   18   16      4.30      0.00
  -18   18   16      2.16      0.00
  -16   18   16      2.16      0.00
  -14   18   16      1.69      0.00
  -12   18   16      1.83      0.00
  -10   18   16      2.64      0.00
   -8   18   16      3.75      0.00
   -6   18   16      0.38      0.00
   -4   18   16      0.10      0.00
   -2   18   16      5.63      0.00
    0   18   16      4.60      0.00
    2   18   16     -0.95      0.00
    4   18   16     -3.63      0.00
  -23   19   16      5.12      0.00
  -19   19   16     -3.42      0.00
  -17   19   16     -0.80      0.00
  -15   19   16     -2.15      0.00
  -13   19   16     -0.25      0.00
  -11   19   16     -2.36      0.00
   -9   19   16     -3.79      0.00
   -7   19   16     -3.91      0.00
   -5   19   16      3.26      0.00
   -3   19   16     -4.08      0.00
   -1   19   16     -4.04      0.00
  -18   20   16      0.75      0.00
  -16   20   16      1.66      0.00
  -14   20   16     -0.60      0.00
  -12   20   16      0.01      0.00
  -10   20   16      0.73      0.00
   -8   20   16      5.59      0.00
   -6   20   16     -1.51      0.00
   -4   20   16      0.28      0.00
   -2   20   16      4.56      0.00
  -39    1   17      1.65      0.00
  -37    1   17      1.36      0.00
  -35    1   17      1.78      0.00
  -33    1   17      2.33      0.00
  -31    1   17      1.20      0.00
  -29    1   17      1.93      0.00
  -27    1   17      0.55      0.00
  -25    1   17      1.58      0.00
  -23    1   17      4.76      0.00
  -21    1   17      3.67      0.00
  -19    1   17     -0.45      0.00
  -17    1   17      1.91      0.00
  -15    1   17     -0.60      0.00
  -13    1   17     -5.26      0.00
  -11    1   17     -3.92      0.00
   -9    1   17     -2.71      0.00
   -7    1   17     -5.99      0.00
   -5    1   17     -3.61      0.00
   -3    1   17     -1.06      0.00
   -1    1   17     -2.15      0.00
    1    1   17     -1.75      0.00
    3    1   17      1.98      0.00
    5    1   17      2.01      0.00
    7    1   17      0.29      0.00
    9    1   17      1.02      0.00
   11    1   17      0.28      0.00
   13    1   17      1.52      0.00
   15    1   17      1.71      0.00
   17    1   17      3.32      0.00
  -38    2   17     -2.71      0.00
  -36    2   17     -1.11      0.00
  -34    2   17     -3.03      0.00
  -32    2   17     -2.28      0.00
  -30    2   17     -3.25      0.00
  -28    2   17     -3.08      0.00
  -26    2   17     -0.68      0.00
  -24    2   17     -5.37      0.00
  -22    2   17     -8.17      0.00
  -20    2   17     -1.88      0.00
  -18    2   17     -1.04      0.00
  -16    2   17     -3.15      0.00
  -14    2   17      5.75      0.00
  -12    2   17      8.84      0.00
  -10    2   17      4.86      0.00
   -8    2   17      6.78      0.00
   -6    2   17     11.47      0.00
   -4    2   17      4.22      0.00
   -2    2   17      5.30      0.00
    0    2   17      3.12      0.00
    2    2   17      1.16      0.00
    4    2   17     -5.22      0.00
    6    2   17     -0.40      0.00
    8    2   17     -2.80      0.00
   10    2   17     -1.17      0.00
   12    2   17     -2.36      0.00
   14    2   17     -2.16      0.00
   16    2   17     -5.07      0.00
  -39    3   17      2.07      0.00
  -37    3   17      0.33      0.00
  -35    3   17      0.75      0.00
  -33    3   17      1.56      0.00
  -31    3   17      3.24      0.00
  -29    3   17      5.99      0.00
  -27    3   17      1.70      0.00
  -25    3   17      2.19      0.00
  -23    3   17      8.24      0.00
  -21    3   17      5.90      0.00
  -19    3   17      1.13      0.00
  -17    3   17      3.86      0.00
  -15    3   17     -0.15      0.00
  -13    3   17    -10.58      0.00
  -11    3   17     -8.24      0.00
   -9    3   17     -4.63      0.00
   -7    3   17    -12.14      0.00
   -5    3   17    -11.47      0.00
   -3    3   17     -8.69      0.00
   -1    3   17     -5.66      0.00
    1    3   17     -3.30      0.00
    3    3   17      2.63      0.00
    5    3   17      2.68      0.00
    7    3   17      0.57      0.00
    9    3   17      4.16      0.00
   11    3   17      2.10      0.00
   13    3   17      3.27      0.00
   15    3   17      3.48      0.00
   17    3   17      6.51      0.00
  -38    4   17     -0.49      0.00
  -36    4   17      2.01      0.00
  -34    4   17      0.61      0.00
  -32    4   17     -1.12      0.00
  -30    4   17     -6.82      0.00
  -28    4   17     -4.70      0.00
  -26    4   17     -0.24      0.00
  -24    4   17     -3.37      0.00
  -22    4   17     -7.42      0.00
  -20    4   17     -2.66      0.00
  -18    4   17     -4.05      0.00
  -16    4   17     -2.73      0.00
  -14    4   17      5.65      0.00
  -12    4   17     11.00      0.00
  -10    4   17      4.87      0.00
   -8    4   17      4.99      0.00
   -6    4   17     13.43      0.00
   -4    4   17     11.18      0.00
   -2    4   17      9.44      0.00
    0    4   17      2.00      0.00
    2    4   17      2.28      0.00
    4    4   17     -3.16      0.00
    6    4   17      2.37      0.00
    8    4   17     -1.88      0.00
   10    4   17     -2.96      0.00
   12    4   17     -3.05      0.00
   14    4   17     -2.16      0.00
   16    4   17     -4.78      0.00
  -37    5   17     -1.98      0.00
  -35    5   17     -3.24      0.00
  -33    5   17     -1.05      0.00
  -31    5   17      4.03      0.00
  -29    5   17      6.70      0.00
  -27    5   17      1.48      0.00
  -25    5   17     -1.93      0.00
  -23    5   17      4.78      0.00
  -21    5   17      2.64      0.00
  -19    5   17      5.52      0.00
  -17    5   17      2.80      0.00
  -15    5   17     -0.26      0.00
  -13    5   17     -9.39      0.00
  -11    5   17     -6.36      0.00
   -9    5   17     -0.55      0.00
   -7    5   17     -5.42      0.00
   -5    5   17    -10.86      0.00
   -3    5   17    -10.32      0.00
   -1    5   17     -1.36      0.00
    1    5   17     -1.55      0.00
    3    5   17     -0.35      0.00
    5    5   17     -1.85      0.00
    7    5   17     -4.50      0.00
    9    5   17      1.18      0.00
   11    5   17      1.84      0.00
   13    5   17      1.13      0.00
   15    5   17      1.24      0.00
   17    5   17      2.57      0.00
  -38    6   17      0.55      0.00
  -36    6   17      3.18      0.00
  -34    6   17      3.48      0.00
  -32    6   17     -0.39      0.00
  -30    6   17     -5.10      0.00
  -28    6   17     -2.87      0.00
  -26    6   17      2.47      0.00
  -24    6   17      1.81      0.00
  -22    6   17     -2.52      0.00
  -20    6   17     -2.59      0.00
  -18    6   17     -5.68      0.00
  -16    6   17     -0.53      0.00
  -14    6   17      3.93      0.00
  -12    6   17      6.11      0.00
  -10    6   17      0.29      0.00
   -8    6   17     -2.35      0.00
   -6    6   17      4.78      0.00
   -4    6   17      8.84      0.00
   -2    6   17      1.66      0.00
    0    6   17     -2.52      0.00
    2    6   17      1.66      0.00
    4    6   17      1.72      0.00
    6    6   17      5.73      0.00
    8    6   17      4.03      0.00
   10    6   17     -0.66      0.00
   12    6   17      0.35      0.00
   14    6   17      2.10      0.00
   16    6   17      0.08      0.00
  -37    7   17     -0.21      0.00
  -35    7   17     -4.80      0.00
  -33    7   17     -3.09      0.00
  -31    7   17      1.04      0.00
  -29    7   17      2.29      0.00
  -27    7   17     -0.90      0.00
  -25    7   17     -5.51      0.00
  -23    7   17     -0.12      0.00
  -21    7   17     -1.31      0.00
  -19    7   17      5.67      0.00
  -17    7   17      1.48      0.00
  -15    7   17     -0.03      0.00
  -13    7   17     -3.26      0.00
  -11    7   17      0.30      0.00
   -9    7   17      4.07      0.00
   -7    7   17      2.17      0.00
   -5    7   17     -4.32      0.00
   -3    7   17     -3.39      0.00
   -1    7   17      5.47      0.00
    1    7   17      0.33      0.00
    3    7   17     -2.00      0.00
    5    7   17     -4.00      0.00
    7    7   17     -5.93      0.00
    9    7   17     -1.03      0.00
   11    7   17     -0.08      0.00
   13    7   17     -3.94      0.00
   15    7   17     -3.34      0.00
  -36    8   17      1.61      0.00
  -34    8   17      6.47      0.00
  -32    8   17      3.21      0.00
  -30    8   17     -0.50      0.00
  -28    8   17      1.55      0.00
  -26    8   17      3.60      0.00
  -24    8   17      4.35      0.00
  -22    8   17      2.46      0.00
  -20    8   17     -0.59      0.00
  -18    8   17     -3.49      0.00
  -16    8   17     -0.63      0.00
  -14    8   17     -0.23      0.00
  -12    8   17     -2.14      0.00
  -10    8   17     -3.68      0.00
   -8    8   17     -4.47      0.00
   -6    8   17     -1.44      0.00
   -4    8   17      3.34      0.00
   -2    8   17     -4.57      0.00
    0    8   17     -2.84      0.00
    2    8   17      1.30      0.00
    4    8   17      3.57      0.00
    6    8   17      5.20      0.00
    8    8   17      2.61      0.00
   10    8   17     -1.34      0.00
   12    8   17      2.04      0.00
   14    8   17      5.32      0.00
  -35    9   17     -5.25      0.00
  -33    9   17     -6.61      0.00
  -31    9   17     -1.89      0.00
  -29    9   17     -2.07      0.00
  -27    9   17     -3.11      0.00
  -25    9   17     -3.49      0.00
  -23    9   17     -4.06      0.00
  -21    9   17     -3.17      0.00
  -19    9   17      2.82      0.00
  -17    9   17      1.15      0.00
  -15    9   17      0.80      0.00
  -13    9   17      4.32      0.00
  -11    9   17      3.83      0.00
   -9    9   17      4.39      0.00
   -7    9   17      2.92      0.00
   -5    9   17      0.89      0.00
   -3    9   17      1.23      0.00
   -1    9   17      4.95      0.00
    1    9   17     -0.80      0.00
    3    9   17     -2.93      0.00
    5    9   17     -5.36      0.00
    7    9   17     -5.27      0.00
    9    9   17      1.22      0.00
   11    9   17      0.73      0.00
   13    9   17     -3.24      0.00
  -36   10   17      1.34      0.00
  -34   10   17      6.30      0.00
  -32   10   17      3.79      0.00
  -30   10   17      1.35      0.00
  -28   10   17      4.87      0.00
  -26   10   17      0.72      0.00
  -24   10   17      3.96      0.00
  -22   10   17      4.72      0.00
  -20   10   17      0.07      0.00
  -18   10   17     -3.03      0.00
  -16   10   17      0.29      0.00
  -14   10   17     -3.30      0.00
  -12   10   17     -5.88      0.00
  -10   10   17     -3.41      0.00
   -8   10   17     -3.05      0.00
   -6   10   17     -2.00      0.00
   -4   10   17     -0.95      0.00
   -2   10   17     -3.87      0.00
    0   10   17     -1.31      0.00
    2   10   17      1.66      0.00
    4   10   17      4.76      0.00
    6   10   17      7.93      0.00
    8   10   17      2.18      0.00
   10   10   17     -0.78      0.00
   12   10   17      0.60      0.00
  -35   11   17     -2.97      0.00
  -33   11   17     -3.20      0.00
  -31   11   17     -0.81      0.00
  -29   11   17     -4.74      0.00
  -27   11   17     -2.14      0.00
  -25   11   17     -0.45      0.00
  -23   11   17     -5.61      0.00
  -21   11   17     -2.63      0.00
  -19   11   17      3.04      0.00
  -17   11   17      2.05      0.00
  -15   11   17     -1.02      0.00
  -13   11   17      5.93      0.00
  -11   11   17      3.75      0.00
   -9   11   17      3.66      0.00
   -7   11   17      1.16      0.00
   -5   11   17      0.51      0.00
   -3   11   17      1.29      0.00
   -1   11   17      2.18      0.00
    1   11   17      1.41      0.00
    3   11   17     -2.23      0.00
    5   11   17     -7.66      0.00
    7   11   17     -6.06      0.00
    9   11   17     -1.04      0.00
   11   11   17     -1.51      0.00
   13   11   17     -1.18      0.00
  -32   12   17     -0.52      0.00
  -30   12   17      3.39      0.00
  -28   12   17      4.85      0.00
  -26   12   17     -0.69      0.00
  -24   12   17      3.88      0.00
  -22   12   17      4.25      0.00
  -20   12   17     -0.59      0.00
  -18   12   17     -4.47      0.00
  -16   12   17      0.89      0.00
  -14   12   17      0.18      0.00
  -12   12   17     -4.51      0.00
  -10   12   17     -3.24      0.00
   -8   12   17     -3.24      0.00
   -6   12   17      0.56      0.00
   -4   12   17      0.34      0.00
   -2   12   17      0.40      0.00
    0   12   17     -3.14      0.00
    2   12   17     -2.39      0.00
    4   12   17      4.66      0.00
    6   12   17      7.35      0.00
    8   12   17      2.25      0.00
   10   12   17      3.11      0.00
   12   12   17      2.34      0.00
  -31   13   17     -0.71      0.00
  -29   13   17     -6.16      0.00
  -27   13   17     -1.57      0.00
  -25   13   17     -1.85      0.00
  -23   13   17     -3.90      0.00
  -21   13   17     -0.80      0.00
  -19   13   17      2.49      0.00
  -17   13   17      2.38      0.00
  -15   13   17     -3.95      0.00
  -13   13   17     -0.97      0.00
  -11   13   17      3.22      0.00
   -9   13   17      3.11      0.00
   -7   13   17      3.05      0.00
   -5   13   17     -0.67      0.00
   -3   13   17     -0.95      0.00
   -1   13   17     -0.11      0.00
    1   13   17      5.34      0.00
    3   13   17      0.25      0.00
    5   13   17     -6.76      0.00
    7   13   17     -2.88      0.00
    9   13   17     -2.49      0.00
   11   13   17     -3.33      0.00
  -30   14   17      4.95      0.00
  -28   14   17      3.50      0.00
  -26   14   17      2.49      0.00
  -24   14   17      2.30      0.00
  -22   14   17     -0.15      0.00
  -20   14   17     -1.06      0.00
  -18   14   17     -0.91      0.00
  -16   14   17      1.67      0.00
  -14   14   17      7.30      0.00
  -12   14   17      0.23      0.00
  -10   14   17     -1.35      0.00
   -8   14   17     -4.28      0.00
   -6   14   17     -2.91      0.00
   -4   14   17     -1.35      0.00
   -2   14   17      1.59      0.00
    0   14   17     -2.64      0.00
    2   14   17     -3.41      0.00
    4   14   17      3.41      0.00
    6   14   17      4.85      0.00
    8   14   17      0.84      0.00
  -29   15   17     -4.05      0.00
  -27   15   17     -2.42      0.00
  -25   15   17     -3.00      0.00
  -23   15   17      1.68      0.00
  -21   15   17      3.23      0.00
  -19   15   17     -1.64      0.00
  -17   15   17     -1.68      0.00
  -15   15   17     -6.52      0.00
  -13   15   17     -6.52      0.00
  -11   15   17      0.28      0.00
   -9   15   17      0.29      0.00
   -7   15   17      5.03      0.00
   -5   15   17      3.38      0.00
   -3   15   17      1.74      0.00
   -1   15   17     -0.83      0.00
    1   15   17      1.98      0.00
    3   15   17     -0.15      0.00
    5   15   17     -4.46      0.00
    7   15   17     -1.69      0.00
  -26   16   17      3.45      0.00
  -24   16   17     -0.10      0.00
  -22   16   17     -5.45      0.00
  -20   16   17     -0.13      0.00
  -18   16   17      3.86      0.00
  -16   16   17      4.15      0.00
  -14   16   17      7.57      0.00
  -12   16   17      3.16      0.00
  -10   16   17      1.00      0.00
   -8   16   17     -0.97      0.00
   -6   16   17     -3.29      0.00
   -4   16   17     -3.36      0.00
   -2   16   17      0.49      0.00
    0   16   17      1.07      0.00
    2   16   17      0.54      0.00
    4   16   17      1.20      0.00
    6   16   17      2.94      0.00
  -25   17   17     -2.46      0.00
  -23   17   17      2.89      0.00
  -21   17   17      3.85      0.00
  -19   17   17     -3.99      0.00
  -17   17   17     -2.39      0.00
  -15   17   17     -5.19      0.00
  -13   17   17     -5.01      0.00
  -11   17   17     -2.13      0.00
   -9   17   17     -0.89      0.00
   -7   17   17      0.25      0.00
   -5   17   17      1.98      0.00
   -3   17   17      0.30      0.00
   -1   17   17     -3.22      0.00
    1   17   17     -2.12      0.00
    3   17   17     -0.28      0.00
    5   17   17     -1.15      0.00
  -24   18   17      1.50      0.00
  -22   18   17     -3.22      0.00
  -20   18   17      1.82      0.00
  -18   18   17      0.70      0.00
  -16   18   17      2.14      0.00
  -14   18   17      2.91      0.00
  -12   18   17      5.12      0.00
  -10   18   17     -0.13      0.00
   -8   18   17      1.38      0.00
   -6   18   17     -1.31      0.00
   -4   18   17      0.28      0.00
   -2   18   17      3.65      0.00
    0   18   17      4.38      0.00
  -19   19   17     -1.28      0.00
  -17   19   17      2.15      0.00
  -15   19   17     -1.08      0.00
  -13   19   17     -3.39      0.00
  -11   19   17     -2.59      0.00
   -9   19   17      0.45      0.00
   -7   19   17      1.39      0.00
   -5   19   17      1.33      0.00
   -3   19   17     -3.11      0.00
   -1   19   17     -5.25      0.00
  -16   20   17     -0.76      0.00
  -14   20   17     -0.36      0.00
  -12   20   17      3.70      0.00
  -10   20   17     -0.93      0.00
   -8   20   17     -0.55      0.00
   -6   20   17     -4.87      0.00
   -4   20   17      2.46      0.00
  -38    0   18      1.68      0.00
  -36    0   18      3.21      0.00
  -34    0   18      3.64      0.00
  -32    0   18      0.99      0.00
  -30    0   18      0.41      0.00
  -28    0   18     -4.70      0.00
  -26    0   18     -2.92      0.00
  -24    0   18      1.91      0.00
  -22    0   18     -1.08      0.00
  -20    0   18     -5.17      0.00
  -18    0   18     -2.68      0.00
  -16    0   18    -10.50      0.00
  -14    0   18    -16.44      0.00
  -12    0   18     -6.55      0.00
  -10    0   18     -5.96      0.00
   -8    0   18    -15.58      0.00
   -6    0   18     -4.49      0.00
   -4    0   18      5.64      0.00
   -2    0   18      4.18      0.00
    0    0   18      4.27      0.00
    2    0   18      8.06      0.00
    4    0   18      1.60      0.00
    6    0   18      0.42      0.00
    8    0   18      1.93      0.00
   10    0   18      0.00      0.00
   12    0   18     -0.21      0.00
   14    0   18     -1.81      0.00
  -37    1   18     -1.49      0.00
  -35    1   18     -3.20      0.00
  -33    1   18     -1.95      0.00
  -31    1   18     -1.66      0.00
  -29    1   18      1.92      0.00
  -27    1   18      4.41      0.00
  -25    1   18      1.04      0.00
  -23    1   18     -1.59      0.00
  -21    1   18      4.26      0.00
  -19    1   18      2.12      0.00
  -17    1   18      5.19      0.00
  -15    1   18     13.47      0.00
  -13    1   18     11.22      0.00
  -11    1   18      2.50      0.00
   -9    1   18      9.59      0.00
   -7    1   18     13.05      0.00
   -5    1   18     -2.34      0.00
   -3    1   18     -3.65      0.00
   -1    1   18     -5.23      0.00
    1    1   18     -4.73      0.00
    3    1   18     -6.12      0.00
    5    1   18      2.30      0.00
    7    1   18     -3.37      0.00
    9    1   18      0.11      0.00
   11    1   18     -1.89      0.00
   13    1   18      3.54      0.00
   15    1   18     -3.63      0.00
  -38    2   18      1.76      0.00
  -36    2   18      0.62      0.00
  -34    2   18      1.47      0.00
  -32    2   18      2.32      0.00
  -30    2   18      1.70      0.00
  -28    2   18     -3.51      0.00
  -26    2   18     -3.18      0.00
  -24    2   18     -0.34      0.00
  -22    2   18     -1.69      0.00
  -20    2   18     -0.68      0.00
  -18    2   18     -2.22      0.00
  -16    2   18     -6.17      0.00
  -14    2   18    -11.05      0.00
  -12    2   18     -1.95      0.00
  -10    2   18     -0.32      0.00
   -8    2   18    -10.01      0.00
   -6    2   18     -6.79      0.00
   -4    2   18      1.53      0.00
   -2    2   18      4.97      0.00
    0    2   18      3.83      0.00
    2    2   18      4.17      0.00
    4    2   18     -1.13      0.00
    6    2   18     -0.99      0.00
    8    2   18      2.71      0.00
   10    2   18      1.92      0.00
   12    2   18     -0.17      0.00
   14    2   18     -2.50      0.00
   16    2   18      5.20      0.00
  -39    3   18     -2.02      0.00
  -37    3   18     -0.93      0.00
  -35    3   18      1.45      0.00
  -33    3   18     -1.76      0.00
  -31    3   18     -3.22      0.00
  -29    3   18      1.12      0.00
  -27    3   18      2.81      0.00
  -25    3   18      2.86      0.00
  -23    3   18      1.17      0.00
  -21    3   18     -0.03      0.00
  -19    3   18     -1.79      0.00
  -17    3   18      3.70      0.00
  -15    3   18      4.81      0.00
  -13    3   18      2.86      0.00
  -11    3   18     -5.79      0.00
   -9    3   18     -1.46      0.00
   -7    3   18      7.74      0.00
   -5    3   18      4.05      0.00
   -3    3   18     -2.52      0.00
   -1    3   18     -4.60      0.00
    1    3   18     -0.65      0.00
    3    3   18      0.93      0.00
    5    3   18      5.28      0.00
    7    3   18      0.00      0.00
    9    3   18     -2.74      0.00
   11    3   18     -3.11      0.00
   13    3   18      2.61      0.00
   15    3   18     -0.37      0.00
  -38    4   18      3.27      0.00
  -36    4   18     -2.57      0.00
  -34    4   18     -0.23      0.00
  -32    4   18      1.73      0.00
  -30    4   18      0.59      0.00
  -28    4   18     -2.28      0.00
  -26    4   18     -2.45      0.00
  -24    4   18     -1.40      0.00
  -22    4   18     -1.35      0.00
  -20    4   18      5.50      0.00
  -18    4   18     -2.43      0.00
  -16    4   18     -1.16      0.00
  -14    4   18     -1.20      0.00
  -12    4   18      7.16      0.00
  -10    4   18      9.46      0.00
   -8    4   18      1.57      0.00
   -6    4   18     -6.43      0.00
   -4    4   18     -1.42      0.00
   -2    4   18      4.04      0.00
    0    4   18     -0.02      0.00
    2    4   18     -2.68      0.00
    4    4   18     -5.35      0.00
    6    4   18     -5.44      0.00
    8    4   18      0.27      0.00
   10    4   18      3.96      0.00
   12    4   18      0.80      0.00
   14    4   18     -2.16      0.00
   16    4   18      0.63      0.00
  -37    5   18     -1.25      0.00
  -35    5   18      3.87      0.00
  -33    5   18     -0.29      0.00
  -31    5   18      0.84      0.00
  -29    5   18      2.59      0.00
  -27    5   18      1.18      0.00
  -25    5   18      1.17      0.00
  -23    5   18      0.95      0.00
  -21    5   18     -3.48      0.00
  -19    5   18     -2.97      0.00
  -17    5   18      2.22      0.00
  -15    5   18     -2.05      0.00
  -13    5   18     -6.18      0.00
  -11    5   18    -10.96      0.00
   -9    5   18     -8.04      0.00
   -7    5   18      1.45      0.00
   -5    5   18      5.58      0.00
   -3    5   18     -2.16      0.00
   -1    5   18     -0.22      0.00
    1    5   18      2.53      0.00
    3    5   18      4.27      0.00
    5    5   18      4.77      0.00
    7    5   18      3.91      0.00
    9    5   18     -1.61      0.00
   11    5   18     -2.21      0.00
   13    5   18      1.82      0.00
   15    5   18      1.17      0.00
  -38    6   18      4.26      0.00
  -36    6   18     -4.00      0.00
  -34    6   18     -2.77      0.00
  -32    6   18     -2.60      0.00
  -30    6   18     -4.03      0.00
  -28    6   18     -2.49      0.00
  -26    6   18      0.15      0.00
  -24    6   18     -0.42      0.00
  -22    6   18      0.95      0.00
  -20    6   18      5.39      0.00
  -18    6   18     -0.79      0.00
  -16    6   18      2.82      0.00
  -14    6   18      6.25      0.00
  -12    6   18      9.04      0.00
  -10    6   18      7.10      0.00
   -8    6   18      2.33      0.00
   -6    6   18     -5.29      0.00
   -4    6   18     -2.95      0.00
   -2    6   18      0.21      0.00
    0    6   18     -1.95      0.00
    2    6   18     -2.76      0.00
    4    6   18     -1.20      0.00
    6    6   18     -2.61      0.00
    8    6   18     -0.82      0.00
   10    6   18      0.68      0.00
   12    6   18     -1.65      0.00
   14    6   18     -2.73      0.00
  -37    7   18     -0.23      0.00
  -35    7   18      6.29      0.00
  -33    7   18      3.61      0.00
  -31    7   18      5.36      0.00
  -29    7   18      5.74      0.00
  -27    7   18      0.10      0.00
  -25    7   18      0.60      0.00
  -23    7   18      0.45      0.00
  -21    7   18     -3.92      0.00
  -19    7   18     -2.12      0.00
  -17    7   18     -1.75      0.00
  -15    7   18     -7.33      0.00
  -13    7   18     -6.87      0.00
  -11    7   18     -3.98      0.00
   -9    7   18      0.29      0.00
   -7    7   18      2.70      0.00
   -5    7   18      6.77      0.00
   -3    7   18      2.75      0.00
   -1    7   18      2.67      0.00
    1    7   18      1.91      0.00
    3    7   18      0.23      0.00
    5    7   18     -1.14      0.00
    7    7   18     -0.19      0.00
    9    7   18      0.31      0.00
   11    7   18      2.03      0.00
   13    7   18      4.22      0.00
   15    7   18      2.39      0.00
  -36    8   18     -4.43      0.00
  -34    8   18     -5.34      0.00
  -32    8   18     -4.97      0.00
  -30    8   18     -7.74      0.00
  -28    8   18     -3.88      0.00
  -26    8   18      0.08      0.00
  -24    8   18     -3.50      0.00
  -22    8   18      1.85      0.00
  -20    8   18      2.80      0.00
  -18    8   18      1.40      0.00
  -16    8   18      5.39      0.00
  -14    8   18      7.45      0.00
  -12    8   18      0.68      0.00
  -10    8   18     -3.27      0.00
   -8    8   18     -4.57      0.00
   -6    8   18     -5.23      0.00
   -4    8   18     -6.29      0.00
   -2    8   18     -4.78      0.00
    0    8   18     -2.34      0.00
    2    8   18     -2.13      0.00
    4    8   18      1.89      0.00
    6    8   18      0.92      0.00
    8    8   18      1.17      0.00
   10    8   18     -2.22      0.00
   12    8   18     -3.72      0.00
   14    8   18     -4.43      0.00
  -35    9   18      4.26      0.00
  -33    9   18      3.46      0.00
  -31    9   18      7.30      0.00
  -29    9   18      7.00      0.00
  -27    9   18      1.23      0.00
  -25    9   18      4.03      0.00
  -23    9   18      2.95      0.00
  -21    9   18     -2.11      0.00
  -19    9   18     -1.61      0.00
  -17    9   18     -1.28      0.00
  -15    9   18     -6.80      0.00
  -13    9   18      0.32      0.00
  -11    9   18      4.69      0.00
   -9    9   18      7.68      0.00
   -7    9   18      4.93      0.00
   -5    9   18      5.18      0.00
   -3    9   18      6.52      0.00
   -1    9   18      2.59      0.00
    1    9   18      3.39      0.00
    3    9   18      0.58      0.00
    5    9   18     -0.28      0.00
    7    9   18     -1.10      0.00
    9    9   18      1.18      0.00
   11    9   18      2.83      0.00
   13    9   18      3.96      0.00
  -34   10   18     -1.11      0.00
  -32   10   18     -4.22      0.00
  -30   10   18     -7.53      0.00
  -28   10   18     -2.86      0.00
  -26   10   18     -2.73      0.00
  -24   10   18     -5.95      0.00
  -22   10   18     -1.24      0.00
  -20   10   18      0.76      0.00
  -18   10   18     -0.06      0.00
  -16   10   18      1.21      0.00
  -14   10   18      0.42      0.00
  -12   10   18     -5.83      0.00
  -10   10   18     -7.89      0.00
   -8   10   18     -7.27      0.00
   -6   10   18     -4.28      0.00
   -4   10   18     -4.19      0.00
   -2   10   18     -3.62      0.00
    0   10   18     -0.02      0.00
    2   10   18     -3.18      0.00
    4   10   18      0.30      0.00
    6   10   18      0.29      0.00
    8   10   18     -0.65      0.00
   10   10   18     -2.14      0.00
   12   10   18     -2.62      0.00
  -33   11   18     -0.34      0.00
  -31   11   18      6.19      0.00
  -29   11   18      1.82      0.00
  -27   11   18      2.62      0.00
  -25   11   18      3.73      0.00
  -23   11   18      4.61      0.00
  -21   11   18      2.07      0.00
  -19   11   18      0.69      0.00
  -17   11   18      3.03      0.00
  -15   11   18      2.21      0.00
  -13   11   18      6.59      0.00
  -11   11   18      6.58      0.00
   -9   11   18      8.60      0.00
   -7   11   18      5.54      0.00
   -5   11   18      2.08      0.00
   -3   11   18      3.46      0.00
   -1   11   18     -2.42      0.00
    1   11   18      0.62      0.00
    3   11   18     -0.02      0.00
    5   11   18     -2.04      0.00
    7   11   18     -0.11      0.00
    9   11   18      1.24      0.00
   11   11   18      1.62      0.00
  -34   12   18      1.86      0.00
  -32   12   18     -1.69      0.00
  -30   12   18     -1.55      0.00
  -28   12   18      0.18      0.00
  -26   12   18     -3.05      0.00
  -24   12   18     -2.04      0.00
  -22   12   18     -5.12      0.00
  -20   12   18     -3.69      0.00
  -18   12   18     -4.46      0.00
  -16   12   18     -5.69      0.00
  -14   12   18     -8.45      0.00
  -12   12   18     -5.79      0.00
  -10   12   18     -8.44      0.00
   -8   12   18     -6.13      0.00
   -6   12   18     -3.22      0.00
   -4   12   18     -1.15      0.00
   -2   12   18     -0.31      0.00
    0   12   18      3.28      0.00
    2   12   18      0.44      0.00
    4   12   18      3.95      0.00
    6   12   18      3.08      0.00
    8   12   18     -0.35      0.00
   10   12   18      0.51      0.00
  -31   13   18      1.12      0.00
  -29   13   18     -3.67      0.00
  -27   13   18      3.15      0.00
  -25   13   18     -0.84      0.00
  -23   13   18      3.18      0.00
  -21   13   18      7.16      0.00
  -19   13   18      6.59      0.00
  -17   13   18      7.86      0.00
  -15   13   18      8.69      0.00
  -13   13   18      7.68      0.00
  -11   13   18      5.72      0.00
   -9   13   18      8.33      0.00
   -7   13   18      3.79      0.00
   -5   13   18      0.69      0.00
   -3   13   18      1.75      0.00
   -1   13   18     -1.38      0.00
    1   13   18     -0.74      0.00
    3   13   18     -4.50      0.00
    5   13   18     -5.54      0.00
    7   13   18     -1.62      0.00
    9   13   18     -1.94      0.00
  -30   14   18      3.53      0.00
  -28   14   18      0.54      0.00
  -26   14   18     -1.29      0.00
  -24   14   18      1.86      0.00
  -22   14   18     -6.87      0.00
  -20   14   18     -8.86      0.00
  -18   14   18     -9.31      0.00
  -16   14   18     -7.92      0.00
  -14   14   18     -7.47      0.00
  -12   14   18     -3.88      0.00
  -10   14   18     -8.03      0.00
   -8   14   18     -6.48      0.00
   -6   14   18     -1.71      0.00
   -4   14   18     -0.65      0.00
   -2   14   18     -1.52      0.00
    0   14   18     -1.13      0.00
    2   14   18      2.38      0.00
    4   14   18      7.11      0.00
    6   14   18      3.19      0.00
    8   14   18      2.29      0.00
  -29   15   18     -3.58      0.00
  -27   15   18      1.82      0.00
  -25   15   18     -2.23      0.00
  -23   15   18      1.83      0.00
  -21   15   18      9.47      0.00
  -19   15   18      7.91      0.00
  -17   15   18      8.88      0.00
  -15   15   18      3.29      0.00
  -13   15   18      3.99      0.00
  -11   15   18      2.63      0.00
   -9   15   18      9.27      0.00
   -7   15   18      3.75      0.00
   -5   15   18      0.67      0.00
   -3   15   18      1.19      0.00
   -1   15   18      1.97      0.00
    1   15   18      1.42      0.00
    3   15   18     -6.24      0.00
    5   15   18     -4.99      0.00
    7   15   18     -1.82      0.00
  -26   16   18      0.65      0.00
  -24   16   18      1.32      0.00
  -22   16   18     -5.85      0.00
  -20   16   18     -6.44      0.00
  -18   16   18     -5.61      0.00
  -16   16   18     -2.60      0.00
  -14   16   18     -0.51      0.00
  -12   16   18     -0.54      0.00
  -10   16   18     -3.83      0.00
   -8   16   18     -6.55      0.00
   -6   16   18     -0.58      0.00
   -4   16   18     -1.30      0.00
   -2   16   18     -1.03      0.00
    0   16   18     -1.98      0.00
    2   16   18      1.86      0.00
    4   16   18      6.18      0.00
    6   16   18      1.78      0.00
  -25   17   18     -1.50      0.00
  -23   17   18      1.56      0.00
  -21   17   18      5.21      0.00
  -19   17   18      0.29      0.00
  -17   17   18      2.07      0.00
  -15   17   18     -3.06      0.00
  -13   17   18      1.31      0.00
  -11   17   18     -2.32      0.00
   -9   17   18      4.35      0.00
   -7   17   18     -0.74      0.00
   -5   17   18      1.18      0.00
   -3   17   18      1.68      0.00
   -1   17   18      0.86      0.00
    1   17   18      0.37      0.00
    3   17   18     -3.13      0.00
  -24   18   18     -0.07      0.00
  -22   18   18     -3.09      0.00
  -20   18   18      0.70      0.00
  -18   18   18      1.95      0.00
  -16   18   18      3.39      0.00
  -14   18   18      0.76      0.00
  -12   18   18      0.97      0.00
  -10   18   18      0.45      0.00
   -8   18   18      2.16      0.00
   -6   18   18      2.21      0.00
   -4   18   18     -3.19      0.00
   -2   18   18     -1.56      0.00
  -19   19   18     -3.11      0.00
  -17   19   18     -3.94      0.00
  -15   19   18     -3.39      0.00
  -13   19   18      0.73      0.00
  -11   19   18     -0.39      0.00
   -9   19   18     -1.61      0.00
   -7   19   18     -5.84      0.00
   -5   19   18      2.28      0.00
   -3   19   18      2.74      0.00
  -16   20   18      5.12      0.00
  -12   20   18     -0.50      0.00
   -8   20   18      5.29      0.00
  -37    1   19     -0.84      0.00
  -35    1   19      0.43      0.00
  -33    1   19      0.48      0.00
  -31    1   19      0.95      0.00
  -29    1   19      3.02      0.00
  -27    1   19      2.07      0.00
  -25    1   19     -0.33      0.00
  -23    1   19      1.95      0.00
  -21    1   19      4.69      0.00
  -19    1   19      1.45      0.00
  -17    1   19      3.87      0.00
  -15    1   19      0.39      0.00
  -13    1   19     -0.99      0.00
  -11    1   19      0.31      0.00
   -9    1   19      0.60      0.00
   -7    1   19     -4.21      0.00
   -5    1   19     -2.70      0.00
   -3    1   19     -1.72      0.00
   -1    1   19     -3.14      0.00
    1    1   19     -4.69      0.00
    3    1   19     -3.01      0.00
    5    1   19     -0.63      0.00
    7    1   19      1.17      0.00
    9    1   19      3.88      0.00
   11    1   19      3.23      0.00
   13    1   19      1.08      0.00
  -38    2   19     -0.95      0.00
  -36    2   19      0.91      0.00
  -34    2   19     -0.92      0.00
  -32    2   19      0.64      0.00
  -30    2   19     -2.63      0.00
  -28    2   19     -5.78      0.00
  -26    2   19     -1.21      0.00
  -24    2   19     -0.72      0.00
  -22    2   19     -6.80      0.00
  -20    2   19     -3.76      0.00
  -18    2   19     -3.92      0.00
  -16    2   19     -4.54      0.00
  -14    2   19      0.21      0.00
  -12    2   19      0.54      0.00
  -10    2   19     -2.36      0.00
   -8    2   19      2.44      0.00
   -6    2   19      7.22      0.00
   -4    2   19      2.80      0.00
   -2    2   19      6.43      0.00
    0    2   19      6.24      0.00
    2    2   19      8.24      0.00
    4    2   19      1.73      0.00
    6    2   19      0.96      0.00
    8    2   19     -5.42      0.00
   10    2   19     -7.79      0.00
   12    2   19     -5.46      0.00
   14    2   19     -0.49      0.00
  -39    3   19      1.74      0.00
  -37    3   19     -1.03      0.00
  -35    3   19      1.30      0.00
  -33    3   19     -2.38      0.00
  -31    3   19     -1.29      0.00
  -29    3   19      5.80      0.00
  -27    3   19      5.27      0.00
  -25    3   19      1.00      0.00
  -23    3   19      4.32      0.00
  -21    3   19      6.12      0.00
  -19    3   19      1.18      0.00
  -17    3   19      6.17      0.00
  -15    3   19      3.10      0.00
  -13    3   19      0.43      0.00
  -11    3   19      0.91      0.00
   -9    3   19      1.98      0.00
   -7    3   19     -6.61      0.00
   -5    3   19     -4.83      0.00
   -3    3   19     -7.23      0.00
   -1    3   19     -7.91      0.00
    1    3   19     -8.79      0.00
    3    3   19     -4.87      0.00
    5    3   19     -0.87      0.00
    7    3   19      1.22      0.00
    9    3   19      9.49      0.00
   11    3   19     10.46      0.00
   13    3   19      4.78      0.00
  -38    4   19     -0.21      0.00
  -36    4   19     -0.84      0.00
  -34    4   19      0.66      0.00
  -32    4   19      5.25      0.00
  -30    4   19     -1.26      0.00
  -28    4   19     -7.40      0.00
  -26    4   19     -3.40      0.00
  -24    4   19     -2.71      0.00
  -22    4   19     -5.30      0.00
  -20    4   19      0.25      0.00
  -18    4   19     -3.36      0.00
  -16    4   19     -4.99      0.00
  -14    4   19     -3.00      0.00
  -12    4   19      0.52      0.00
  -10    4   19     -0.75      0.00
   -8    4   19      1.22      0.00
   -6    4   19      5.89      0.00
   -4    4   19      4.36      0.00
   -2    4   19      9.52      0.00
    0    4   19      4.97      0.00
    2    4   19      6.75      0.00
    4    4   19     -1.40      0.00
    6    4   19      0.99      0.00
    8    4   19     -3.98      0.00
   10    4   19    -11.04      0.00
   12    4   19     -9.02      0.00
   14    4   19     -2.99      0.00
  -37    5   19      0.72      0.00
  -35    5   19      1.39      0.00
  -33    5   19     -3.72      0.00
  -31    5   19     -4.20      0.00
  -29    5   19      5.01      0.00
  -27    5   19      5.49      0.00
  -25    5   19      2.08      0.00
  -23    5   19      5.20      0.00
  -21    5   19     -1.54      0.00
  -19    5   19     -0.09      0.00
  -17    5   19      3.65      0.00
  -15    5   19      4.18      0.00
  -13    5   19      0.07      0.00
  -11    5   19     -2.92      0.00
   -9    5   19     -0.75      0.00
   -7    5   19     -2.72      0.00
   -5    5   19     -2.83      0.00
   -3    5   19     -6.69      0.00
   -1    5   19     -3.02      0.00
    1    5   19     -3.06      0.00
    3    5   19      0.98      0.00
    5    5   19      3.49      0.00
    7    5   19     -0.92      0.00
    9    5   19      4.66      0.00
   11    5   19      8.98      0.00
   13    5   19      4.36      0.00
  -38    6   19      0.05      0.00
  -36    6   19     -2.47      0.00
  -34    6   19     -0.04      0.00
  -32    6   19      4.36      0.00
  -30    6   19      0.35      0.00
  -28    6   19     -5.20      0.00
  -26    6   19     -1.41      0.00
  -24    6   19     -3.78      0.00
  -22    6   19     -1.27      0.00
  -20    6   19      4.96      0.00
  -18    6   19     -1.89      0.00
  -16    6   19     -2.52      0.00
  -14    6   19     -0.71      0.00
  -12    6   19      3.04      0.00
  -10    6   19      4.78      0.00
   -8    6   19      0.06      0.00
   -6    6   19      1.46      0.00
   -4    6   19      3.28      0.00
   -2    6   19      2.75      0.00
    0    6   19     -1.41      0.00
    2    6   19     -0.36      0.00
    4    6   19     -5.80      0.00
    6    6   19     -2.35      0.00
    8    6   19      1.53      0.00
   10    6   19     -4.42      0.00
   12    6   19     -3.63      0.00
   14    6   19     -0.90      0.00
  -37    7   19      2.68      0.00
  -35    7   19      2.10      0.00
  -33    7   19     -0.45      0.00
  -31    7   19     -3.64      0.00
  -29    7   19      2.58      0.00
  -27    7   19      1.02      0.00
  -25    7   19     -0.41      0.00
  -23    7   19      4.63      0.00
  -21    7   19     -5.96      0.00
  -19    7   19     -1.68      0.00
  -17    7   19     -0.13      0.00
  -15    7   19      0.46      0.00
  -13    7   19     -2.14      0.00
  -11    7   19     -3.89      0.00
   -9    7   19     -2.24      0.00
   -7    7   19      1.87      0.00
   -5    7   19     -0.76      0.00
   -3    7   19     -2.89      0.00
   -1    7   19      2.37      0.00
    1    7   19      1.38      0.00
    3    7   19      3.36      0.00
    5    7   19      5.88      0.00
    7    7   19     -0.40      0.00
    9    7   19     -0.14      0.00
   11    7   19      2.43      0.00
   13    7   19     -0.99      0.00
  -36    8   19     -4.01      0.00
  -34    8   19     -1.57      0.00
  -32    8   19      2.59      0.00
  -30    8   19     -0.03      0.00
  -28    8   19     -0.36      0.00
  -26    8   19      2.27      0.00
  -24    8   19     -1.33      0.00
  -22    8   19      0.93      0.00
  -20    8   19      5.82      0.00
  -18    8   19      1.92      0.00
  -16    8   19      1.78      0.00
  -14    8   19      1.85      0.00
  -12    8   19     -0.28      0.00
  -10    8   19      2.23      0.00
   -8    8   19     -2.53      0.00
   -6    8   19     -3.83      0.00
   -4    8   19      1.53      0.00
   -2    8   19     -1.29      0.00
    0    8   19     -2.05      0.00
    2    8   19     -1.68      0.00
    4    8   19     -4.12      0.00
    6    8   19     -3.16      0.00
    8    8   19      0.84      0.00
   10    8   19     -1.48      0.00
   12    8   19      0.50      0.00
  -35    9   19      2.36      0.00
  -33    9   19     -0.73      0.00
  -31    9   19     -1.36      0.00
  -29    9   19      1.15      0.00
  -27    9   19     -2.66      0.00
  -25    9   19     -1.32      0.00
  -23    9   19      0.10      0.00
  -21    9   19     -4.92      0.00
  -19    9   19     -3.59      0.00
  -17    9   19     -3.74      0.00
  -15    9   19     -3.18      0.00
  -13    9   19      2.31      0.00
  -11    9   19      2.04      0.00
   -9    9   19      2.19      0.00
   -7    9   19      5.97      0.00
   -5    9   19      3.85      0.00
   -3    9   19      0.51      0.00
   -1    9   19      2.84      0.00
    1    9   19      1.82      0.00
    3    9   19      2.01      0.00
    5    9   19      4.31      0.00
    7    9   19     -0.16      0.00
    9    9   19      1.74      0.00
   11    9   19      0.04      0.00
  -34   10   19      0.24      0.00
  -32   10   19      1.91      0.00
  -30   10   19     -2.41      0.00
  -28   10   19      2.60      0.00
  -26   10   19      0.31      0.00
  -24   10   19      1.34      0.00
  -22   10   19      2.96      0.00
  -20   10   19      4.38      0.00
  -18   10   19      3.30      0.00
  -16   10   19      5.20      0.00
  -14   10   19     -0.70      0.00
  -12   10   19     -5.52      0.00
  -10   10   19     -3.54      0.00
   -8   10   19     -5.30      0.00
   -6   10   19     -7.13      0.00
   -4   10   19     -2.43      0.00
   -2   10   19     -2.79      0.00
    0   10   19     -2.37      0.00
    2   10   19     -2.55      0.00
    4   10   19     -3.67      0.00
    6   10   19     -1.33      0.00
    8   10   19     -1.30      0.00
   10   10   19     -0.66      0.00
  -33   11   19     -1.92      0.00
  -31   11   19      1.40      0.00
  -29   11   19     -0.67      0.00
  -27   11   19     -1.65      0.00
  -25   11   19      1.48      0.00
  -23   11   19     -3.31      0.00
  -21   11   19     -3.65      0.00
  -19   11   19     -3.44      0.00
  -17   11   19     -3.78      0.00
  -15   11   19     -3.32      0.00
  -13   11   19      5.60      0.00
  -11   11   19      3.99      0.00
   -9   11   19      5.08      0.00
   -7   11   19      5.64      0.00
   -5   11   19      4.14      0.00
   -3   11   19      1.79      0.00
   -1   11   19      0.79      0.00
    1   11   19      3.25      0.00
    3   11   19      2.94      0.00
    5   11   19      2.74      0.00
    7   11   19      0.63      0.00
    9   11   19      1.83      0.00
  -34   12   19      2.69      0.00
  -32   12   19      0.12      0.00
  -30   12   19     -0.23      0.00
  -28   12   19      3.60      0.00
  -26   12   19     -2.28      0.00
  -24   12   19      0.85      0.00
  -22   12   19      3.70      0.00
  -20   12   19      3.56      0.00
  -18   12   19      2.63      0.00
  -16   12   19      3.16      0.00
  -14   12   19     -1.53      0.00
  -12   12   19     -3.68      0.00
  -10   12   19     -2.99      0.00
   -8   12   19     -4.06      0.00
   -6   12   19     -2.79      0.00
   -4   12   19     -1.18      0.00
   -2   12   19      1.78      0.00
    0   12   19      0.66      0.00
    2   12   19     -3.18      0.00
    4   12   19     -1.31      0.00
    6   12   19     -0.84      0.00
    8   12   19     -1.94      0.00
  -31   13   19      0.31      0.00
  -29   13   19     -4.24      0.00
  -27   13   19     -0.38      0.00
  -25   13   19      1.47      0.00
  -23   13   19     -2.52      0.00
  -21   13   19     -3.05      0.00
  -19   13   19     -2.88      0.00
  -17   13   19     -1.04      0.00
  -15   13   19     -0.17      0.00
  -13   13   19      1.43      0.00
  -11   13   19      1.25      0.00
   -9   13   19      1.31      0.00
   -7   13   19      1.96      0.00
   -5   13   19      0.02      0.00
   -3   13   19     -0.70      0.00
   -1   13   19     -6.05      0.00
    1   13   19      0.15      0.00
    3   13   19      0.33      0.00
    5   13   19     -1.49      0.00
    7   13   19      1.64      0.00
    9   13   19     -1.36      0.00
  -30   14   19      3.51      0.00
  -28   14   19      1.86      0.00
  -26   14   19     -0.53      0.00
  -24   14   19      0.28      0.00
  -22   14   19      2.46      0.00
  -20   14   19      1.33      0.00
  -18   14   19      1.22      0.00
  -16   14   19     -1.81      0.00
  -14   14   19      0.58      0.00
  -12   14   19     -1.06      0.00
  -10   14   19      0.32      0.00
   -8   14   19     -1.15      0.00
   -6   14   19      0.03      0.00
   -4   14   19     -1.16      0.00
   -2   14   19      4.05      0.00
    0   14   19      5.59      0.00
    2   14   19      0.63      0.00
    4   14   19      3.46      0.00
    6   14   19      1.09      0.00
  -29   15   19     -2.64      0.00
  -27   15   19      1.31      0.00
  -25   15   19     -0.75      0.00
  -23   15   19     -0.53      0.00
  -21   15   19     -0.35      0.00
  -19   15   19      0.29      0.00
  -17   15   19      1.51      0.00
  -15   15   19      0.77      0.00
  -13   15   19     -0.52      0.00
  -11   15   19      2.52      0.00
   -9   15   19      0.54      0.00
   -7   15   19      1.96      0.00
   -5   15   19      0.18      0.00
   -3   15   19      1.67      0.00
   -1   15   19     -5.24      0.00
    1   15   19     -3.70      0.00
    3   15   19     -2.83      0.00
    5   15   19     -4.15      0.00
  -26   16   19     -0.04      0.00
  -24   16   19      0.45      0.00
  -22   16   19     -0.66      0.00
  -20   16   19     -1.33      0.00
  -18   16   19     -1.64      0.00
  -16   16   19     -0.89      0.00
  -14   16   19      1.21      0.00
  -12   16   19     -2.83      0.00
  -10   16   19     -4.04      0.00
   -8   16   19     -3.83      0.00
   -6   16   19     -0.10      0.00
   -4   16   19     -1.72      0.00
   -2   16   19      0.10      0.00
    0   16   19      3.68      0.00
    2   16   19      3.12      0.00
    4   16   19      3.40      0.00
  -25   17   19     -1.10      0.00
  -23   17   19      0.69      0.00
  -21   17   19      1.38      0.00
  -19   17   19      1.10      0.00
  -17   17   19      1.10      0.00
  -15   17   19     -1.79      0.00
  -13   17   19      0.13      0.00
  -11   17   19      4.92      0.00
   -9   17   19      6.40      0.00
   -7   17   19      1.93      0.00
   -5   17   19     -1.02      0.00
   -3   17   19      1.31      0.00
   -1   17   19     -0.73      0.00
    1   17   19     -2.25      0.00
  -22   18   19     -1.75      0.00
  -20   18   19      1.34      0.00
  -18   18   19     -1.49      0.00
  -16   18   19      2.28      0.00
  -14   18   19      0.75      0.00
  -12   18   19      0.03      0.00
  -10   18   19     -6.78      0.00
   -8   18   19     -3.20      0.00
   -6   18   19      1.07      0.00
   -4   18   19      0.33      0.00
   -2   18   19     -0.22      0.00
  -17   19   19     -0.35      0.00
  -15   19   19     -1.74      0.00
  -13   19   19     -1.30      0.00
  -11   19   19      1.55      0.00
   -9   19   19      3.48      0.00
   -7   19   19     -0.79      0.00
   -5   19   19     -0.20      0.00
  -38    0   20     -0.45      0.00
  -36    0   20      0.07      0.00
  -34    0   20     -2.51      0.00
  -32    0   20     -2.57      0.00
  -30    0   20      5.11      0.00
  -28    0   20      4.76      0.00
  -26    0   20      0.08      0.00
  -24    0   20      2.12      0.00
  -22    0   20      1.11      0.00
  -20    0   20     -5.54      0.00
  -18    0   20      3.98      0.00
  -16    0   20     -3.51      0.00
  -14    0   20     -9.59      0.00
  -12    0   20     -3.57      0.00
  -10    0   20      0.96      0.00
   -8    0   20     -4.46      0.00
   -6    0   20     -2.30      0.00
   -4    0   20      2.12      0.00
   -2    0   20      1.73      0.00
    0    0   20      2.63      0.00
    2    0   20      8.82      0.00
    4    0   20      4.84      0.00
    6    0   20      5.68      0.00
    8    0   20      7.62      0.00
   10    0   20      7.79      0.00
   12    0   20      4.63      0.00
  -39    1   20     -2.87      0.00
  -37    1   20      0.61      0.00
  -35    1   20      0.80      0.00
  -33    1   20      4.62      0.00
  -31    1   20     -1.36      0.00
  -29    1   20     -5.86      0.00
  -27    1   20     -2.64      0.00
  -25    1   20      0.00      0.00
  -23    1   20     -3.49      0.00
  -21    1   20      4.84      0.00
  -19    1   20     -0.20      0.00
  -17    1   20     -2.78      0.00
  -15    1   20      5.86      0.00
  -13    1   20      6.99      0.00
  -11    1   20     -0.24      0.00
   -9    1   20      0.88      0.00
   -7    1   20      4.79      0.00
   -5    1   20     -0.69      0.00
   -3    1   20     -0.81      0.00
   -1    1   20     -2.68      0.00
    1    1   20     -4.96      0.00
    3    1   20     -8.69      0.00
    5    1   20     -2.19      0.00
    7    1   20     -7.52      0.00
    9    1   20     -6.24      0.00
   11    1   20     -8.23      0.00
   13    1   20      0.70      0.00
  -38    2   20      1.94      0.00
  -36    2   20     -0.42      0.00
  -34    2   20     -4.50      0.00
  -32    2   20     -3.22      0.00
  -30    2   20      4.52      0.00
  -28    2   20      4.03      0.00
  -26    2   20      1.61      0.00
  -24    2   20      1.63      0.00
  -22    2   20     -1.66      0.00
  -20    2   20     -3.26      0.00
  -18    2   20      4.23      0.00
  -16    2   20      2.73      0.00
  -14    2   20     -5.01      0.00
  -12    2   20     -2.13      0.00
  -10    2   20      1.21      0.00
   -8    2   20     -1.62      0.00
   -6    2   20     -2.09      0.00
   -4    2   20      0.01      0.00
   -2    2   20      2.04      0.00
    0    2   20      3.26      0.00
    2    2   20      7.87      0.00
    4    2   20      3.53      0.00
    6    2   20      2.14      0.00
    8    2   20      4.56      0.00
   10    2   20      6.87      0.00
   12    2   20      4.60      0.00
  -39    3   20     -2.28      0.00
  -37    3   20     -2.20      0.00
  -35    3   20      3.53      0.00
  -33    3   20      5.15      0.00
  -31    3   20     -1.29      0.00
  -29    3   20     -3.14      0.00
  -27    3   20     -2.67      0.00
  -25    3   20     -1.33      0.00
  -23    3   20      0.58      0.00
  -21    3   20      4.01      0.00
  -19    3   20     -2.45      0.00
  -17    3   20     -5.91      0.00
  -15    3   20     -2.25      0.00
  -13    3   20      2.88      0.00
  -11    3   20     -0.42      0.00
   -9    3   20     -2.79      0.00
   -7    3   20      0.13      0.00
   -5    3   20      0.12      0.00
   -3    3   20     -1.43      0.00
   -1    3   20     -3.69      0.00
    1    3   20     -4.49      0.00
    3    3   20     -5.93      0.00
    5    3   20      0.78      0.00
    7    3   20      0.60      0.00
    9    3   20     -1.72      0.00
   11    3   20     -6.12      0.00
   13    3   20     -0.53      0.00
  -38    4   20      4.24      0.00
  -36    4   20     -1.86      0.00
  -34    4   20     -3.52      0.00
  -32    4   20     -1.94      0.00
  -30    4   20      2.62      0.00
  -28    4   20     -0.07      0.00
  -26    4   20      1.45      0.00
  -24    4   20      0.69      0.00
  -22    4   20     -4.83      0.00
  -20    4   20      2.02      0.00
  -18    4   20      2.92      0.00
  -16    4   20      6.72      0.00
  -14    4   20     -0.91      0.00
  -12    4   20      0.15      0.00
  -10    4   20      2.66      0.00
   -8    4   20      5.60      0.00
   -6    4   20      1.31      0.00
   -4    4   20      2.26      0.00
   -2    4   20      4.28      0.00
    0    4   20      3.23      0.00
    2    4   20      4.23      0.00
    4    4   20      1.73      0.00
    6    4   20     -3.63      0.00
    8    4   20     -4.43      0.00
   10    4   20      1.49      0.00
   12    4   20      3.32      0.00
  -37    5   20     -1.65      0.00
  -35    5   20      3.26      0.00
  -33    5   20      1.39      0.00
  -31    5   20     -1.78      0.00
  -29    5   20      1.73      0.00
  -27    5   20      1.26      0.00
  -25    5   20     -0.51      0.00
  -23    5   20      2.68      0.00
  -21    5   20      1.01      0.00
  -19    5   20     -2.76      0.00
  -17    5   20     -2.86      0.00
  -15    5   20     -2.50      0.00
  -13    5   20     -0.51      0.00
  -11    5   20     -2.00      0.00
   -9    5   20     -6.91      0.00
   -7    5   20     -5.96      0.00
   -5    5   20     -1.82      0.00
   -3    5   20     -4.83      0.00
   -1    5   20     -3.24      0.00
    1    5   20     -2.37      0.00
    3    5   20     -1.69      0.00
    5    5   20     -0.28      0.00
    7    5   20      5.51      0.00
    9    5   20      3.96      0.00
   11    5   20     -2.22      0.00
   13    5   20     -0.41      0.00
  -38    6   20      2.88      0.00
  -36    6   20     -2.80      0.00
  -34    6   20     -1.07      0.00
  -32    6   20      1.43      0.00
  -30    6   20      0.44      0.00
  -28    6   20     -4.51      0.00
  -26    6   20     -1.29      0.00
  -24    6   20     -1.26      0.00
  -22    6   20     -2.63      0.00
  -20    6   20      2.85      0.00
  -18    6   20     -1.48      0.00
  -16    6   20      2.28      0.00
  -14    6   20      1.19      0.00
  -12    6   20      3.82      0.00
  -10    6   20      4.13      0.00
   -8    6   20      8.94      0.00
   -6    6   20      3.17      0.00
   -4    6   20      2.28      0.00
   -2    6   20      3.06      0.00
    0    6   20      2.31      0.00
    2    6   20     -0.54      0.00
    4    6   20      2.56      0.00
    6    6   20      0.01      0.00
    8    6   20     -3.22      0.00
   10    6   20     -0.35      0.00
   12    6   20      1.81      0.00
  -37    7   20      0.03      0.00
  -35    7   20      3.11      0.00
  -33    7   20     -0.93      0.00
  -31    7   20     -3.97      0.00
  -29    7   20      3.98      0.00
  -27    7   20      1.98      0.00
  -25    7   20      2.77      0.00
  -23    7   20      2.17      0.00
  -21    7   20     -1.41      0.00
  -19    7   20      1.11      0.00
  -17    7   20      2.35      0.00
  -15    7   20     -2.53      0.00
  -13    7   20     -4.37      0.00
  -11    7   20     -4.51      0.00
   -9    7   20     -5.39      0.00
   -7    7   20     -7.28      0.00
   -5    7   20      0.17      0.00
   -3    7   20     -1.18      0.00
   -1    7   20     -1.68      0.00
    1    7   20     -0.42      0.00
    3    7   20      0.43      0.00
    5    7   20     -4.05      0.00
    7    7   20     -1.71      0.00
    9    7   20     -0.32      0.00
   11    7   20     -2.93      0.00
  -36    8   20     -2.67      0.00
  -34    8   20     -1.61      0.00
  -32    8   20      5.33      0.00
  -30    8   20      0.86      0.00
  -28    8   20     -2.05      0.00
  -26    8   20     -0.37      0.00
  -24    8   20     -4.53      0.00
  -22    8   20      0.89      0.00
  -20    8   20      0.45      0.00
  -18    8   20     -4.42      0.00
  -16    8   20      0.24      0.00
  -14    8   20      5.21      0.00
  -12    8   20      4.62      0.00
  -10    8   20      2.86      0.00
   -8    8   20      5.32      0.00
   -6    8   20      2.78      0.00
   -4    8   20     -1.24      0.00
   -2    8   20      0.20      0.00
    0    8   20      2.87      0.00
    2    8   20     -1.79      0.00
    4    8   20      2.89      0.00
    6    8   20      3.35      0.00
    8    8   20      3.10      0.00
   10    8   20      2.26      0.00
  -35    9   20      2.83      0.00
  -33    9   20     -2.78      0.00
  -31    9   20     -5.21      0.00
  -29    9   20      1.33      0.00
  -27    9   20     -3.64      0.00
  -25    9   20      2.41      0.00
  -23    9   20      2.10      0.00
  -21    9   20     -1.62      0.00
  -19    9   20      2.64      0.00
  -17    9   20      3.56      0.00
  -15    9   20     -5.25      0.00
  -13    9   20     -3.17      0.00
  -11    9   20     -2.70      0.00
   -9    9   20     -0.04      0.00
   -7    9   20     -3.15      0.00
   -5    9   20      0.44      0.00
   -3    9   20      1.17      0.00
   -1    9   20     -3.45      0.00
    1    9   20     -1.56      0.00
    3    9   20     -0.61      0.00
    5    9   20     -2.65      0.00
    7    9   20     -2.45      0.00
    9    9   20     -0.90      0.00
  -34   10   20     -0.71      0.00
  -32   10   20      5.08      0.00
  -30   10   20     -0.50      0.00
  -28   10   20      3.41      0.00
  -26   10   20      4.58      0.00
  -24   10   20     -2.17      0.00
  -22   10   20      0.30      0.00
  -20   10   20     -0.87      0.00
  -18   10   20     -3.51      0.00
  -16   10   20      1.96      0.00
  -14   10   20      3.60      0.00
  -12   10   20      0.20      0.00
  -10   10   20     -1.25      0.00
   -8   10   20     -1.80      0.00
   -6   10   20     -0.56      0.00
   -4   10   20     -0.76      0.00
   -2   10   20      1.14      0.00
    0   10   20      5.90      0.00
    2   10   20      1.11      0.00
    4   10   20      2.38      0.00
    6   10   20      1.46      0.00
    8   10   20     -1.55      0.00
  -33   11   20     -1.74      0.00
  -31   11   20      1.18      0.00
  -29   11   20     -0.01      0.00
  -27   11   20     -6.16      0.00
  -25   11   20     -4.28      0.00
  -23   11   20      0.47      0.00
  -21   11   20      0.73      0.00
  -19   11   20      2.12      0.00
  -17   11   20      0.02      0.00
  -15   11   20     -3.67      0.00
  -13   11   20      1.72      0.00
  -11   11   20      1.48      0.00
   -9   11   20      4.23      0.00
   -7   11   20      3.75      0.00
   -5   11   20      0.76      0.00
   -3   11   20      0.86      0.00
   -1   11   20     -5.52      0.00
    1   11   20     -4.41      0.00
    3   11   20     -2.15      0.00
    5   11   20     -2.77      0.00
    7   11   20      2.20      0.00
  -32   12   20     -1.61      0.00
  -30   12   20     -4.53      0.00
  -28   12   20      3.02      0.00
  -26   12   20      5.96      0.00
  -24   12   20      4.92      0.00
  -22   12   20     -1.21      0.00
  -20   12   20     -0.90      0.00
  -18   12   20     -0.44      0.00
  -16   12   20      3.85      0.00
  -14   12   20     -1.83      0.00
  -12   12   20     -1.54      0.00
  -10   12   20     -3.72      0.00
   -8   12   20     -3.77      0.00
   -6   12   20     -3.34      0.00
   -4   12   20     -0.04      0.00
   -2   12   20      1.51      0.00
    0   12   20      5.60      0.00
    2   12   20      2.87      0.00
    4   12   20      2.57      0.00
    6   12   20      1.13      0.00
    8   12   20     -6.06      0.00
  -31   13   20      5.91      0.00
  -29   13   20      0.65      0.00
  -27   13   20     -1.91      0.00
  -25   13   20     -7.79      0.00
  -23   13   20     -2.69      0.00
  -21   13   20      0.68      0.00
  -19   13   20     -0.80      0.00
  -17   13   20     -2.93      0.00
  -15   13   20     -0.59      0.00
  -13   13   20      2.14      0.00
  -11   13   20      0.72      0.00
   -9   13   20      1.60      0.00
   -7   13   20      3.22      0.00
   -5   13   20      0.70      0.00
   -3   13   20     -0.28      0.00
   -1   13   20     -3.42      0.00
    1   13   20     -2.32      0.00
    3   13   20     -2.23      0.00
    5   13   20     -2.20      0.00
    7   13   20      3.28      0.00
  -30   14   20     -2.91      0.00
  -28   14   20      0.07      0.00
  -26   14   20      3.01      0.00
  -24   14   20      7.68      0.00
  -22   14   20      0.47      0.00
  -20   14   20      2.31      0.00
  -18   14   20      2.17      0.00
  -16   14   20      2.45      0.00
  -14   14   20     -2.23      0.00
  -12   14   20      2.04      0.00
  -10   14   20      1.38      0.00
   -8   14   20      0.17      0.00
   -6   14   20     -3.13      0.00
   -4   14   20     -0.10      0.00
   -2   14   20      2.16      0.00
    0   14   20      0.65      0.00
    2   14   20      1.31      0.00
    4   14   20      1.34      0.00
  -27   15   20      0.48      0.00
  -25   15   20     -5.67      0.00
  -23   15   20     -5.02      0.00
  -21   15   20     -0.65      0.00
  -19   15   20     -4.38      0.00
  -17   15   20     -0.87      0.00
  -15   15   20     -0.11      0.00
  -13   15   20      0.41      0.00
  -11   15   20     -5.77      0.00
   -9   15   20     -2.72      0.00
   -7   15   20      2.74      0.00
   -5   15   20      3.50      0.00
   -3   15   20     -0.61      0.00
   -1   15   20     -1.71      0.00
    1   15   20      1.21      0.00
    3   15   20     -1.45      0.00
  -26   16   20      1.62      0.00
  -24   16   20      6.00      0.00
  -22   16   20      1.64      0.00
  -20   16   20      2.43      0.00
  -18   16   20      2.41      0.00
  -16   16   20      0.13      0.00
  -14   16   20     -2.13      0.00
  -12   16   20      3.64      0.00
  -10   16   20      5.93      0.00
   -8   16   20     -1.14      0.00
   -6   16   20     -4.93      0.00
   -4   16   20     -3.32      0.00
   -2   16   20      1.86      0.00
    0   16   20     -0.35      0.00
  -23   17   20     -4.09      0.00
  -21   17   20      0.97      0.00
  -19   17   20     -3.34      0.00
  -17   17   20     -0.17      0.00
  -15   17   20      0.25      0.00
  -13   17   20      2.88      0.00
  -11   17   20     -6.15      0.00
   -9   17   20      0.00      0.00
   -7   17   20      2.73      0.00
   -5   17   20      4.57      0.00
   -3   17   20      1.52      0.00
   -1   17   20     -1.58      0.00
  -20   18   20     -0.13      0.00
  -18   18   20      1.67      0.00
  -16   18   20      1.67      0.00
  -14   18   20     -3.02      0.00
  -12   18   20      0.85      0.00
  -10   18   20      0.96      0.00
   -8   18   20     -1.67      0.00
   -6   18   20     -1.26      0.00
   -4   18   20     -3.00      0.00
  -15   19   20     -1.24      0.00
  -13   19   20      1.48      0.00
   -9   19   20      2.25      0.00
  -39    1   21      3.18      0.00
  -37    1   21     -1.91      0.00
  -35    1   21     -2.12      0.00
  -33    1   21     -2.18      0.00
  -31    1   21     -2.43      0.00
  -29    1   21     -1.90      0.00
  -27    1   21     -0.55      0.00
  -25    1   21     -1.66      0.00
  -23    1   21     -0.93      0.00
  -21    1   21      1.59      0.00
  -19    1   21     -0.75      0.00
  -17    1   21      5.28      0.00
  -15    1   21      2.87      0.00
  -13    1   21      0.44      0.00
  -11    1   21     -0.80      0.00
   -9    1   21      1.46      0.00
   -7    1   21     -0.29      0.00
   -5    1   21     -0.09      0.00
   -3    1   21      0.62      0.00
   -1    1   21     -0.78      0.00
    1    1   21     -1.22      0.00
    3    1   21     -1.32      0.00
    5    1   21     -2.87      0.00
    7    1   21     -3.52      0.00
    9    1   21     -1.23      0.00
   11    1   21      1.27      0.00
  -38    2   21     -1.47      0.00
  -36    2   21      4.34      0.00
  -34    2   21      2.22      0.00
  -32    2   21      4.02      0.00
  -30    2   21      4.40      0.00
  -28    2   21      1.68      0.00
  -26    2   21      2.03      0.00
  -24    2   21      2.64      0.00
  -22    2   21     -2.78      0.00
  -20    2   21      0.28      0.00
  -18    2   21     -2.91      0.00
  -16    2   21     -7.55      0.00
  -14    2   21     -2.83      0.00
  -12    2   21      1.02      0.00
  -10    2   21     -1.30      0.00
   -8    2   21     -1.59      0.00
   -6    2   21      1.05      0.00
   -4    2   21     -1.63      0.00
   -2    2   21      1.53      0.00
    0    2   21      2.20      0.00
    2    2   21      3.14      0.00
    4    2   21      2.76      0.00
    6    2   21      7.04      0.00
    8    2   21      5.16      0.00
   10    2   21     -0.81      0.00
   12    2   21     -2.27      0.00
  -39    3   21      3.75      0.00
  -37    3   21     -3.60      0.00
  -35    3   21     -1.43      0.00
  -33    3   21     -3.28      0.00
  -31    3   21     -5.06      0.00
  -29    3   21     -3.66      0.00
  -27    3   21     -2.03      0.00
  -25    3   21     -2.53      0.00
  -23    3   21      1.32      0.00
  -21    3   21      4.58      0.00
  -19    3   21     -2.41      0.00
  -17    3   21      7.29      0.00
  -15    3   21      5.39      0.00
  -13    3   21      1.70      0.00
  -11    3   21     -0.65      0.00
   -9    3   21      3.18      0.00
   -7    3   21     -0.99      0.00
   -5    3   21      1.02      0.00
   -3    3   21     -0.19      0.00
   -1    3   21     -3.59      0.00
    1    3   21     -4.53      0.00
    3    3   21     -2.73      0.00
    5    3   21     -5.14      0.00
    7    3   21     -8.81      0.00
    9    3   21     -3.22      0.00
   11    3   21      4.01      0.00
  -38    4   21      0.96      0.00
  -36    4   21      2.12      0.00
  -34    4   21      0.28      0.00
  -32    4   21      3.92      0.00
  -30    4   21      4.07      0.00
  -28    4   21      1.59      0.00
  -26    4   21      2.69      0.00
  -24    4   21     -0.86      0.00
  -22    4   21     -6.92      0.00
  -20    4   21      0.41      0.00
  -18    4   21     -1.23      0.00
  -16    4   21     -6.57      0.00
  -14    4   21     -4.19      0.00
  -12    4   21     -0.02      0.00
  -10    4   21     -1.07      0.00
   -8    4   21     -0.87      0.00
   -6    4   21      2.21      0.00
   -4    4   21     -2.00      0.00
   -2    4   21      3.65      0.00
    0    4   21      3.67      0.00
    2    4   21      4.91      0.00
    4    4   21      0.18      0.00
    6    4   21      5.91      0.00
    8    4   21      6.80      0.00
   10    4   21     -1.54      0.00
   12    4   21     -3.18      0.00
  -37    5   21     -2.24      0.00
  -35    5   21      0.05      0.00
  -33    5   21     -0.76      0.00
  -31    5   21     -3.56      0.00
  -29    5   21      0.03      0.00
  -27    5   21     -2.02      0.00
  -25    5   21     -1.06      0.00
  -23    5   21      7.51      0.00
  -21    5   21      3.81      0.00
  -19    5   21     -1.27      0.00
  -17    5   21      4.07      0.00
  -15    5   21      5.64      0.00
  -13    5   21      2.04      0.00
  -11    5   21     -0.63      0.00
   -9    5   21      0.41      0.00
   -7    5   21     -2.74      0.00
   -5    5   21     -0.44      0.00
   -3    5   21     -0.81      0.00
   -1    5   21     -2.40      0.00
    1    5   21     -4.39      0.00
    3    5   21     -0.40      0.00
    5    5   21      1.49      0.00
    7    5   21     -3.83      0.00
    9    5   21     -2.31      0.00
   11    5   21      3.80      0.00
  -38    6   21      1.44      0.00
  -36    6   21      1.05      0.00
  -34    6   21     -0.17      0.00
  -32    6   21      1.47      0.00
  -30    6   21      0.20      0.00
  -28    6   21     -1.79      0.00
  -26    6   21      3.85      0.00
  -24    6   21     -4.30      0.00
  -22    6   21     -7.47      0.00
  -20    6   21      0.81      0.00
  -18    6   21     -1.52      0.00
  -16    6   21     -5.01      0.00
  -14    6   21     -2.72      0.00
  -12    6   21     -0.56      0.00
  -10    6   21      2.31      0.00
   -8    6   21      0.86      0.00
   -6    6   21      2.99      0.00
   -4    6   21     -0.39      0.00
   -2    6   21      1.26      0.00
    0    6   21      1.47      0.00
    2    6   21      2.41      0.00
    4    6   21     -2.76      0.00
    6    6   21     -2.58      0.00
    8    6   21      1.96      0.00
   10    6   21     -2.46      0.00
  -37    7   21     -0.50      0.00
  -35    7   21     -1.36      0.00
  -33    7   21      0.64      0.00
  -31    7   21     -2.30      0.00
  -29    7   21      4.26      0.00
  -27    7   21     -1.62      0.00
  -25    7   21     -2.91      0.00
  -23    7   21      7.49      0.00
  -21    7   21      0.42      0.00
  -19    7   21      0.08      0.00
  -17    7   21      1.90      0.00
  -15    7   21      2.77      0.00
  -13    7   21     -0.42      0.00
  -11    7   21     -1.27      0.00
   -9    7   21     -3.12      0.00
   -7    7   21     -0.65      0.00
   -5    7   21     -0.04      0.00
   -3    7   21      0.03      0.00
   -1    7   21     -0.42      0.00
    1    7   21     -1.07      0.00
    3    7   21     -0.79      0.00
    5    7   21      2.96      0.00
    7    7   21      0.78      0.00
    9    7   21      0.76      0.00
   11    7   21      4.30      0.00
  -36    8   21      0.41      0.00
  -34    8   21     -0.17      0.00
  -32    8   21      2.74      0.00
  -30    8   21     -1.29      0.00
  -28    8   21     -3.03      0.00
  -26    8   21      4.30      0.00
  -24    8   21     -0.17      0.00
  -22    8   21     -2.34      0.00
  -20    8   21      2.56      0.00
  -18    8   21      0.52      0.00
  -16    8   21     -0.22      0.00
  -14    8   21      2.59      0.00
  -12    8   21      0.54      0.00
  -10    8   21      4.56      0.00
   -8    8   21      1.93      0.00
   -6    8   21     -2.42      0.00
   -4    8   21     -1.23      0.00
   -2    8   21     -0.21      0.00
    0    8   21      0.35      0.00
    2    8   21      0.33      0.00
    4    8   21      1.55      0.00
    6    8   21     -0.33      0.00
    8    8   21      1.15      0.00
   10    8   21     -3.66      0.00
  -35    9   21     -0.05      0.00
  -33    9   21     -1.46      0.00
  -31    9   21     -3.78      0.00
  -29    9   21      3.94      0.00
  -27    9   21     -0.29      0.00
  -25    9   21     -3.35      0.00
  -23    9   21     -0.83      0.00
  -21    9   21     -3.44      0.00
  -19    9   21     -3.08      0.00
  -17    9   21     -2.73      0.00
  -15    9   21     -4.86      0.00
  -13    9   21     -2.73      0.00
  -11    9   21     -3.10      0.00
   -9    9   21     -5.73      0.00
   -7    9   21      1.32      0.00
   -5    9   21      4.11      0.00
   -3    9   21      1.30      0.00
   -1    9   21     -0.50      0.00
    1    9   21      1.75      0.00
    3    9   21     -2.28      0.00
    5    9   21     -1.64      0.00
    7    9   21     -4.33      0.00
    9    9   21      1.22      0.00
  -34   10   21      0.05      0.00
  -32   10   21      5.43      0.00
  -30   10   21     -0.54      0.00
  -28   10   21     -1.40      0.00
  -26   10   21     -0.40      0.00
  -24   10   21      3.51      0.00
  -22   10   21      3.89      0.00
  -20   10   21      4.88      0.00
  -18   10   21      3.76      0.00
  -16   10   21      6.78      0.00
  -14   10   21      5.12      0.00
  -12   10   21      2.44      0.00
  -10   10   21      5.34      0.00
   -8   10   21      3.71      0.00
   -6   10   21     -4.50      0.00
   -4   10   21     -2.35      0.00
   -2   10   21     -0.61      0.00
    0   10   21     -0.41      0.00
    2   10   21     -1.46      0.00
    4   10   21      2.33      0.00
    6   10   21      4.63      0.00
    8   10   21      2.69      0.00
  -33   11   21     -2.91      0.00
  -31   11   21     -2.90      0.00
  -29   11   21      0.40      0.00
  -27   11   21      1.09      0.00
  -25   11   21      0.67      0.00
  -23   11   21     -4.53      0.00
  -21   11   21     -3.67      0.00
  -19   11   21     -4.23      0.00
  -17   11   21     -5.38      0.00
  -15   11   21     -7.54      0.00
  -13   11   21     -1.30      0.00
  -11   11   21     -3.82      0.00
   -9   11   21     -3.55      0.00
   -7   11   21      0.25      0.00
   -5   11   21      2.57      0.00
   -3   11   21      1.28      0.00
   -1   11   21     -1.92      0.00
    1   11   21      2.51      0.00
    3   11   21     -1.01      0.00
    5   11   21     -2.57      0.00
    7   11   21     -4.88      0.00
  -32   12   21      2.38      0.00
  -30   12   21      0.63      0.00
  -28   12   21      1.70      0.00
  -26   12   21     -2.51      0.00
  -24   12   21      0.86      0.00
  -22   12   21      2.53      0.00
  -20   12   21      1.55      0.00
  -18   12   21      3.65      0.00
  -16   12   21      6.24      0.00
  -14   12   21      1.78      0.00
  -12   12   21      0.85      0.00
  -10   12   21      1.17      0.00
   -8   12   21      0.63      0.00
   -6   12   21     -0.33      0.00
   -4   12   21     -0.38      0.00
   -2   12   21      1.63      0.00
    0   12   21      2.03      0.00
    2   12   21     -1.54      0.00
    4   12   21      2.65      0.00
    6   12   21      3.11      0.00
  -31   13   21      0.60      0.00
  -29   13   21     -3.07      0.00
  -27   13   21     -0.35      0.00
  -25   13   21      1.69      0.00
  -23   13   21     -0.26      0.00
  -21   13   21      0.78      0.00
  -19   13   21     -0.31      0.00
  -17   13   21     -3.43      0.00
  -15   13   21     -1.98      0.00
  -13   13   21      1.50      0.00
  -11   13   21      0.87      0.00
   -9   13   21      1.34      0.00
   -7   13   21     -0.20      0.00
   -5   13   21     -2.33      0.00
   -3   13   21      0.00      0.00
   -1   13   21     -4.90      0.00
    1   13   21      0.02      0.00
    3   13   21     -1.30      0.00
    5   13   21     -3.11      0.00
  -28   14   21      2.35      0.00
  -26   14   21      0.10      0.00
  -24   14   21     -2.18      0.00
  -22   14   21     -0.63      0.00
  -20   14   21     -3.29      0.00
  -18   14   21      0.52      0.00
  -16   14   21      0.35      0.00
  -14   14   21     -0.86      0.00
  -12   14   21     -3.05      0.00
  -10   14   21     -1.71      0.00
   -8   14   21     -2.05      0.00
   -6   14   21      3.12      0.00
   -4   14   21      1.56      0.00
   -2   14   21      1.98      0.00
    0   14   21      3.66      0.00
    2   14   21     -0.35      0.00
    4   14   21      3.17      0.00
  -27   15   21     -0.56      0.00
  -25   15   21      0.45      0.00
  -23   15   21      2.38      0.00
  -21   15   21      1.47      0.00
  -19   15   21      4.06      0.00
  -17   15   21      0.83      0.00
  -15   15   21      1.09      0.00
  -13   15   21      1.39      0.00
  -11   15   21      2.57      0.00
   -9   15   21      1.77      0.00
   -7   15   21      1.57      0.00
   -5   15   21     -4.34      0.00
   -3   15   21     -0.33      0.00
   -1   15   21     -2.54      0.00
    1   15   21     -1.50      0.00
  -26   16   21      0.80      0.00
  -24   16   21     -2.30      0.00
  -22   16   21     -0.96      0.00
  -20   16   21     -3.26      0.00
  -18   16   21     -4.33      0.00
  -16   16   21     -1.61      0.00
  -14   16   21      0.31      0.00
  -12   16   21     -1.01      0.00
  -10   16   21     -0.30      0.00
   -8   16   21     -5.09      0.00
   -6   16   21      1.03      0.00
   -4   16   21      2.70      0.00
   -2   16   21      0.58      0.00
  -23   17   21      2.42      0.00
  -21   17   21      0.89      0.00
  -19   17   21      4.70      0.00
  -17   17   21      3.78      0.00
  -15   17   21      0.48      0.00
  -13   17   21     -1.39      0.00
  -11   17   21     -1.44      0.00
   -9   17   21      3.28      0.00
   -7   17   21      4.83      0.00
   -5   17   21     -2.38      0.00
  -18   18   21     -5.24      0.00
  -16   18   21     -1.67      0.00
  -14   18   21     -0.55      0.00
  -12   18   21      3.56      0.00
  -10   18   21     -0.26      0.00
   -8   18   21     -4.73      0.00
  -38    0   22     -3.61      0.00
  -36    0   22     -2.99      0.00
  -34    0   22      2.40      0.00
  -32    0   22      1.53      0.00
  -30    0   22      0.13      0.00
  -28    0   22      1.67      0.00
  -26    0   22      1.26      0.00
  -24    0   22      6.28      0.00
  -22    0   22      6.87      0.00
  -20    0   22     -5.94      0.00
  -18    0   22      3.83      0.00
  -16    0   22      2.92      0.00
  -14    0   22     -1.77      0.00
  -12    0   22     -3.33      0.00
  -10    0   22     -3.25      0.00
   -8    0   22     -4.52      0.00
   -6    0   22     -6.12      0.00
   -4    0   22     -5.78      0.00
   -2    0   22     -9.54      0.00
    0    0   22     -6.68      0.00
    2    0   22      0.76      0.00
    4    0   22     -5.12      0.00
    6    0   22     -5.21      0.00
    8    0   22     -3.84      0.00
   10    0   22     -0.84      0.00
  -39    1   22     -1.61      0.00
  -37    1   22      5.12      0.00
  -35    1   22     -1.00      0.00
  -33    1   22     -1.40      0.00
  -31    1   22     -0.56      0.00
  -29    1   22     -0.14      0.00
  -27    1   22     -1.54      0.00
  -25    1   22     -2.36      0.00
  -23    1   22     -9.65      0.00
  -21    1   22      1.45      0.00
  -19    1   22      2.59      0.00
  -17    1   22     -4.43      0.00
  -15    1   22     -0.75      0.00
  -13    1   22      2.47      0.00
  -11    1   22      2.41      0.00
   -9    1   22      3.22      0.00
   -7    1   22      5.15      0.00
   -5    1   22      4.76      0.00
   -3    1   22      7.81      0.00
   -1    1   22      8.52      0.00
    1    1   22      2.75      0.00
    3    1   22     -0.10      0.00
    5    1   22      6.57      0.00
    7    1   22      3.12      0.00
    9    1   22      3.15      0.00
  -38    2   22     -1.46      0.00
  -36    2   22     -1.65      0.00
  -34    2   22      0.78      0.00
  -32    2   22     -0.06      0.00
  -30    2   22     -0.04      0.00
  -28    2   22     -0.25      0.00
  -26    2   22      1.27      0.00
  -24    2   22      6.25      0.00
  -22    2   22      5.17      0.00
  -20    2   22     -4.91      0.00
  -18    2   22      0.11      0.00
  -16    2   22      3.25      0.00
  -14    2   22     -0.69      0.00
  -12    2   22     -0.30      0.00
  -10    2   22     -1.71      0.00
   -8    2   22     -2.33      0.00
   -6    2   22     -3.33      0.00
   -4    2   22     -4.42      0.00
   -2    2   22     -6.99      0.00
    0    2   22     -5.81      0.00
    2    2   22      1.23      0.00
    4    2   22     -2.19      0.00
    6    2   22     -3.42      0.00
    8    2   22     -3.29      0.00
   10    2   22     -1.19      0.00
  -39    3   22      0.95      0.00
  -37    3   22      0.98      0.00
  -35    3   22      1.09      0.00
  -33    3   22      1.18      0.00
  -31    3   22     -0.58      0.00
  -29    3   22      0.84      0.00
  -27    3   22      0.20      0.00
  -25    3   22     -2.70      0.00
  -23    3   22     -5.76      0.00
  -21    3   22      1.19      0.00
  -19    3   22      3.53      0.00
  -17    3   22     -1.21      0.00
  -15    3   22     -1.51      0.00
  -13    3   22     -0.78      0.00
  -11    3   22     -0.80      0.00
   -9    3   22     -0.35      0.00
   -7    3   22      0.72      0.00
   -5    3   22      0.66      0.00
   -3    3   22      2.75      0.00
   -1    3   22      3.62      0.00
    1    3   22      1.79      0.00
    3    3   22     -2.62      0.00
    5    3   22      1.31      0.00
    7    3   22      2.17      0.00
    9    3   22      4.53      0.00
  -38    4   22      0.20      0.00
  -36    4   22     -3.18      0.00
  -34    4   22     -1.81      0.00
  -32    4   22     -1.34      0.00
  -30    4   22      2.20      0.00
  -28    4   22     -1.87      0.00
  -26    4   22      0.14      0.00
  -24    4   22      3.16      0.00
  -22    4   22     -0.61      0.00
  -20    4   22     -0.69      0.00
  -18    4   22     -3.41      0.00
  -16    4   22      2.52      0.00
  -14    4   22     -0.25      0.00
  -12    4   22      3.50      0.00
  -10    4   22      1.66      0.00
   -8    4   22      3.26      0.00
   -6    4   22      1.21      0.00
   -4    4   22      1.73      0.00
   -2    4   22      1.17      0.00
    0    4   22     -0.92      0.00
    2    4   22      1.22      0.00
    4    4   22      2.42      0.00
    6    4   22      0.11      0.00
    8    4   22     -5.06      0.00
   10    4   22     -4.62      0.00
  -37    5   22      2.55      0.00
  -35    5   22      4.22      0.00
  -33    5   22      3.06      0.00
  -31    5   22     -2.29      0.00
  -29    5   22     -0.35      0.00
  -27    5   22      2.01      0.00
  -25    5   22      0.36      0.00
  -23    5   22      1.62      0.00
  -21    5   22      1.02      0.00
  -19    5   22      1.40      0.00
  -17    5   22      1.57      0.00
  -15    5   22     -0.24      0.00
  -13    5   22     -2.75      0.00
  -11    5   22     -3.42      0.00
   -9    5   22     -5.12      0.00
   -7    5   22     -4.21      0.00
   -5    5   22     -2.24      0.00
   -3    5   22     -4.04      0.00
   -1    5   22     -2.78      0.00
    1    5   22     -0.51      0.00
    3    5   22     -0.31      0.00
    5    5   22     -2.53      0.00
    7    5   22      2.44      0.00
    9    5   22      6.60      0.00
  -38    6   22     -1.19      0.00
  -36    6   22     -5.48      0.00
  -34    6   22     -4.04      0.00
  -32    6   22     -1.61      0.00
  -30    6   22      3.22      0.00
  -28    6   22     -2.03      0.00
  -26    6   22     -2.98      0.00
  -24    6   22     -3.08      0.00
  -22    6   22     -4.23      0.00
  -20    6   22      1.55      0.00
  -18    6   22     -4.18      0.00
  -16    6   22     -0.44      0.00
  -14    6   22      0.57      0.00
  -12    6   22      5.14      0.00
  -10    6   22      3.63      0.00
   -8    6   22      7.37      0.00
   -6    6   22      2.67      0.00
   -4    6   22      2.38      0.00
   -2    6   22      3.42      0.00
    0    6   22      3.41      0.00
    2    6   22     -2.75      0.00
    4    6   22      0.05      0.00
    6    6   22     -0.22      0.00
    8    6   22     -4.27      0.00
   10    6   22     -2.89      0.00
  -37    7   22      3.25      0.00
  -35    7   22      4.34      0.00
  -33    7   22      4.78      0.00
  -31    7   22     -2.43      0.00
  -29    7   22      0.69      0.00
  -27    7   22      2.11      0.00
  -25    7   22      5.53      0.00
  -23    7   22      5.36      0.00
  -21    7   22      0.49      0.00
  -19    7   22      1.02      0.00
  -17    7   22      4.11      0.00
  -15    7   22     -0.45      0.00
  -13    7   22     -3.84      0.00
  -11    7   22     -3.87      0.00
   -9    7   22     -4.33      0.00
   -7    7   22     -6.47      0.00
   -5    7   22      0.08      0.00
   -3    7   22     -1.32      0.00
   -1    7   22     -3.02      0.00
    1    7   22     -0.59      0.00
    3    7   22      4.64      0.00
    5    7   22      0.69      0.00
    7    7   22      2.26      0.00
    9    7   22      2.23      0.00
  -36    8   22     -2.50      0.00
  -34    8   22     -4.83      0.00
  -32    8   22     -0.56      0.00
  -30    8   22      0.64      0.00
  -28    8   22     -1.42      0.00
  -26    8   22     -3.26      0.00
  -24    8   22     -6.95      0.00
  -22    8   22     -2.32      0.00
  -20    8   22      1.34      0.00
  -18    8   22     -3.80      0.00
  -16    8   22     -1.82      0.00
  -14    8   22      3.65      0.00
  -12    8   22      3.64      0.00
  -10    8   22      1.71      0.00
   -8    8   22      4.68      0.00
   -6    8   22      2.46      0.00
   -4    8   22     -0.88      0.00
   -2    8   22      0.12      0.00
    0    8   22      3.44      0.00
    2    8   22     -3.57      0.00
    4    8   22     -1.80      0.00
    6    8   22     -2.22      0.00
    8    8   22     -0.61      0.00
  -35    9   22      1.98      0.00
  -33    9   22      2.63      0.00
  -31    9   22     -2.01      0.00
  -29    9   22      2.92      0.00
  -27    9   22     -0.20      0.00
  -25    9   22      4.94      0.00
  -23    9   22      3.67      0.00
  -21    9   22     -1.95      0.00
  -19    9   22      0.09      0.00
  -17    9   22      4.24      0.00
  -15    9   22     -3.44      0.00
  -13    9   22     -3.14      0.00
  -11    9   22     -2.52      0.00
   -9    9   22     -0.25      0.00
   -7    9   22     -3.05      0.00
   -5    9   22      0.36      0.00
   -3    9   22      1.25      0.00
   -1    9   22     -1.26      0.00
    1    9   22     -0.54      0.00
    3    9   22      1.34      0.00
    5    9   22      0.25      0.00
    7    9   22     -0.02      0.00
  -34   10   22     -1.99      0.00
  -32   10   22      2.61      0.00
  -30   10   22     -2.73      0.00
  -28   10   22     -2.03      0.00
  -26   10   22     -0.42      0.00
  -24   10   22     -2.65      0.00
  -22   10   22      1.69      0.00
  -20   10   22      2.91      0.00
  -18   10   22     -3.10      0.00
  -16   10   22      0.16      0.00
  -14   10   22      4.41      0.00
  -12   10   22      2.32      0.00
  -10   10   22      1.28      0.00
   -8   10   22     -0.48      0.00
   -6   10   22     -0.15      0.00
   -4   10   22     -0.78      0.00
   -2   10   22     -1.74      0.00
    0   10   22      1.04      0.00
    2   10   22     -0.17      0.00
    4   10   22      1.93      0.00
    6   10   22      2.37      0.00
  -33   11   22     -1.96      0.00
  -31   11   22     -0.38      0.00
  -29   11   22      5.59      0.00
  -27   11   22      1.70      0.00
  -25   11   22     -0.74      0.00
  -23   11   22     -1.57      0.00
  -21   11   22     -4.49      0.00
  -19   11   22      0.58      0.00
  -17   11   22      2.63      0.00
  -15   11   22     -3.50      0.00
  -13   11   22     -2.38      0.00
  -11   11   22     -2.68      0.00
   -9   11   22      0.19      0.00
   -7   11   22      2.68      0.00
   -5   11   22      0.46      0.00
   -3   11   22      2.53      0.00
   -1   11   22      1.05      0.00
    1   11   22      0.48      0.00
    3   11   22     -1.57      0.00
    5   11   22     -4.42      0.00
  -32   12   22      3.27      0.00
  -30   12   22     -4.81      0.00
  -28   12   22     -5.50      0.00
  -26   12   22     -1.18      0.00
  -24   12   22      3.86      0.00
  -22   12   22      3.36      0.00
  -20   12   22      3.13      0.00
  -18   12   22     -4.13      0.00
  -16   12   22      1.54      0.00
  -14   12   22      1.31      0.00
  -12   12   22      3.00      0.00
  -10   12   22      0.61      0.00
   -8   12   22     -1.58      0.00
   -6   12   22     -2.88      0.00
   -4   12   22     -1.02      0.00
   -2   12   22     -2.00      0.00
    0   12   22     -1.82      0.00
    2   12   22      0.45      0.00
    4   12   22      2.17      0.00
  -31   13   22      0.62      0.00
  -29   13   22      5.43      0.00
  -27   13   22      5.55      0.00
  -25   13   22     -2.80      0.00
  -23   13   22     -3.80      0.00
  -21   13   22     -3.61      0.00
  -19   13   22      1.13      0.00
  -17   13   22      1.65      0.00
  -15   13   22     -0.99      0.00
  -13   13   22     -1.58      0.00
  -11   13   22     -0.41      0.00
   -9   13   22     -0.70      0.00
   -7   13   22      2.85      0.00
   -5   13   22      1.17      0.00
   -3   13   22      1.09      0.00
   -1   13   22      0.82      0.00
    1   13   22      1.76      0.00
    3   13   22     -0.91      0.00
  -28   14   22     -5.15      0.00
  -26   14   22     -2.05      0.00
  -24   14   22      5.38      0.00
  -22   14   22      2.32      0.00
  -20   14   22      2.79      0.00
  -18   14   22     -2.75      0.00
  -16   14   22      1.31      0.00
  -14   14   22     -0.59      0.00
  -12   14   22      1.16      0.00
  -10   14   22     -0.50      0.00
   -8   14   22      1.67      0.00
   -6   14   22     -2.69      0.00
   -4   14   22     -1.04      0.00
   -2   14   22      1.24      0.00
    0   14   22     -2.56      0.00
    2   14   22      0.66      0.00
  -27   15   22      3.38      0.00
  -25   15   22     -2.87      0.00
  -23   15   22     -5.40      0.00
  -21   15   22     -1.78      0.00
  -19   15   22     -1.16      0.00
  -17   15   22      0.70      0.00
  -15   15   22     -1.28      0.00
  -13   15   22      0.82      0.00
  -11   15   22      0.07      0.00
   -9   15   22     -2.80      0.00
   -7   15   22      0.14      0.00
   -5   15   22      2.68      0.00
   -3   15   22      0.09      0.00
   -1   15   22      0.03      0.00
    1   15   22      1.85      0.00
  -24   16   22      6.18      0.00
  -22   16   22      4.02      0.00
  -20   16   22      1.32      0.00
  -18   16   22      0.09      0.00
  -16   16   22      2.56      0.00
  -14   16   22     -0.88      0.00
  -12   16   22     -0.33      0.00
  -10   16   22      1.66      0.00
   -8   16   22      2.21      0.00
   -6   16   22     -1.90      0.00
   -4   16   22     -2.68      0.00
  -23   17   22     -7.44      0.00
  -21   17   22     -0.88      0.00
  -19   17   22     -0.69      0.00
  -17   17   22     -1.65      0.00
  -15   17   22     -3.05      0.00
  -13   17   22      2.35      0.00
  -11   17   22     -1.82      0.00
   -9   17   22     -0.41      0.00
   -7   17   22     -0.23      0.00
  -16   18   22      4.53      0.00
  -14   18   22     -0.17      0.00
  -12   18   22      0.59      0.00
  -10   18   22     -0.25      0.00
  -39    1   23      3.31      0.00
  -37    1   23      0.90      0.00
  -35    1   23     -0.68      0.00
  -33    1   23     -1.41      0.00
  -31    1   23     -0.30      0.00
  -29    1   23     -0.39      0.00
  -27    1   23     -0.38      0.00
  -25    1   23     -1.37      0.00
  -23    1   23      0.09      0.00
  -21    1   23      2.69      0.00
  -19    1   23     -1.03      0.00
  -17    1   23      1.58      0.00
  -15    1   23      0.99      0.00
  -13    1   23      2.00      0.00
  -11    1   23      1.08      0.00
   -9    1   23      2.53      0.00
   -7    1   23      1.10      0.00
   -5    1   23     -0.96      0.00
   -3    1   23      0.61      0.00
   -1    1   23     -1.37      0.00
    1    1   23     -0.72      0.00
    3    1   23      1.56      0.00
    5    1   23      0.64      0.00
    7    1   23     -1.66      0.00
    9    1   23     -3.87      0.00
  -38    2   23     -4.37      0.00
  -36    2   23      1.33      0.00
  -34    2   23      1.22      0.00
  -32    2   23      1.71      0.00
  -30    2   23      0.14      0.00
  -28    2   23      0.73      0.00
  -26    2   23      2.96      0.00
  -24    2   23      3.37      0.00
  -22    2   23     -3.53      0.00
  -20    2   23     -1.32      0.00
  -18    2   23      0.24      0.00
  -16    2   23     -2.23      0.00
  -14    2   23     -3.08      0.00
  -12    2   23     -2.60      0.00
  -10    2   23     -4.29      0.00
   -8    2   23     -3.82      0.00
   -6    2   23      0.45      0.00
   -4    2   23     -0.61      0.00
   -2    2   23     -0.27      0.00
    0    2   23      2.95      0.00
    2    2   23     -0.18      0.00
    4    2   23     -2.11      0.00
    6    2   23      1.43      0.00
    8    2   23      6.35      0.00
  -39    3   23      3.16      0.00
  -37    3   23     -0.23      0.00
  -35    3   23     -0.66      0.00
  -33    3   23     -2.58      0.00
  -31    3   23     -0.39      0.00
  -29    3   23     -0.33      0.00
  -27    3   23     -3.63      0.00
  -25    3   23     -6.78      0.00
  -23    3   23     -1.97      0.00
  -21    3   23      5.53      0.00
  -19    3   23     -2.36      0.00
  -17    3   23      2.07      0.00
  -15    3   23      2.77      0.00
  -13    3   23      4.41      0.00
  -11    3   23      4.55      0.00
   -9    3   23      6.52      0.00
   -7    3   23      1.14      0.00
   -5    3   23     -0.53      0.00
   -3    3   23      2.69      0.00
   -1    3   23     -1.67      0.00
    1    3   23     -3.67      0.00
    3    3   23      0.97      0.00
    5    3   23     -0.15      0.00
    7    3   23     -5.48      0.00
    9    3   23     -8.25      0.00
  -38    4   23     -0.29      0.00
  -36    4   23      0.64      0.00
  -34    4   23      1.22      0.00
  -32    4   23      2.28      0.00
  -30    4   23     -0.05      0.00
  -28    4   23      1.95      0.00
  -26    4   23      8.26      0.00
  -24    4   23      6.98      0.00
  -22    4   23     -2.74      0.00
  -20    4   23     -0.60      0.00
  -18    4   23      1.92      0.00
  -16    4   23     -3.21      0.00
  -14    4   23     -4.31      0.00
  -12    4   23     -4.49      0.00
  -10    4   23     -6.61      0.00
   -8    4   23     -3.61      0.00
   -6    4   23      3.02      0.00
   -4    4   23     -1.97      0.00
   -2    4   23     -1.49      0.00
    0    4   23      3.17      0.00
    2    4   23      4.20      0.00
    4    4   23     -0.41      0.00
    6    4   23      2.97      0.00
    8    4   23      6.92      0.00
  -37    5   23     -0.04      0.00
  -35    5   23      0.45      0.00
  -33    5   23     -1.96      0.00
  -31    5   23     -2.06      0.00
  -29    5   23      0.66      0.00
  -27    5   23     -6.06      0.00
  -25    5   23     -8.70      0.00
  -23    5   23     -1.68      0.00
  -21    5   23      1.79      0.00
  -19    5   23     -3.12      0.00
  -17    5   23      0.58      0.00
  -15    5   23      4.80      0.00
  -13    5   23      3.30      0.00
  -11    5   23      4.64      0.00
   -9    5   23      4.31      0.00
   -7    5   23     -2.80      0.00
   -5    5   23     -3.26      0.00
   -3    5   23      2.34      0.00
   -1    5   23      0.31      0.00
    1    5   23     -5.36      0.00
    3    5   23     -2.98      0.00
    5    5   23     -1.40      0.00
    7    5   23     -2.38      0.00
    9    5   23     -3.32      0.00
  -36    6   23     -2.47      0.00
  -34    6   23     -0.48      0.00
  -32    6   23      2.01      0.00
  -30    6   23      0.65      0.00
  -28    6   23      0.14      0.00
  -26    6   23      7.90      0.00
  -24    6   23      3.17      0.00
  -22    6   23     -1.27      0.00
  -20    6   23      1.70      0.00
  -18    6   23      2.39      0.00
  -16    6   23     -3.87      0.00
  -14    6   23     -2.44      0.00
  -12    6   23     -2.31      0.00
  -10    6   23     -1.61      0.00
   -8    6   23      0.32      0.00
   -6    6   23      6.51      0.00
   -4    6   23      0.44      0.00
   -2    6   23     -1.61      0.00
    0    6   23      1.38      0.00
    2    6   23      4.41      0.00
    4    6   23      2.66      0.00
    6    6   23      0.07      0.00
    8    6   23      0.46      0.00
  -37    7   23      3.78      0.00
  -35    7   23      3.18      0.00
  -33    7   23      2.31      0.00
  -31    7   23     -2.41      0.00
  -29    7   23      2.78      0.00
  -27    7   23     -2.46      0.00
  -25    7   23     -4.44      0.00
  -23    7   23      2.14      0.00
  -21    7   23     -0.25      0.00
  -19    7   23     -1.56      0.00
  -17    7   23     -0.08      0.00
  -15    7   23      3.10      0.00
  -13    7   23     -1.03      0.00
  -11    7   23      0.63      0.00
   -9    7   23     -2.30      0.00
   -7    7   23     -3.86      0.00
   -5    7   23     -3.58      0.00
   -3    7   23      1.60      0.00
   -1    7   23      0.47      0.00
    1    7   23     -0.47      0.00
    3    7   23     -2.45      0.00
    5    7   23     -0.87      0.00
    7    7   23      1.40      0.00
  -36    8   23     -4.83      0.00
  -34    8   23     -6.14      0.00
  -32    8   23     -1.43      0.00
  -30    8   23     -0.59      0.00
  -28    8   23     -3.16      0.00
  -26    8   23      2.45      0.00
  -24    8   23     -0.28      0.00
  -22    8   23     -2.36      0.00
  -20    8   23      0.14      0.00
  -18    8   23      1.35      0.00
  -16    8   23     -1.00      0.00
  -14    8   23      2.35      0.00
  -12    8   23      0.34      0.00
  -10    8   23      3.09      0.00
   -8    8   23      4.54      0.00
   -6    8   23      2.37      0.00
   -4    8   23     -0.69      0.00
   -2    8   23     -1.73      0.00
    0    8   23     -0.89      0.00
    2    8   23     -2.80      0.00
    4    8   23      0.76      0.00
    6    8   23     -1.98      0.00
  -35    9   23      6.25      0.00
  -33    9   23      7.26      0.00
  -31    9   23     -0.01      0.00
  -29    9   23      3.11      0.00
  -27    9   23      1.65      0.00
  -25    9   23     -0.86      0.00
  -23    9   23      1.54      0.00
  -21    9   23      1.53      0.00
  -19    9   23     -0.67      0.00
  -17    9   23     -1.39      0.00
  -15    9   23     -3.31      0.00
  -13    9   23     -2.27      0.00
  -11    9   23     -0.79      0.00
   -9    9   23     -6.37      0.00
   -7    9   23     -3.16      0.00
   -5    9   23      0.71      0.00
   -3    9   23      3.13      0.00
   -1    9   23      0.27      0.00
    1    9   23      5.46      0.00
    3    9   23      2.82      0.00
    5    9   23      3.64      0.00
  -32   10   23     -3.30      0.00
  -30   10   23     -0.83      0.00
  -28   10   23     -1.77      0.00
  -26   10   23     -1.13      0.00
  -24   10   23      1.11      0.00
  -22   10   23     -1.15      0.00
  -20   10   23     -0.39      0.00
  -18   10   23      1.70      0.00
  -16   10   23      4.72      0.00
  -14   10   23      4.20      0.00
  -12   10   23      0.44      0.00
  -10   10   23      3.30      0.00
   -8   10   23      6.77      0.00
   -6   10   23     -0.49      0.00
   -4   10   23     -2.20      0.00
   -2   10   23     -2.91      0.00
    0   10   23     -1.68      0.00
    2   10   23     -6.43      0.00
    4   10   23     -4.29      0.00
  -33   11   23      5.82      0.00
  -31   11   23      1.10      0.00
  -29   11   23     -0.35      0.00
  -27   11   23      0.93      0.00
  -25   11   23     -0.43      0.00
  -23   11   23     -1.95      0.00
  -21   11   23      1.53      0.00
  -19   11   23     -1.19      0.00
  -17   11   23     -3.51      0.00
  -15   11   23     -7.03      0.00
  -13   11   23     -0.90      0.00
  -11   11   23     -1.91      0.00
   -9   11   23     -4.51      0.00
   -7   11   23     -2.75      0.00
   -5   11   23      1.21      0.00
   -3   11   23      4.37      0.00
   -1   11   23     -0.24      0.00
    1   11   23      4.27      0.00
    3   11   23      3.51      0.00
  -32   12   23     -2.60      0.00
  -30   12   23      0.04      0.00
  -28   12   23      1.25      0.00
  -26   12   23     -0.36      0.00
  -24   12   23      2.10      0.00
  -22   12   23      0.65      0.00
  -20   12   23     -1.80      0.00
  -18   12   23      2.18      0.00
  -16   12   23      6.04      0.00
  -14   12   23      3.25      0.00
  -12   12   23      1.67      0.00
  -10   12   23      1.74      0.00
   -8   12   23      2.60      0.00
   -6   12   23      0.06      0.00
   -4   12   23     -2.50      0.00
   -2   12   23     -2.14      0.00
    0   12   23      1.39      0.00
    2   12   23     -2.58      0.00
  -31   13   23      2.16      0.00
  -29   13   23     -1.66      0.00
  -27   13   23     -0.02      0.00
  -25   13   23     -0.64      0.00
  -23   13   23     -1.48      0.00
  -21   13   23      1.57      0.00
  -19   13   23      1.13      0.00
  -17   13   23     -3.48      0.00
  -15   13   23     -4.06      0.00
  -13   13   23     -1.33      0.00
  -11   13   23     -1.77      0.00
   -9   13   23     -0.10      0.00
   -7   13   23      0.08      0.00
   -5   13   23      0.11      0.00
   -3   13   23      2.75      0.00
   -1   13   23     -2.87      0.00
  -28   14   23      0.31      0.00
  -26   14   23      0.17      0.00
  -24   14   23     -0.80      0.00
  -22   14   23      1.15      0.00
  -20   14   23     -2.88      0.00
  -18   14   23      0.94      0.00
  -16   14   23      2.07      0.00
  -14   14   23      1.88      0.00
  -12   14   23      0.41      0.00
  -10   14   23      0.99      0.00
   -8   14   23     -2.23      0.00
   -6   14   23     -0.25      0.00
   -4   14   23     -0.38      0.00
   -2   14   23      1.19      0.00
    0   14   23      3.92      0.00
  -25   15   23      0.61      0.00
  -23   15   23      1.00      0.00
  -21   15   23     -1.54      0.00
  -19   15   23      2.28      0.00
  -17   15   23     -1.20      0.00
  -15   15   23     -0.50      0.00
  -13   15   23     -0.40      0.00
  -11   15   23     -0.58      0.00
   -9   15   23      0.16      0.00
   -7   15   23      4.25      0.00
   -5   15   23     -0.19      0.00
   -3   15   23     -1.26      0.00
  -24   16   23     -2.11      0.00
  -22   16   23      2.17      0.00
  -20   16   23      0.47      0.00
  -18   16   23     -1.12      0.00
  -16   16   23     -0.11      0.00
  -14   16   23      0.42      0.00
  -12   16   23     -0.51      0.00
  -10   16   23      3.02      0.00
   -8   16   23     -4.88      0.00
   -6   16   23     -3.95      0.00
   -4   16   23      0.78      0.00
  -17   17   23      0.62      0.00
  -15   17   23      0.54      0.00
  -13   17   23     -0.08      0.00
  -11   17   23     -2.29      0.00
   -9   17   23      0.00      0.00
   -7   17   23      7.10      0.00
  -38    0   24      5.70      0.00
  -36    0   24     -2.16      0.00
  -34    0   24     -1.72      0.00
  -32    0   24      2.00      0.00
  -30    0   24     -2.42      0.00
  -28    0   24     -3.43      0.00
  -26    0   24     -4.29      0.00
  -24    0   24      1.47      0.00
  -22    0   24      5.51      0.00
  -20    0   24     -0.44      0.00
  -18    0   24      2.92      0.00
  -16    0   24      1.03      0.00
  -14    0   24      2.90      0.00
  -12    0   24      5.97      0.00
  -10    0   24      3.96      0.00
   -8    0   24      0.01      0.00
   -6    0   24     -2.24      0.00
   -4    0   24      0.99      0.00
   -2    0   24     -3.29      0.00
    0    0   24     -2.44      0.00
    2    0   24      2.98      0.00
    4    0   24     -1.41      0.00
    6    0   24     -1.15      0.00
    8    0   24     -1.52      0.00
  -39    1   24     -9.58      0.00
  -37    1   24     -0.22      0.00
  -35    1   24      1.12      0.00
  -33    1   24     -0.48      0.00
  -31    1   24     -1.39      0.00
  -29    1   24      3.93      0.00
  -27    1   24      3.88      0.00
  -25    1   24      3.13      0.00
  -23    1   24     -5.49      0.00
  -21    1   24     -1.94      0.00
  -19    1   24     -1.24      0.00
  -17    1   24     -2.24      0.00
  -15    1   24     -1.60      0.00
  -13    1   24     -4.29      0.00
  -11    1   24     -5.30      0.00
   -9    1   24     -0.68      0.00
   -7    1   24      2.20      0.00
   -5    1   24      0.44      0.00
   -3    1   24      0.66      0.00
   -1    1   24      3.76      0.00
    1    1   24      0.08      0.00
    3    1   24     -1.06      0.00
    5    1   24      3.15      0.00
    7    1   24      0.86      0.00
  -38    2   24      5.20      0.00
  -36    2   24      0.18      0.00
  -34    2   24      0.52      0.00
  -32    2   24      3.01      0.00
  -30    2   24     -0.86      0.00
  -28    2   24     -4.15      0.00
  -26    2   24     -4.62      0.00
  -24    2   24      0.99      0.00
  -22    2   24      4.68      0.00
  -20    2   24      0.67      0.00
  -18    2   24      2.35      0.00
  -16    2   24      2.23      0.00
  -14    2   24      1.97      0.00
  -12    2   24      4.88      0.00
  -10    2   24      0.23      0.00
   -8    2   24     -2.80      0.00
   -6    2   24     -2.49      0.00
   -4    2   24     -0.02      0.00
   -2    2   24     -1.54      0.00
    0    2   24     -2.93      0.00
    2    2   24      0.18      0.00
    4    2   24     -3.24      0.00
    6    2   24     -2.41      0.00
    8    2   24     -0.82      0.00
  -37    3   24     -3.30      0.00
  -35    3   24     -0.72      0.00
  -33    3   24     -2.24      0.00
  -31    3   24     -2.27      0.00
  -29    3   24      2.15      0.00
  -27    3   24      3.76      0.00
  -25    3   24      1.96      0.00
  -23    3   24     -2.73      0.00
  -21    3   24     -1.68      0.00
  -19    3   24     -1.23      0.00
  -17    3   24     -3.08      0.00
  -15    3   24     -1.27      0.00
  -13    3   24     -2.86      0.00
  -11    3   24     -0.11      0.00
   -9    3   24      3.83      0.00
   -7    3   24      4.76      0.00
   -5    3   24      1.35      0.00
   -3    3   24      0.27      0.00
   -1    3   24     -0.05      0.00
    1    3   24      2.45      0.00
    3    3   24      1.66      0.00
    5    3   24      3.91      0.00
    7    3   24     -0.02      0.00
  -38    4   24      4.60      0.00
  -36    4   24      0.94      0.00
  -34    4   24      1.22      0.00
  -32    4   24      0.74      0.00
  -30    4   24      1.13      0.00
  -28    4   24     -1.93      0.00
  -26    4   24     -1.18      0.00
  -24    4   24      0.80      0.00
  -22    4   24     -0.59      0.00
  -20    4   24      1.63      0.00
  -18    4   24      0.82      0.00
  -16    4   24      2.93      0.00
  -14    4   24     -0.18      0.00
  -12    4   24      0.90      0.00
  -10    4   24     -4.62      0.00
   -8    4   24     -4.45      0.00
   -6    4   24     -4.05      0.00
   -4    4   24     -1.10      0.00
   -2    4   24      2.52      0.00
    0    4   24      0.77      0.00
    2    4   24     -2.02      0.00
    4    4   24     -2.55      0.00
    6    4   24      0.20      0.00
  -37    5   24     -1.93      0.00
  -35    5   24      0.18      0.00
  -33    5   24      1.18      0.00
  -31    5   24      0.48      0.00
  -29    5   24     -0.45      0.00
  -27    5   24     -0.06      0.00
  -25    5   24     -1.06      0.00
  -23    5   24      1.63      0.00
  -21    5   24      1.05      0.00
  -19    5   24     -0.51      0.00
  -17    5   24     -0.72      0.00
  -15    5   24      0.55      0.00
  -13    5   24     -0.21      0.00
  -11    5   24      3.82      0.00
   -9    5   24      2.74      0.00
   -7    5   24      3.25      0.00
   -5    5   24      2.75      0.00
   -3    5   24     -0.66      0.00
   -1    5   24     -4.81      0.00
    1    5   24     -0.88      0.00
    3    5   24      2.44      0.00
    5    5   24     -0.94      0.00
    7    5   24     -1.84      0.00
  -36    6   24     -0.93      0.00
  -34    6   24     -0.93      0.00
  -32    6   24     -3.99      0.00
  -30    6   24     -0.15      0.00
  -28    6   24      0.73      0.00
  -26    6   24      0.44      0.00
  -24    6   24     -0.07      0.00
  -22    6   24     -4.02      0.00
  -20    6   24      0.55      0.00
  -18    6   24     -2.21      0.00
  -16    6   24     -1.47      0.00
  -14    6   24     -1.49      0.00
  -12    6   24     -1.23      0.00
  -10    6   24     -3.27      0.00
   -8    6   24      1.13      0.00
   -6    6   24     -1.72      0.00
   -4    6   24     -1.39      0.00
   -2    6   24      2.68      0.00
    0    6   24      5.79      0.00
    2    6   24     -1.52      0.00
    4    6   24      0.67      0.00
    6    6   24      2.39      0.00
  -37    7   24      1.09      0.00
  -35    7   24     -0.27      0.00
  -33    7   24      4.13      0.00
  -31    7   24      2.60      0.00
  -29    7   24      0.23      0.00
  -27    7   24     -0.31      0.00
  -25    7   24      1.46      0.00
  -23    7   24      2.73      0.00
  -21    7   24      2.38      0.00
  -19    7   24      0.96      0.00
  -17    7   24      4.55      0.00
  -15    7   24      2.74      0.00
  -13    7   24      0.29      0.00
  -11    7   24      2.37      0.00
   -9    7   24     -0.48      0.00
   -7    7   24     -3.34      0.00
   -5    7   24      1.09      0.00
   -3    7   24     -0.53      0.00
   -1    7   24     -4.13      0.00
    1    7   24     -2.90      0.00
    3    7   24      1.16      0.00
    5    7   24     -3.37      0.00
  -36    8   24      0.02      0.00
  -34    8   24     -1.00      0.00
  -32    8   24     -3.39      0.00
  -30    8   24     -1.46      0.00
  -28    8   24      0.42      0.00
  -26    8   24     -2.43      0.00
  -24    8   24     -2.66      0.00
  -22    8   24     -3.50      0.00
  -20    8   24     -0.95      0.00
  -18    8   24     -3.29      0.00
  -16    8   24     -5.52      0.00
  -14    8   24     -0.15      0.00
  -12    8   24     -1.17      0.00
  -10    8   24     -1.48      0.00
   -8    8   24      3.12      0.00
   -6    8   24      2.61      0.00
   -4    8   24      1.19      0.00
   -2    8   24      1.24      0.00
    0    8   24      3.24      0.00
    2    8   24     -1.39      0.00
    4    8   24      3.25      0.00
  -35    9   24     -1.55      0.00
  -33    9   24      2.36      0.00
  -31    9   24      0.33      0.00
  -29    9   24      0.69      0.00
  -27    9   24      0.08      0.00
  -25    9   24      3.42      0.00
  -23    9   24      2.92      0.00
  -21    9   24      2.35      0.00
  -19    9   24      0.28      0.00
  -17    9   24      5.36      0.00
  -15    9   24      1.65      0.00
  -13    9   24      0.50      0.00
  -11    9   24      1.28      0.00
   -9    9   24      0.62      0.00
   -7    9   24     -3.33      0.00
   -5    9   24     -3.00      0.00
   -3    9   24     -2.68      0.00
   -1    9   24      0.01      0.00
    1    9   24      2.12      0.00
    3    9   24     -0.28      0.00
  -34   10   24     -0.41      0.00
  -32   10   24      0.80      0.00
  -30   10   24      0.04      0.00
  -28   10   24      1.04      0.00
  -26   10   24     -1.10      0.00
  -24   10   24     -1.77      0.00
  -22   10   24     -2.53      0.00
  -20   10   24      0.59      0.00
  -18   10   24     -1.64      0.00
  -16   10   24     -3.07      0.00
  -14   10   24      0.06      0.00
  -12   10   24     -1.40      0.00
  -10   10   24     -0.44      0.00
   -8   10   24     -0.16      0.00
   -6   10   24      3.17      0.00
   -4   10   24      4.67      0.00
   -2   10   24      0.18      0.00
    0   10   24     -4.71      0.00
    2   10   24     -4.10      0.00
    4   10   24      1.29      0.00
  -33   11   24     -0.20      0.00
  -31   11   24     -2.43      0.00
  -29   11   24     -0.49      0.00
  -27   11   24     -1.23      0.00
  -25   11   24     -0.64      0.00
  -23   11   24      1.09      0.00
  -21   11   24     -0.54      0.00
  -19   11   24     -1.19      0.00
  -17   11   24      1.53      0.00
  -15   11   24      0.34      0.00
  -13   11   24      0.78      0.00
  -11   11   24     -0.22      0.00
   -9   11   24     -0.05      0.00
   -7   11   24      0.25      0.00
   -5   11   24     -5.03      0.00
   -3   11   24     -1.76      0.00
   -1   11   24      4.11      0.00
    1   11   24      8.02      0.00
  -30   12   24      1.24      0.00
  -28   12   24      0.98      0.00
  -26   12   24      1.65      0.00
  -24   12   24      2.29      0.00
  -22   12   24     -0.72      0.00
  -20   12   24      3.63      0.00
  -18   12   24     -0.73      0.00
  -16   12   24      1.27      0.00
  -14   12   24     -1.14      0.00
  -12   12   24      1.51      0.00
  -10   12   24      1.01      0.00
   -8   12   24     -0.32      0.00
   -6   12   24      1.88      0.00
   -4   12   24      2.61      0.00
   -2   12   24     -1.20      0.00
    0   12   24     -7.94      0.00
  -29   13   24     -0.16      0.00
  -27   13   24     -0.53      0.00
  -25   13   24     -3.31      0.00
  -23   13   24     -0.47      0.00
  -21   13   24     -2.03      0.00
  -19   13   24     -1.86      0.00
  -17   13   24     -0.71      0.00
  -15   13   24     -0.23      0.00
  -13   13   24     -1.75      0.00
  -11   13   24     -1.40      0.00
   -9   13   24     -2.14      0.00
   -7   13   24      0.09      0.00
   -5   13   24     -2.24      0.00
   -3   13   24      0.51      0.00
   -1   13   24      2.66      0.00
  -28   14   24     -1.03      0.00
  -26   14   24      0.91      0.00
  -24   14   24      2.61      0.00
  -22   14   24     -0.83      0.00
  -20   14   24      3.91      0.00
  -18   14   24     -0.79      0.00
  -16   14   24      1.86      0.00
  -14   14   24     -0.05      0.00
  -12   14   24      3.27      0.00
  -10   14   24      1.21      0.00
   -8   14   24      3.22      0.00
   -6   14   24      0.93      0.00
   -4   14   24     -0.69      0.00
  -25   15   24     -0.66      0.00
  -23   15   24     -0.78      0.00
  -21   15   24     -1.00      0.00
  -19   15   24     -1.92      0.00
  -17   15   24      0.82      0.00
  -15   15   24     -0.59      0.00
  -13   15   24     -1.43      0.00
  -11   15   24     -1.33      0.00
   -9   15   24     -4.01      0.00
   -7   15   24     -2.55      0.00
   -5   15   24      0.09      0.00
  -22   16   24      0.88      0.00
  -20   16   24      2.10      0.00
  -18   16   24     -1.16      0.00
  -16   16   24      0.30      0.00
  -14   16   24     -1.04      0.00
  -12   16   24      1.31      0.00
  -10   16   24      1.93      0.00
  -37    1   25      0.70      0.00
  -35    1   25     -0.49      0.00
  -33    1   25     -2.70      0.00
  -31    1   25     -2.33      0.00
  -29    1   25     -1.66      0.00
  -27    1   25     -0.55      0.00
  -25    1   25     -0.75      0.00
  -23    1   25      0.25      0.00
  -21    1   25      0.71      0.00
  -19    1   25     -0.21      0.00
  -17    1   25      0.85      0.00
  -15    1   25     -0.56      0.00
  -13    1   25     -1.24      0.00
  -11    1   25     -1.89      0.00
   -9    1   25      1.74      0.00
   -7    1   25      2.57      0.00
   -5    1   25     -0.34      0.00
   -3    1   25      1.64      0.00
   -1    1   25      0.03      0.00
    1    1   25     -1.02      0.00
    3    1   25     -0.81      0.00
    5    1   25     -0.54      0.00
    7    1   25      1.84      0.00
  -38    2   25     -3.04      0.00
  -36    2   25      1.31      0.00
  -34    2   25      2.27      0.00
  -32    2   25      5.55      0.00
  -30    2   25      1.90      0.00
  -28    2   25      0.75      0.00
  -26    2   25      1.11      0.00
  -24    2   25      2.11      0.00
  -22    2   25     -0.74      0.00
  -20    2   25      0.54      0.00
  -18    2   25     -0.72      0.00
  -16    2   25      0.05      0.00
  -14    2   25      0.49      0.00
  -12    2   25      3.46      0.00
  -10    2   25     -1.80      0.00
   -8    2   25     -4.83      0.00
   -6    2   25     -2.16      0.00
   -4    2   25     -0.59      0.00
   -2    2   25     -3.55      0.00
    0    2   25      1.32      0.00
    2    2   25      1.01      0.00
    4    2   25      1.50      0.00
    6    2   25     -1.35      0.00
  -37    3   25     -0.10      0.00
  -35    3   25     -1.73      0.00
  -33    3   25     -6.40      0.00
  -31    3   25     -3.33      0.00
  -29    3   25      0.80      0.00
  -27    3   25      0.38      0.00
  -25    3   25     -3.65      0.00
  -23    3   25     -2.84      0.00
  -21    3   25      0.25      0.00
  -19    3   25     -2.01      0.00
  -17    3   25      0.84      0.00
  -15    3   25      0.06      0.00
  -13    3   25     -1.57      0.00
  -11    3   25      0.70      0.00
   -9    3   25      6.82      0.00
   -7    3   25      5.08      0.00
   -5    3   25      0.03      0.00
   -3    3   25      4.06      0.00
   -1    3   25      2.50      0.00
    1    3   25     -1.72      0.00
    3    3   25     -0.93      0.00
    5    3   25     -0.60      0.00
  -38    4   25     -0.15      0.00
  -36    4   25      1.04      0.00
  -34    4   25      4.02      0.00
  -32    4   25      5.80      0.00
  -30    4   25     -1.11      0.00
  -28    4   25     -3.21      0.00
  -26    4   25      2.23      0.00
  -24    4   25      4.92      0.00
  -22    4   25      1.63      0.00
  -20    4   25      2.14      0.00
  -18    4   25      2.33      0.00
  -16    4   25     -0.91      0.00
  -14    4   25     -0.65      0.00
  -12    4   25     -0.66      0.00
  -10    4   25     -7.69      0.00
   -8    4   25     -7.79      0.00
   -6    4   25     -1.00      0.00
   -4    4   25     -0.91      0.00
   -2    4   25     -4.55      0.00
    0    4   25     -0.74      0.00
    2    4   25      1.91      0.00
    4    4   25      0.51      0.00
    6    4   25      0.00      0.00
  -37    5   25     -0.47      0.00
  -35    5   25     -0.76      0.00
  -33    5   25     -4.78      0.00
  -31    5   25     -1.70      0.00
  -29    5   25      4.66      0.00
  -27    5   25      0.43      0.00
  -25    5   25     -3.40      0.00
  -23    5   25     -2.77      0.00
  -21    5   25     -1.27      0.00
  -19    5   25     -3.89      0.00
  -17    5   25     -1.70      0.00
  -15    5   25      2.47      0.00
  -13    5   25      0.94      0.00
  -11    5   25      6.49      0.00
   -9    5   25      9.32      0.00
   -7    5   25      3.72      0.00
   -5    5   25     -1.92      0.00
   -3    5   25      1.84      0.00
   -1    5   25      2.94      0.00
    1    5   25     -1.30      0.00
    3    5   25     -0.63      0.00
    5    5   25     -1.64      0.00
  -36    6   25     -1.62      0.00
  -34    6   25      1.50      0.00
  -32    6   25      1.88      0.00
  -30    6   25     -1.71      0.00
  -28    6   25     -3.72      0.00
  -26    6   25      2.36      0.00
  -24    6   25      0.52      0.00
  -22    6   25      0.78      0.00
  -20    6   25      1.18      0.00
  -18    6   25      4.10      0.00
  -16    6   25     -1.67      0.00
  -14    6   25     -1.42      0.00
  -12    6   25     -3.95      0.00
  -10    6   25     -7.30      0.00
   -8    6   25     -6.59      0.00
   -6    6   25      1.63      0.00
   -4    6   25      0.94      0.00
   -2    6   25     -1.00      0.00
    0    6   25     -0.65      0.00
    2    6   25      0.28      0.00
    4    6   25      1.44      0.00
  -35    7   25      1.32      0.00
  -33    7   25      0.53      0.00
  -31    7   25     -0.25      0.00
  -29    7   25      3.76      0.00
  -27    7   25      0.13      0.00
  -25    7   25     -0.12      0.00
  -23    7   25      1.11      0.00
  -21    7   25      0.79      0.00
  -19    7   25     -0.70      0.00
  -17    7   25     -1.35      0.00
  -15    7   25      2.68      0.00
  -13    7   25      0.26      0.00
  -11    7   25      5.08      0.00
   -9    7   25      4.47      0.00
   -7    7   25      1.89      0.00
   -5    7   25     -2.02      0.00
   -3    7   25     -0.02      0.00
   -1    7   25     -0.92      0.00
    1    7   25      1.30      0.00
    3    7   25      0.27      0.00
  -34    8   25     -1.60      0.00
  -32    8   25     -1.69      0.00
  -30    8   25     -0.78      0.00
  -28    8   25     -3.20      0.00
  -26    8   25      0.06      0.00
  -24    8   25     -1.44      0.00
  -22    8   25     -1.10      0.00
  -20    8   25     -2.88      0.00
  -18    8   25      0.34      0.00
  -16    8   25     -2.07      0.00
  -14    8   25      0.88      0.00
  -12    8   25     -2.08      0.00
  -10    8   25     -2.77      0.00
   -8    8   25     -1.48      0.00
   -6    8   25     -0.02      0.00
   -4    8   25      0.55      0.00
   -2    8   25      1.30      0.00
    0    8   25      1.12      0.00
    2    8   25     -3.13      0.00
    4    8   25      1.57      0.00
  -33    9   25      2.76      0.00
  -31    9   25      0.23      0.00
  -29    9   25      1.63      0.00
  -27    9   25      2.57      0.00
  -25    9   25      0.83      0.00
  -23    9   25     -0.03      0.00
  -21    9   25      2.82      0.00
  -19    9   25      2.30      0.00
  -17    9   25      2.08      0.00
  -15    9   25     -0.44      0.00
  -13    9   25     -0.47      0.00
  -11    9   25      3.29      0.00
   -9    9   25      0.20      0.00
   -7    9   25      0.64      0.00
   -5    9   25     -0.74      0.00
   -3    9   25     -0.41      0.00
   -1    9   25     -3.67      0.00
    1    9   25      2.21      0.00
    3    9   25      0.03      0.00
  -32   10   25     -1.23      0.00
  -30   10   25      1.42      0.00
  -28   10   25     -2.24      0.00
  -26   10   25     -2.47      0.00
  -24   10   25      0.66      0.00
  -22   10   25     -0.02      0.00
  -20   10   25     -3.03      0.00
  -18   10   25     -2.63      0.00
  -16   10   25     -0.88      0.00
  -14   10   25      1.28      0.00
  -12   10   25     -2.70      0.00
  -10   10   25     -3.22      0.00
   -8   10   25      0.96      0.00
   -6   10   25     -0.63      0.00
   -4   10   25      2.36      0.00
   -2   10   25      1.24      0.00
    0   10   25      2.50      0.00
    2   10   25     -1.72      0.00
  -31   11   25     -1.51      0.00
  -29   11   25     -2.07      0.00
  -27   11   25      3.25      0.00
  -25   11   25      1.15      0.00
  -23   11   25     -2.18      0.00
  -21   11   25      1.98      0.00
  -19   11   25      2.23      0.00
  -17   11   25      3.15      0.00
  -15   11   25     -1.57      0.00
  -13   11   25      2.52      0.00
  -11   11   25      4.40      0.00
   -9   11   25      2.49      0.00
   -7   11   25      0.38      0.00
   -5   11   25     -2.39      0.00
   -3   11   25     -0.37      0.00
   -1   11   25     -2.63      0.00
  -30   12   25      3.76      0.00
  -28   12   25      0.15      0.00
  -26   12   25     -2.95      0.00
  -24   12   25      0.42      0.00
  -22   12   25      0.97      0.00
  -20   12   25     -3.57      0.00
  -18   12   25     -2.73      0.00
  -16   12   25     -0.93      0.00
  -14   12   25     -1.07      0.00
  -12   12   25     -3.94      0.00
  -10   12   25     -6.03      0.00
   -8   12   25     -2.46      0.00
   -6   12   25      0.27      0.00
   -4   12   25      1.77      0.00
  -27   13   25      2.07      0.00
  -25   13   25      1.81      0.00
  -23   13   25     -0.64      0.00
  -21   13   25      2.40      0.00
  -19   13   25      3.94      0.00
  -17   13   25      1.75      0.00
  -15   13   25      0.64      0.00
  -13   13   25      2.56      0.00
  -11   13   25      5.32      0.00
   -9   13   25      6.43      0.00
   -7   13   25      2.16      0.00
   -5   13   25     -0.95      0.00
  -26   14   25     -1.56      0.00
  -24   14   25     -2.05      0.00
  -22   14   25     -0.17      0.00
  -20   14   25     -5.02      0.00
  -18   14   25     -1.56      0.00
  -16   14   25     -0.89      0.00
  -14   14   25      0.01      0.00
  -12   14   25     -3.55      0.00
  -10   14   25     -5.77      0.00
   -8   14   25     -5.06      0.00
   -6   14   25     -1.11      0.00
  -23   15   25      1.92      0.00
  -21   15   25      1.24      0.00
  -19   15   25      3.92      0.00
  -17   15   25     -0.84      0.00
  -15   15   25     -0.61      0.00
  -13   15   25      0.07      0.00
  -11   15   25      3.75      0.00
   -7   15   25      3.07      0.00
  -18   16   25     -0.47      0.00
  -16   16   25      1.30      0.00
  -38    0   26      0.26      0.00
  -36    0   26     -1.74      0.00
  -34    0   26     -2.42      0.00
  -32    0   26      4.56      0.00
  -30    0   26      0.06      0.00
  -28    0   26     -1.75      0.00
  -26    0   26     -2.40      0.00
  -24    0   26      4.35      0.00
  -22    0   26      1.14      0.00
  -20    0   26     -0.45      0.00
  -18    0   26      3.10      0.00
  -16    0   26     -2.30      0.00
  -14    0   26     -4.09      0.00
  -12    0   26      0.34      0.00
  -10    0   26      4.70      0.00
   -8    0   26      3.11      0.00
   -6    0   26     -0.18      0.00
   -4    0   26      1.26      0.00
   -2    0   26      0.31      0.00
    0    0   26      2.22      0.00
    2    0   26      3.17      0.00
    4    0   26     -2.08      0.00
  -37    1   26      2.42      0.00
  -35    1   26      2.24      0.00
  -33    1   26     -0.03      0.00
  -31    1   26     -4.47      0.00
  -29    1   26      1.95      0.00
  -27    1   26      2.59      0.00
  -25    1   26      0.82      0.00
  -23    1   26     -4.08      0.00
  -21    1   26      1.92      0.00
  -19    1   26     -2.50      0.00
  -17    1   26     -0.37      0.00
  -15    1   26      3.07      0.00
  -13    1   26      1.98      0.00
  -11    1   26     -4.48      0.00
   -9    1   26     -3.73      0.00
   -7    1   26     -1.76      0.00
   -5    1   26     -0.09      0.00
   -3    1   26     -0.86      0.00
   -1    1   26     -0.68      0.00
    1    1   26     -3.26      0.00
    3    1   26     -1.10      0.00
    5    1   26      2.70      0.00
  -36    2   26     -3.19      0.00
  -34    2   26     -3.45      0.00
  -32    2   26      3.76      0.00
  -30    2   26      1.31      0.00
  -28    2   26     -2.10      0.00
  -26    2   26     -4.58      0.00
  -24    2   26      0.84      0.00
  -22    2   26      0.16      0.00
  -20    2   26     -1.14      0.00
  -18    2   26      2.35      0.00
  -16    2   26     -1.58      0.00
  -14    2   26     -1.69      0.00
  -12    2   26      4.21      0.00
  -10    2   26      4.30      0.00
   -8    2   26      2.82      0.00
   -6    2   26      0.91      0.00
   -4    2   26     -0.30      0.00
   -2    2   26      0.09      0.00
    0    2   26      1.46      0.00
    2    2   26      3.27      0.00
    4    2   26     -0.63      0.00
  -37    3   26      1.79      0.00
  -35    3   26      5.22      0.00
  -33    3   26      0.39      0.00
  -31    3   26     -2.73      0.00
  -29    3   26     -0.25      0.00
  -27    3   26      3.39      0.00
  -25    3   26      2.82      0.00
  -23    3   26     -0.38      0.00
  -21    3   26      1.95      0.00
  -19    3   26      0.00      0.00
  -17    3   26     -0.62      0.00
  -15    3   26      2.70      0.00
  -13    3   26     -4.20      0.00
  -11    3   26     -4.51      0.00
   -9    3   26     -3.12      0.00
   -7    3   26     -1.27      0.00
   -5    3   26      0.21      0.00
   -3    3   26      2.79      0.00
   -1    3   26     -1.06      0.00
    1    3   26     -1.67      0.00
    3    3   26     -2.85      0.00
    5    3   26      1.24      0.00
  -36    4   26     -3.58      0.00
  -34    4   26     -3.33      0.00
  -32    4   26      0.60      0.00
  -30    4   26      1.43      0.00
  -28    4   26      0.10      0.00
  -26    4   26     -1.33      0.00
  -24    4   26      0.00      0.00
  -22    4   26     -1.11      0.00
  -20    4   26     -1.44      0.00
  -18    4   26     -0.25      0.00
  -16    4   26     -2.35      0.00
  -14    4   26      0.11      0.00
  -12    4   26      5.23      0.00
  -10    4   26      1.57      0.00
   -8    4   26      1.94      0.00
   -6    4   26     -0.17      0.00
   -4    4   26     -4.38      0.00
   -2    4   26     -2.09      0.00
    0    4   26      1.68      0.00
    2    4   26      2.30      0.00
    4    4   26      0.84      0.00
  -37    5   26      0.72      0.00
  -35    5   26      3.33      0.00
  -33    5   26      0.25      0.00
  -31    5   26      0.35      0.00
  -29    5   26     -2.49      0.00
  -27    5   26     -1.81      0.00
  -25    5   26     -1.86      0.00
  -23    5   26     -0.35      0.00
  -21    5   26      0.65      0.00
  -19    5   26      1.03      0.00
  -17    5   26      1.78      0.00
  -15    5   26      4.49      0.00
  -13    5   26     -3.27      0.00
  -11    5   26      0.41      0.00
   -9    5   26     -1.70      0.00
   -7    5   26     -0.04      0.00
   -5    5   26      2.94      0.00
   -3    5   26      6.41      0.00
   -1    5   26     -1.02      0.00
    1    5   26     -2.18      0.00
    3    5   26     -0.17      0.00
  -36    6   26     -1.54      0.00
  -34    6   26      0.33      0.00
  -32    6   26     -0.16      0.00
  -30    6   26      1.32      0.00
  -28    6   26      4.47      0.00
  -26    6   26      2.41      0.00
  -24    6   26      2.25      0.00
  -22    6   26      0.24      0.00
  -20    6   26      0.17      0.00
  -18    6   26     -1.07      0.00
  -16    6   26     -5.22      0.00
  -14    6   26     -1.96      0.00
  -12    6   26     -0.11      0.00
  -10    6   26     -1.96      0.00
   -8    6   26      1.38      0.00
   -6    6   26     -1.59      0.00
   -4    6   26     -5.95      0.00
   -2    6   26     -3.23      0.00
    0    6   26      3.93      0.00
    2    6   26     -0.86      0.00
  -35    7   26     -1.24      0.00
  -33    7   26     -1.43      0.00
  -31    7   26     -0.58      0.00
  -29    7   26     -4.17      0.00
  -27    7   26     -3.20      0.00
  -25    7   26     -0.29      0.00
  -23    7   26     -1.48      0.00
  -21    7   26      0.32      0.00
  -19    7   26     -0.56      0.00
  -17    7   26      2.91      0.00
  -15    7   26      5.02      0.00
  -13    7   26      0.08      0.00
  -11    7   26      3.20      0.00
   -9    7   26      0.87      0.00
   -7    7   26     -0.17      0.00
   -5    7   26      4.33      0.00
   -3    7   26      4.39      0.00
   -1    7   26     -1.85      0.00
    1    7   26     -1.95      0.00
    3    7   26      3.51      0.00
  -34    8   26      2.65      0.00
  -32    8   26      1.10      0.00
  -30    8   26      1.83      0.00
  -28    8   26      4.62      0.00
  -26    8   26     -2.18      0.00
  -24    8   26      0.18      0.00
  -22    8   26     -0.90      0.00
  -20    8   26     -1.13      0.00
  -18    8   26      0.67      0.00
  -16    8   26     -4.47      0.00
  -14    8   26     -0.08      0.00
  -12    8   26     -1.28      0.00
  -10    8   26     -2.65      0.00
   -8    8   26     -0.84      0.00
   -6    8   26     -2.96      0.00
   -4    8   26     -3.74      0.00
   -2    8   26      0.11      0.00
    0    8   26      3.31      0.00
    2    8   26     -3.13      0.00
  -33    9   26     -0.74      0.00
  -31    9   26     -0.89      0.00
  -29    9   26     -2.67      0.00
  -27    9   26     -0.31      0.00
  -25    9   26      3.10      0.00
  -23    9   26     -0.05      0.00
  -21    9   26      3.84      0.00
  -19    9   26     -0.30      0.00
  -17    9   26      0.99      0.00
  -15    9   26      0.24      0.00
  -13    9   26     -1.43      0.00
  -11    9   26      1.03      0.00
   -9    9   26      2.23      0.00
   -7    9   26      2.71      0.00
   -5    9   26      4.07      0.00
   -3    9   26     -0.64      0.00
   -1    9   26     -2.71      0.00
  -32   10   26     -0.19      0.00
  -30   10   26      0.28      0.00
  -28   10   26      2.26      0.00
  -26   10   26     -2.47      0.00
  -24   10   26      0.80      0.00
  -22   10   26     -2.58      0.00
  -20   10   26     -2.49      0.00
  -18   10   26      0.64      0.00
  -16   10   26      0.50      0.00
  -14   10   26      2.47      0.00
  -12   10   26      0.82      0.00
  -10   10   26      0.19      0.00
   -8   10   26     -3.33      0.00
   -6   10   26     -3.97      0.00
   -4   10   26     -0.22      0.00
   -2   10   26      3.42      0.00
  -29   11   26     -0.49      0.00
  -27   11   26     -0.98      0.00
  -25   11   26     -1.06      0.00
  -23   11   26     -1.73      0.00
  -21   11   26      2.22      0.00
  -19   11   26      0.64      0.00
  -17   11   26     -1.40      0.00
  -15   11   26     -1.63      0.00
  -13   11   26     -1.03      0.00
  -11   11   26     -1.93      0.00
   -9   11   26      0.13      0.00
   -7   11   26      4.86      0.00
   -5   11   26      0.58      0.00
  -28   12   26      1.00      0.00
  -26   12   26      1.66      0.00
  -24   12   26      4.84      0.00
  -22   12   26      0.21      0.00
  -20   12   26      0.45      0.00
  -18   12   26     -0.99      0.00
  -16   12   26      2.37      0.00
  -14   12   26     -1.92      0.00
  -12   12   26      1.61      0.00
  -10   12   26      2.41      0.00
   -8   12   26     -2.86      0.00
   -6   12   26     -1.83      0.00
  -25   13   26     -3.76      0.00
  -23   13   26     -3.31      0.00
  -21   13   26     -0.80      0.00
  -19   13   26      0.56      0.00
  -17   13   26     -0.13      0.00
  -15   13   26      2.35      0.00
  -13   13   26      1.67      0.00
  -11   13   26     -1.37      0.00
   -9   13   26     -0.94      0.00
   -7   13   26      3.20      0.00
  -24   14   26      3.51      0.00
  -22   14   26     -0.09      0.00
  -20   14   26      1.73      0.00
  -18   14   26     -2.51      0.00
  -16   14   26     -0.86      0.00
  -14   14   26     -4.97      0.00
  -12   14   26     -0.26      0.00
  -10   14   26      0.10      0.00
   -8   14   26     -0.93      0.00
  -21   15   26      0.01      0.00
  -19   15   26     -0.42      0.00
  -17   15   26      2.20      0.00
  -37    1   27      0.74      0.00
  -35    1   27      0.81      0.00
  -33    1   27     -0.26      0.00
  -31    1   27      0.82      0.00
  -29    1   27      1.02      0.00
  -27    1   27      0.85      0.00
  -25    1   27     -0.51      0.00
  -23    1   27      1.21      0.00
  -21    1   27     -0.55      0.00
  -19    1   27     -0.19      0.00
  -17    1   27      0.49      0.00
  -15    1   27      0.91      0.00
  -13    1   27     -0.41      0.00
  -11    1   27     -2.25      0.00
   -9    1   27      1.51      0.00
   -7    1   27      2.94      0.00
   -5    1   27      0.01      0.00
   -3    1   27      0.28      0.00
   -1    1   27      0.14      0.00
    1    1   27      1.55      0.00
    3    1   27      1.65      0.00
  -36    2   27      0.13      0.00
  -34    2   27     -1.08      0.00
  -32    2   27      1.96      0.00
  -30    2   27     -2.91      0.00
  -28    2   27     -2.75      0.00
  -26    2   27     -1.37      0.00
  -24    2   27      0.21      0.00
  -22    2   27     -1.36      0.00
  -20    2   27      2.32      0.00
  -18    2   27     -1.04      0.00
  -16    2   27      0.27      0.00
  -14    2   27     -1.83      0.00
  -12    2   27      4.83      0.00
  -10    2   27     -0.62      0.00
   -8    2   27     -3.73      0.00
   -6    2   27     -3.38      0.00
   -4    2   27      1.46      0.00
   -2    2   27     -1.67      0.00
    0    2   27     -1.00      0.00
    2    2   27     -4.22      0.00
  -35    3   27      0.80      0.00
  -33    3   27     -3.22      0.00
  -31    3   27     -0.25      0.00
  -29    3   27      4.66      0.00
  -27    3   27      5.43      0.00
  -25    3   27     -0.11      0.00
  -23    3   27      1.04      0.00
  -21    3   27     -1.18      0.00
  -19    3   27     -1.60      0.00
  -17    3   27     -0.01      0.00
  -15    3   27      0.58      0.00
  -13    3   27     -2.94      0.00
  -11    3   27     -2.98      0.00
   -9    3   27      3.62      0.00
   -7    3   27      4.87      0.00
   -5    3   27     -0.53      0.00
   -3    3   27      0.06      0.00
   -1    3   27      2.15      0.00
    1    3   27      3.30      0.00
    3    3   27      3.64      0.00
  -36    4   27     -0.74      0.00
  -34    4   27      1.78      0.00
  -32    4   27      4.73      0.00
  -30    4   27     -2.06      0.00
  -28    4   27     -7.07      0.00
  -26    4   27     -3.23      0.00
  -24    4   27      0.11      0.00
  -22    4   27     -0.55      0.00
  -20    4   27      2.31      0.00
  -18    4   27      0.96      0.00
  -16    4   27      0.75      0.00
  -14    4   27      1.38      0.00
  -12    4   27      4.88      0.00
  -10    4   27     -2.05      0.00
   -8    4   27     -4.29      0.00
   -6    4   27     -1.68      0.00
   -4    4   27      2.40      0.00
   -2    4   27     -1.44      0.00
    0    4   27     -2.45      0.00
    2    4   27     -2.78      0.00
  -35    5   27      0.37      0.00
  -33    5   27     -4.54      0.00
  -31    5   27     -3.07      0.00
  -29    5   27      4.02      0.00
  -27    5   27      4.16      0.00
  -25    5   27      0.98      0.00
  -23    5   27      0.38      0.00
  -21    5   27     -0.49      0.00
  -19    5   27     -1.47      0.00
  -17    5   27     -1.17      0.00
  -15    5   27     -0.59      0.00
  -13    5   27     -4.44      0.00
  -11    5   27     -0.80      0.00
   -9    5   27      3.16      0.00
   -7    5   27      2.53      0.00
   -5    5   27     -2.47      0.00
   -3    5   27     -1.71      0.00
   -1    5   27      1.09      0.00
    1    5   27      0.65      0.00
  -34    6   27      2.23      0.00
  -32    6   27      3.21      0.00
  -30    6   27      1.95      0.00
  -28    6   27     -2.73      0.00
  -26    6   27      0.19      0.00
  -24    6   27     -1.53      0.00
  -22    6   27      1.03      0.00
  -20    6   27     -0.40      0.00
  -18    6   27      1.30      0.00
  -16    6   27     -0.94      0.00
  -14    6   27      2.52      0.00
  -12    6   27      2.49      0.00
  -10    6   27     -0.47      0.00
   -8    6   27     -2.75      0.00
   -6    6   27      1.82      0.00
   -4    6   27      2.63      0.00
   -2    6   27      2.19      0.00
    0    6   27      0.85      0.00
    2    6   27      0.23      0.00
  -35    7   27      1.13      0.00
  -33    7   27     -1.68      0.00
  -31    7   27     -2.81      0.00
  -29    7   27     -0.56      0.00
  -27    7   27     -1.16      0.00
  -25    7   27      1.24      0.00
  -23    7   27     -1.00      0.00
  -21    7   27     -0.48      0.00
  -19    7   27      0.45      0.00
  -17    7   27      1.03      0.00
  -15    7   27      1.74      0.00
  -13    7   27     -3.06      0.00
  -11    7   27     -0.88      0.00
   -9    7   27      0.45      0.00
   -7    7   27      0.19      0.00
   -5    7   27     -2.66      0.00
   -3    7   27     -2.40      0.00
   -1    7   27     -3.78      0.00
    1    7   27     -0.72      0.00
  -34    8   27      0.43      0.00
  -32    8   27     -0.21      0.00
  -30    8   27      2.57      0.00
  -28    8   27     -0.45      0.00
  -26    8   27      0.16      0.00
  -24    8   27     -1.37      0.00
  -22    8   27      3.07      0.00
  -20    8   27     -0.89      0.00
  -18    8   27     -0.45      0.00
  -16    8   27     -4.28      0.00
  -14    8   27      0.73      0.00
  -12    8   27      1.55      0.00
  -10    8   27      0.84      0.00
   -8    8   27     -0.26      0.00
   -6    8   27      0.80      0.00
   -4    8   27      1.45      0.00
   -2    8   27      3.67      0.00
  -33    9   27      0.86      0.00
  -31    9   27      0.18      0.00
  -29    9   27      0.13      0.00
  -27    9   27      2.18      0.00
  -25    9   27      2.75      0.00
  -23    9   27     -1.67      0.00
  -21    9   27     -1.01      0.00
  -19    9   27     -0.49      0.00
  -17    9   27      3.56      0.00
  -15    9   27      1.73      0.00
  -13    9   27     -1.26      0.00
  -11    9   27     -0.46      0.00
   -9    9   27     -0.68      0.00
   -7    9   27      0.83      0.00
   -5    9   27     -0.22      0.00
   -3    9   27     -1.32      0.00
  -30   10   27      0.02      0.00
  -28   10   27     -3.60      0.00
  -26   10   27     -3.83      0.00
  -24   10   27     -2.34      0.00
  -22   10   27      1.84      0.00
  -20   10   27      0.80      0.00
  -18   10   27     -0.54      0.00
  -16   10   27     -2.42      0.00
  -14   10   27      0.81      0.00
  -12   10   27      0.36      0.00
  -10   10   27     -0.34      0.00
   -8   10   27      0.63      0.00
   -6   10   27     -2.35      0.00
   -4   10   27      1.05      0.00
  -29   11   27      0.78      0.00
  -27   11   27      4.51      0.00
  -25   11   27      3.92      0.00
  -23   11   27      0.33      0.00
  -21   11   27     -0.53      0.00
  -19   11   27     -1.56      0.00
  -17   11   27      1.87      0.00
  -15   11   27     -1.23      0.00
  -13   11   27      0.06      0.00
  -11   11   27      0.15      0.00
   -9   11   27     -0.29      0.00
   -7   11   27      1.40      0.00
  -26   12   27     -2.86      0.00
  -24   12   27     -2.53      0.00
  -22   12   27      0.97      0.00
  -20   12   27      0.03      0.00
  -18   12   27      0.42      0.00
  -16   12   27     -0.47      0.00
  -14   12   27      0.31      0.00
  -12   12   27      0.45      0.00
  -10   12   27     -0.60      0.00
   -8   12   27      0.15      0.00
  -23   13   27     -0.10      0.00
  -21   13   27     -0.18      0.00
  -19   13   27      0.54      0.00
  -17   13   27      0.70      0.00
  -15   13   27      1.60      0.00
  -13   13   27     -0.39      0.00
  -11   13   27     -0.44      0.00
   -9   13   27      0.86      0.00
  -22   14   27      1.56      0.00
  -20   14   27     -2.12      0.00
  -18   14   27     -0.62      0.00
  -16   14   27     -3.62      0.00
  -14   14   27     -1.29      0.00
  -10   14   27     -0.51      0.00
  -36    0   28     -2.47      0.00
  -34    0   28     -6.15      0.00
  -32    0   28      1.59      0.00
  -30    0   28      0.22      0.00
  -28    0   28      1.34      0.00
  -26    0   28     -3.90      0.00
  -24    0   28      0.49      0.00
  -22    0   28     -4.54      0.00
  -20    0   28     -3.81      0.00
  -18    0   28      2.88      0.00
  -16    0   28      1.25      0.00
  -14    0   28     -1.40      0.00
  -12    0   28     -1.20      0.00
  -10    0   28      2.51      0.00
   -8    0   28      1.59      0.00
   -6    0   28      0.66      0.00
   -4    0   28      1.08      0.00
   -2    0   28      0.83      0.00
    0    0   28      1.60      0.00
  -37    1   28      2.45      0.00
  -35    1   28      3.14      0.00
  -33    1   28      3.26      0.00
  -31    1   28     -3.41      0.00
  -29    1   28     -0.44      0.00
  -27    1   28      0.26      0.00
  -25    1   28      3.71      0.00
  -23    1   28     -0.22      0.00
  -21    1   28      6.82      0.00
  -19    1   28     -1.48      0.00
  -17    1   28     -1.80      0.00
  -15    1   28     -0.80      0.00
  -13    1   28      2.19      0.00
  -11    1   28     -2.42      0.00
   -9    1   28     -0.97      0.00
   -7    1   28     -1.52      0.00
   -5    1   28      0.22      0.00
   -3    1   28     -1.20      0.00
   -1    1   28     -0.40      0.00
    1    1   28     -2.01      0.00
  -36    2   28     -0.38      0.00
  -34    2   28     -3.20      0.00
  -32    2   28      2.86      0.00
  -30    2   28      2.17      0.00
  -28    2   28      2.28      0.00
  -26    2   28     -3.80      0.00
  -24    2   28     -1.26      0.00
  -22    2   28     -2.96      0.00
  -20    2   28     -3.20      0.00
  -18    2   28      3.72      0.00
  -16    2   28      0.75      0.00
  -14    2   28     -0.22      0.00
  -12    2   28      2.04      0.00
  -10    2   28      1.24      0.00
   -8    2   28      0.19      0.00
   -6    2   28     -0.27      0.00
   -4    2   28     -0.76      0.00
   -2    2   28      0.01      0.00
    0    2   28     -0.48      0.00
  -35    3   28      0.21      0.00
  -33    3   28     -2.38      0.00
  -31    3   28     -2.58      0.00
  -29    3   28     -2.81      0.00
  -27    3   28      0.20      0.00
  -25    3   28      2.92      0.00
  -23    3   28      0.71      0.00
  -21    3   28      2.92      0.00
  -19    3   28     -1.23      0.00
  -17    3   28     -3.78      0.00
  -15    3   28      1.60      0.00
  -13    3   28     -3.36      0.00
  -11    3   28     -1.10      0.00
   -9    3   28      0.51      0.00
   -7    3   28      1.68      0.00
   -5    3   28      1.53      0.00
   -3    3   28      3.02      0.00
   -1    3   28      1.31      0.00
    1    3   28      2.41      0.00
  -36    4   28      3.80      0.00
  -34    4   28      3.00      0.00
  -32    4   28      3.50      0.00
  -30    4   28      0.50      0.00
  -28    4   28      1.47      0.00
  -26    4   28     -0.17      0.00
  -24    4   28     -1.22      0.00
  -22    4   28     -0.03      0.00
  -20    4   28     -0.99      0.00
  -18    4   28      5.01      0.00
  -16    4   28      0.12      0.00
  -14    4   28      0.30      0.00
  -12    4   28      2.79      0.00
  -10    4   28     -1.96      0.00
   -8    4   28     -2.13      0.00
   -6    4   28     -2.38      0.00
   -4    4   28     -4.53      0.00
   -2    4   28     -4.16      0.00
    0    4   28     -3.22      0.00
  -35    5   28     -3.61      0.00
  -33    5   28     -5.69      0.00
  -31    5   28      1.15      0.00
  -29    5   28     -0.08      0.00
  -27    5   28     -1.51      0.00
  -25    5   28     -0.88      0.00
  -23    5   28      0.41      0.00
  -21    5   28     -0.70      0.00
  -19    5   28     -2.16      0.00
  -17    5   28     -5.34      0.00
  -15    5   28      3.06      0.00
  -13    5   28     -2.70      0.00
  -11    5   28      2.82      0.00
   -9    5   28      1.81      0.00
   -7    5   28      3.43      0.00
   -5    5   28      2.67      0.00
   -3    5   28      7.13      0.00
   -1    5   28      3.23      0.00
  -34    6   28      4.48      0.00
  -32    6   28      1.94      0.00
  -30    6   28     -2.71      0.00
  -28    6   28      1.92      0.00
  -26    6   28      2.10      0.00
  -24    6   28     -0.62      0.00
  -22    6   28      0.79      0.00
  -20    6   28      0.31      0.00
  -18    6   28      6.02      0.00
  -16    6   28      0.22      0.00
  -14    6   28     -1.33      0.00
  -12    6   28     -0.93      0.00
  -10    6   28     -3.38      0.00
   -8    6   28     -2.29      0.00
   -6    6   28     -1.91      0.00
   -4    6   28     -4.94      0.00
   -2    6   28     -5.08      0.00
  -33    7   28     -2.79      0.00
  -31    7   28      1.47      0.00
  -29    7   28     -0.85      0.00
  -27    7   28     -3.01      0.00
  -25    7   28      0.95      0.00
  -23    7   28      0.44      0.00
  -21    7   28      0.65      0.00
  -19    7   28     -1.91      0.00
  -17    7   28     -4.03      0.00
  -15    7   28      3.02      0.00
  -13    7   28      0.32      0.00
  -11    7   28      3.15      0.00
   -9    7   28      2.51      0.00
   -7    7   28      1.27      0.00
   -5    7   28      2.35      0.00
   -3    7   28      4.13      0.00
  -32    8   28      0.57      0.00
  -30    8   28     -0.32      0.00
  -28    8   28      4.62      0.00
  -26    8   28     -1.38      0.00
  -24    8   28     -1.33      0.00
  -22    8   28     -1.10      0.00
  -20    8   28     -2.51      0.00
  -18    8   28      2.27      0.00
  -16    8   28     -2.19      0.00
  -14    8   28     -1.10      0.00
  -12    8   28     -1.43      0.00
  -10    8   28     -3.14      0.00
   -8    8   28     -2.10      0.00
   -6    8   28     -1.28      0.00
   -4    8   28     -2.39      0.00
  -31    9   28     -0.49      0.00
  -29    9   28     -2.92      0.00
  -27    9   28     -1.77      0.00
  -25    9   28      3.41      0.00
  -23    9   28     -0.15      0.00
  -21    9   28      3.72      0.00
  -19    9   28      2.65      0.00
  -17    9   28      2.62      0.00
  -15    9   28      2.59      0.00
  -13    9   28     -0.02      0.00
  -11    9   28      2.36      0.00
   -9    9   28      4.00      0.00
   -7    9   28      1.96      0.00
   -5    9   28      2.19      0.00
  -30   10   28      0.86      0.00
  -28   10   28      3.39      0.00
  -26   10   28     -2.95      0.00
  -24   10   28      0.13      0.00
  -22   10   28     -1.26      0.00
  -20   10   28     -4.22      0.00
  -18   10   28     -5.19      0.00
  -16   10   28     -3.77      0.00
  -14   10   28     -0.32      0.00
  -12   10   28     -0.99      0.00
  -10   10   28     -3.55      0.00
   -8   10   28     -4.51      0.00
  -25   11   28      1.94      0.00
  -23   11   28     -1.92      0.00
  -21   11   28      1.68      0.00
  -19   11   28      5.65      0.00
  -17   11   28      4.58      0.00
  -15   11   28      1.16      0.00
  -13   11   28      0.45      0.00
  -11   11   28      1.86      0.00
   -9   11   28      3.87      0.00
  -24   12   28      1.91      0.00
  -22   12   28      1.21      0.00
  -20   12   28     -1.60      0.00
  -18   12   28     -6.03      0.00
  -16   12   28      0.40      0.00
  -14   12   28     -1.59      0.00
  -12   12   28     -0.42      0.00
  -10   12   28     -1.23      0.00
  -21   13   28     -0.88      0.00
  -19   13   28      3.40      0.00
  -17   13   28      0.91      0.00
  -15   13   28     -0.11      0.00
  -13   13   28      0.96      0.00
  -18   14   28     -3.04      0.00
  -35    1   29      1.43      0.00
  -33    1   29     -0.24      0.00
  -31    1   29     -0.42      0.00
  -29    1   29     -1.39      0.00
  -27    1   29     -0.45      0.00
  -25    1   29     -1.00      0.00
  -23    1   29      1.31      0.00
  -21    1   29     -2.02      0.00
  -19    1   29     -1.71      0.00
  -17    1   29     -0.63      0.00
  -15    1   29      1.59      0.00
  -13    1   29      1.14      0.00
  -11    1   29     -0.98      0.00
   -9    1   29      1.84      0.00
   -7    1   29      1.99      0.00
   -5    1   29     -0.31      0.00
   -3    1   29     -1.26      0.00
   -1    1   29     -1.97      0.00
  -36    2   29     -0.89      0.00
  -34    2   29     -2.95      0.00
  -32    2   29      2.63      0.00
  -30    2   29      0.42      0.00
  -28    2   29      1.25      0.00
  -26    2   29     -0.89      0.00
  -24    2   29      0.34      0.00
  -22    2   29     -1.11      0.00
  -20    2   29      5.30      0.00
  -18    2   29      0.24      0.00
  -16    2   29      1.18      0.00
  -14    2   29     -3.73      0.00
  -12    2   29      3.33      0.00
  -10    2   29     -1.76      0.00
   -8    2   29     -2.82      0.00
   -6    2   29     -2.91      0.00
   -4    2   29      3.15      0.00
   -2    2   29      2.33      0.00
  -35    3   29      3.93      0.00
  -33    3   29     -0.34      0.00
  -31    3   29     -1.86      0.00
  -29    3   29     -0.43      0.00
  -27    3   29      3.91      0.00
  -25    3   29      0.23      0.00
  -23    3   29      2.22      0.00
  -21    3   29     -3.25      0.00
  -19    3   29     -2.61      0.00
  -17    3   29     -0.54      0.00
  -15    3   29      0.56      0.00
  -13    3   29     -2.03      0.00
  -11    3   29     -3.10      0.00
   -9    3   29      2.99      0.00
   -7    3   29      4.71      0.00
   -5    3   29     -0.69      0.00
   -3    3   29     -3.96      0.00
   -1    3   29     -3.41      0.00
  -34    4   29     -3.25      0.00
  -32    4   29      1.33      0.00
  -30    4   29      0.31      0.00
  -28    4   29     -4.75      0.00
  -26    4   29     -4.69      0.00
  -24    4   29     -1.17      0.00
  -22    4   29     -1.09      0.00
  -20    4   29      3.48      0.00
  -18    4   29     -1.17      0.00
  -16    4   29      1.22      0.00
  -14    4   29      1.89      0.00
  -12    4   29      6.37      0.00
  -10    4   29      0.43      0.00
   -8    4   29     -3.70      0.00
   -6    4   29     -3.58      0.00
   -4    4   29      3.56      0.00
   -2    4   29      3.03      0.00
  -33    5   29      2.06      0.00
  -31    5   29      0.47      0.00
  -29    5   29      3.74      0.00
  -27    5   29      6.42      0.00
  -25    5   29      3.11      0.00
  -23    5   29      1.74      0.00
  -21    5   29     -0.57      0.00
  -19    5   29      0.65      0.00
  -17    5   29      1.25      0.00
  -15    5   29     -2.22      0.00
  -13    5   29     -5.98      0.00
  -11    5   29     -4.87      0.00
   -9    5   29      0.09      0.00
   -7    5   29      4.29      0.00
   -5    5   29     -0.09      0.00
   -3    5   29     -2.23      0.00
  -34    6   29     -2.09      0.00
  -32    6   29     -4.40      0.00
  -30    6   29     -1.81      0.00
  -28    6   29     -5.99      0.00
  -26    6   29     -3.11      0.00
  -24    6   29     -3.27      0.00
  -22    6   29      0.00      0.00
  -20    6   29     -1.06      0.00
  -18    6   29     -1.38      0.00
  -16    6   29     -0.35      0.00
  -14    6   29      4.25      0.00
  -12    6   29      5.49      0.00
  -10    6   29      4.73      0.00
   -8    6   29     -1.62      0.00
   -6    6   29     -1.09      0.00
   -4    6   29     -0.34      0.00
  -31    7   29      3.75      0.00
  -29    7   29      3.41      0.00
  -27    7   29      2.07      0.00
  -25    7   29      3.70      0.00
  -23    7   29      0.65      0.00
  -21    7   29      0.72      0.00
  -19    7   29     -0.10      0.00
  -17    7   29      0.49      0.00
  -15    7   29     -0.67      0.00
  -13    7   29     -4.01      0.00
  -11    7   29     -5.74      0.00
   -9    7   29     -3.29      0.00
   -7    7   29      0.23      0.00
   -5    7   29      0.34      0.00
  -32    8   29     -5.09      0.00
  -30    8   29     -1.01      0.00
  -28    8   29     -2.60      0.00
  -26    8   29     -0.81      0.00
  -24    8   29     -3.66      0.00
  -22    8   29      0.47      0.00
  -20    8   29     -0.23      0.00
  -18    8   29      2.64      0.00
  -16    8   29     -0.98      0.00
  -14    8   29      1.39      0.00
  -12    8   29      3.71      0.00
  -10    8   29      5.47      0.00
   -8    8   29      2.08      0.00
   -6    8   29      1.04      0.00
  -31    9   29      2.00      0.00
  -29    9   29      0.89      0.00
  -27    9   29      0.96      0.00
  -25    9   29      3.04      0.00
  -23    9   29      1.81      0.00
  -21    9   29      1.36      0.00
  -19    9   29     -3.07      0.00
  -17    9   29     -0.40      0.00
  -15    9   29     -0.11      0.00
  -13    9   29     -0.91      0.00
  -11    9   29     -3.49      0.00
   -9    9   29     -3.43      0.00
   -7    9   29     -1.90      0.00
  -28   10   29     -2.30      0.00
  -26   10   29     -0.78      0.00
  -24   10   29     -4.27      0.00
  -22   10   29     -2.69      0.00
  -20   10   29     -0.81      0.00
  -18   10   29      0.98      0.00
  -16   10   29     -0.24      0.00
  -14   10   29      0.28      0.00
  -12   10   29      0.14      0.00
  -10   10   29      1.05      0.00
  -23   11   29      4.59      0.00
  -21   11   29      3.83      0.00
  -19   11   29      1.61      0.00
  -17   11   29      1.89      0.00
  -15   11   29     -1.29      0.00
  -13   11   29      1.35      0.00
  -11   11   29      1.76      0.00
  -22   12   29     -3.80      0.00
  -20   12   29     -4.70      0.00
  -18   12   29     -3.19      0.00
  -16   12   29     -0.29      0.00
  -14   12   29      0.05      0.00
  -19   13   29      4.67      0.00
  -34    0   30      0.62      0.00
  -32    0   30      5.72      0.00
  -30    0   30     -2.96      0.00
  -28    0   30     -2.35      0.00
  -26    0   30     -1.56      0.00
  -24    0   30      2.77      0.00
  -22    0   30     -4.33      0.00
  -20    0   30     -6.43      0.00
  -18    0   30     -0.15      0.00
  -16    0   30      3.18      0.00
  -14    0   30      1.63      0.00
  -12    0   30     -1.50      0.00
  -10    0   30      2.44      0.00
   -8    0   30      3.49      0.00
   -6    0   30      0.58      0.00
   -4    0   30     -1.07      0.00
  -33    1   30     -1.93      0.00
  -31    1   30     -3.70      0.00
  -29    1   30      4.39      0.00
  -27    1   30      0.00      0.00
  -25    1   30      0.66      0.00
  -23    1   30     -2.19      0.00
  -21    1   30      7.27      0.00
  -19    1   30      1.23      0.00
  -17    1   30     -0.87      0.00
  -15    1   30     -3.65      0.00
  -13    1   30      1.92      0.00
  -11    1   30     -1.16      0.00
   -9    1   30     -2.37      0.00
   -7    1   30     -3.53      0.00
   -5    1   30      2.32      0.00
   -3    1   30     -0.87      0.00
  -34    2   30     -0.33      0.00
  -32    2   30      4.55      0.00
  -30    2   30     -0.40      0.00
  -28    2   30      0.05      0.00
  -26    2   30     -0.57      0.00
  -24    2   30      2.09      0.00
  -22    2   30     -0.39      0.00
  -20    2   30     -2.99      0.00
  -18    2   30      2.07      0.00
  -16    2   30      1.57      0.00
  -14    2   30      0.11      0.00
  -12    2   30     -1.15      0.00
  -10    2   30      1.00      0.00
   -8    2   30      3.84      0.00
   -6    2   30     -0.07      0.00
   -4    2   30     -2.61      0.00
  -33    3   30     -3.28      0.00
  -31    3   30     -2.55      0.00
  -29    3   30     -0.98      0.00
  -27    3   30     -0.76      0.00
  -25    3   30     -1.12      0.00
  -23    3   30     -3.07      0.00
  -21    3   30     -0.67      0.00
  -19    3   30     -1.17      0.00
  -17    3   30     -3.49      0.00
  -15    3   30      0.75      0.00
  -13    3   30      0.02      0.00
  -11    3   30      2.27      0.00
   -9    3   30     -2.35      0.00
   -7    3   30     -1.86      0.00
   -5    3   30      2.55      0.00
   -3    3   30      1.91      0.00
  -34    4   30      0.88      0.00
  -32    4   30      4.94      0.00
  -30    4   30      1.39      0.00
  -28    4   30      0.66      0.00
  -26    4   30      2.47      0.00
  -24    4   30      2.03      0.00
  -22    4   30      4.53      0.00
  -20    4   30      0.21      0.00
  -18    4   30      3.98      0.00
  -16    4   30      1.54      0.00
  -14    4   30     -0.07      0.00
  -12    4   30     -1.51      0.00
  -10    4   30     -2.03      0.00
   -8    4   30      2.13      0.00
   -6    4   30     -0.64      0.00
   -4    4   30     -3.19      0.00
  -33    5   30     -6.22      0.00
  -31    5   30     -2.21      0.00
  -29    5   30     -0.43      0.00
  -27    5   30     -1.32      0.00
  -25    5   30     -3.70      0.00
  -23    5   30     -2.21      0.00
  -21    5   30     -2.10      0.00
  -19    5   30      1.71      0.00
  -17    5   30     -5.16      0.00
  -15    5   30      0.06      0.00
  -13    5   30     -1.37      0.00
  -11    5   30      3.87      0.00
   -9    5   30     -0.70      0.00
   -7    5   30      0.30      0.00
   -5    5   30      0.63      0.00
  -32    6   30      5.45      0.00
  -30    6   30     -0.25      0.00
  -28    6   30      0.30      0.00
  -26    6   30      4.14      0.00
  -24    6   30      1.17      0.00
  -22    6   30      1.19      0.00
  -20    6   30     -5.54      0.00
  -18    6   30      0.45      0.00
  -16    6   30      3.05      0.00
  -14    6   30      1.25      0.00
  -12    6   30     -0.42      0.00
  -10    6   30     -0.70      0.00
   -8    6   30      0.38      0.00
   -6    6   30      0.61      0.00
  -31    7   30     -1.75      0.00
  -29    7   30      0.27      0.00
  -27    7   30     -3.20      0.00
  -25    7   30     -2.68      0.00
  -23    7   30      0.53      0.00
  -21    7   30      4.87      0.00
  -19    7   30      7.25      0.00
  -17    7   30     -2.23      0.00
  -15    7   30     -0.89      0.00
  -13    7   30     -1.70      0.00
  -11    7   30     -1.12      0.00
   -9    7   30     -1.52      0.00
   -7    7   30     -1.41      0.00
  -28    8   30      3.24      0.00
  -26    8   30      3.13      0.00
  -24    8   30      1.16      0.00
  -22    8   30     -2.93      0.00
  -20    8   30     -7.67      0.00
  -18    8   30     -2.87      0.00
  -16    8   30     -0.06      0.00
  -14    8   30      0.94      0.00
  -12    8   30      2.89      0.00
  -10    8   30      3.27      0.00
   -8    8   30      2.30      0.00
  -29    9   30     -1.49      0.00
  -25    9   30     -2.28      0.00
  -23    9   30     -0.51      0.00
  -21    9   30      3.26      0.00
  -19    9   30      3.25      0.00
  -17    9   30      2.03      0.00
  -15    9   30      1.18      0.00
  -13    9   30     -2.32      0.00
  -11    9   30     -4.31      0.00
  -24   10   30      2.97      0.00
  -22   10   30      0.22      0.00
  -20   10   30      1.68      0.00
  -18   10   30     -1.51      0.00
  -16   10   30     -2.29      0.00
  -14   10   30     -0.23      0.00
  -12   10   30      3.49      0.00
  -21   11   30     -3.83      0.00
  -19   11   30     -2.47      0.00
  -17   11   30      1.39      0.00
  -15   11   30      1.61      0.00
  -31    1   31      0.32      0.00
  -29    1   31     -0.39      0.00
  -27    1   31      0.18      0.00
  -25    1   31      0.30      0.00
  -23    1   31      4.15      0.00
  -21    1   31      1.21      0.00
  -19    1   31     -1.47      0.00
  -17    1   31     -2.55      0.00
  -15    1   31     -1.66      0.00
  -13    1   31     -2.30      0.00
  -11    1   31     -3.97      0.00
   -9    1   31     -1.16      0.00
   -7    1   31      0.08      0.00
  -32    2   31      2.98      0.00
  -30    2   31     -0.71      0.00
  -28    2   31      1.52      0.00
  -26    2   31     -1.97      0.00
  -24    2   31     -2.60      0.00
  -22    2   31     -6.36      0.00
  -20    2   31      3.26      0.00
  -18    2   31      2.25      0.00
  -16    2   31      4.89      0.00
  -14    2   31      1.62      0.00
  -12    2   31      8.24      0.00
  -10    2   31      4.40      0.00
   -8    2   31      1.82      0.00
   -6    2   31     -2.20      0.00
  -33    3   31     -2.39      0.00
  -31    3   31     -2.27      0.00
  -29    3   31     -2.33      0.00
  -27    3   31      2.26      0.00
  -25    3   31      1.66      0.00
  -23    3   31      6.25      0.00
  -21    3   31     -0.94      0.00
  -19    3   31     -4.66      0.00
  -17    3   31     -3.39      0.00
  -15    3   31     -3.20      0.00
  -13    3   31     -6.01      0.00
  -11    3   31     -9.61      0.00
   -9    3   31     -4.91      0.00
   -7    3   31      1.74      0.00
  -32    4   31      3.69      0.00
  -30    4   31      4.18      0.00
  -28    4   31      0.28      0.00
  -26    4   31     -3.38      0.00
  -24    4   31     -2.47      0.00
  -22    4   31     -1.91      0.00
  -20    4   31      7.42      0.00
  -18    4   31      2.15      0.00
  -16    4   31      2.63      0.00
  -14    4   31      2.61      0.00
  -12    4   31      8.18      0.00
  -10    4   31      8.27      0.00
   -8    4   31      2.04      0.00
   -6    4   31     -4.53      0.00
  -31    5   31     -5.04      0.00
  -29    5   31     -3.47      0.00
  -27    5   31      2.20      0.00
  -25    5   31      2.27      0.00
  -23    5   31      1.02      0.00
  -21    5   31     -5.61      0.00
  -19    5   31     -5.30      0.00
  -17    5   31      0.27      0.00
  -15    5   31     -0.91      0.00
  -13    5   31     -2.08      0.00
  -11    5   31     -6.14      0.00
   -9    5   31     -5.65      0.00
   -7    5   31      2.93      0.00
  -30    6   31      6.19      0.00
  -28    6   31      0.00      0.00
  -26    6   31     -1.30      0.00
  -24    6   31     -1.94      0.00
  -22    6   31      2.99      0.00
  -20    6   31      5.45      0.00
  -18    6   31      0.90      0.00
  -16    6   31     -1.39      0.00
  -14    6   31     -0.85      0.00
  -12    6   31     -0.66      0.00
  -10    6   31      4.87      0.00
   -8    6   31     -0.18      0.00
  -27    7   31     -0.25      0.00
  -25    7   31      2.81      0.00
  -23    7   31      0.09      0.00
  -21    7   31     -1.15      0.00
  -19    7   31     -2.14      0.00
  -17    7   31      1.31      0.00
  -15    7   31      1.60      0.00
  -13    7   31      3.50      0.00
  -11    7   31      0.05      0.00
   -9    7   31     -1.16      0.00
  -26    8   31     -0.42      0.00
  -24    8   31     -3.59      0.00
  -22    8   31     -2.18      0.00
  -20    8   31     -2.02      0.00
  -18    8   31      0.37      0.00
  -16    8   31     -1.49      0.00
  -14    8   31     -2.10      0.00
  -12    8   31     -2.63      0.00
  -23    9   31      3.97      0.00
  -21    9   31      5.65      0.00
  -19    9   31      1.22      0.00
  -17    9   31      1.32      0.00
  -15    9   31     -0.06      0.00
  -13    9   31      1.66      0.00
  -22   10   31     -4.65      0.00
  -20   10   31     -3.42      0.00
  -18   10   31     -2.08      0.00
  -30    0   32     -0.55      0.00
  -28    0   32     -3.65      0.00
  -26    0   32     -1.89      0.00
  -24    0   32      5.61      0.00
  -22    0   32      2.84      0.00
  -20    0   32     -0.98      0.00
  -18    0   32     -2.25      0.00
  -16    0   32      1.23      0.00
  -14    0   32      4.67      0.00
  -12    0   32     -0.47      0.00
  -10    0   32     -5.17      0.00
  -31    1   32     -3.93      0.00
  -29    1   32      3.51      0.00
  -27    1   32      1.70      0.00
  -25    1   32     -0.30      0.00
  -23    1   32     -5.72      0.00
  -21    1   32      1.00      0.00
  -19    1   32      0.93      0.00
  -17    1   32      2.72      0.00
  -15    1   32     -3.81      0.00
  -13    1   32     -1.34      0.00
  -11    1   32      3.10      0.00
   -9    1   32      5.57      0.00
  -30    2   32      1.17      0.00
  -28    2   32     -1.31      0.00
  -26    2   32     -1.47      0.00
  -24    2   32      1.86      0.00
  -22    2   32      1.05      0.00
  -20    2   32     -1.42      0.00
  -18    2   32     -2.83      0.00
  -16    2   32     -1.46      0.00
  -14    2   32      2.24      0.00
  -12    2   32     -1.89      0.00
  -10    2   32     -5.92      0.00
   -8    2   32     -0.57      0.00
  -31    3   32     -2.29      0.00
  -29    3   32     -1.49      0.00
  -27    3   32      1.45      0.00
  -25    3   32      1.09      0.00
  -23    3   32      0.43      0.00
  -21    3   32      0.21      0.00
  -19    3   32      2.61      0.00
  -17    3   32      3.66      0.00
  -15    3   32      0.75      0.00
  -13    3   32     -1.37      0.00
  -11    3   32      5.83      0.00
   -9    3   32      2.56      0.00
  -30    4   32      2.71      0.00
  -28    4   32     -0.74      0.00
  -26    4   32     -1.27      0.00
  -24    4   32     -2.90      0.00
  -22    4   32      0.57      0.00
  -20    4   32     -1.32      0.00
  -18    4   32     -4.06      0.00
  -16    4   32     -3.05      0.00
  -14    4   32      2.03      0.00
  -12    4   32     -1.05      0.00
  -10    4   32     -4.95      0.00
  -29    5   32     -0.93      0.00
  -27    5   32      2.89      0.00
  -25    5   32      1.43      0.00
  -23    5   32      1.67      0.00
  -21    5   32     -2.43      0.00
  -19    5   32      4.79      0.00
  -17    5   32      3.37      0.00
  -15    5   32      0.35      0.00
  -13    5   32     -3.40      0.00
  -28    6   32     -2.88      0.00
  -26    6   32     -1.52      0.00
  -24    6   32     -1.50      0.00
  -22    6   32      3.44      0.00
  -20    6   32     -1.68      0.00
  -18    6   32     -5.24      0.00
  -16    6   32     -1.42      0.00
  -14    6   32      2.00      0.00
  -27    7   32      2.92      0.00
  -25    7   32      0.23      0.00
  -23    7   32     -2.16      0.00
  -21    7   32     -2.81      0.00
  -19    7   32      4.99      0.00
  -24    8   32      2.26      0.00
  -22    8   32      2.84      0.00
  -20    8   32     -0.36      0.00
  -29    1   33      2.70      0.00
  -27    1   33      3.39      0.00
  -25    1   33      1.56      0.00
  -23    1   33      3.05      0.00
  -21    1   33      1.31      0.00
  -19    1   33     -2.02      0.00
  -17    1   33     -3.14      0.00
  -15    1   33     -2.39      0.00
  -13    1   33     -1.95      0.00
  -11    1   33     -1.34      0.00
  -30    2   33     -4.75      0.00
  -28    2   33     -3.89      0.00
  -26    2   33     -5.47      0.00
  -24    2   33     -2.90      0.00
  -22    2   33     -6.22      0.00
  -20    2   33      1.87      0.00
  -18    2   33      3.43      0.00
  -16    2   33      4.48      0.00
  -14    2   33      1.96      0.00
  -12    2   33      3.63      0.00
  -27    3   33      6.21      0.00
  -25    3   33      3.88      0.00
  -23    3   33      7.39      0.00
  -21    3   33      2.52      0.00
  -19    3   33     -3.49      0.00
  -17    3   33     -2.99      0.00
  -15    3   33     -2.04      0.00
  -13    3   33     -1.87      0.00
  -28    4   33     -3.11      0.00
  -26    4   33     -5.06      0.00
  -24    4   33     -4.96      0.00
  -22    4   33     -6.57      0.00
  -20    4   33      2.90      0.00
  -18    4   33      1.43      0.00
  -16    4   33      0.96      0.00
  -23    5   33      5.52      0.00
  -21    5   33     -0.04      0.00
  -19    5   33     -2.96      0.00
  -17    5   33      0.82      0.00
  -15    5   33     -0.31      0.00
  -22    6   33     -1.41      0.00
  -20    6   33      3.25      0.00
  -21    7   33     -0.87      0.00
  -24    0   34      4.42      0.00
  -22    0   34      1.25      0.00
  -20    0   34     -0.53      0.00
  -18    0   34     -3.47      0.00
  -16    0   34     -4.43      0.00
  -25    1   34     -1.67      0.00
  -23    1   34     -4.04      0.00
  -21    1   34      0.02      0.00
  -19    1   34     -0.03      0.00
  -17    1   34      3.90      0.00
  -24    2   34      3.23      0.00
  -22    2   34      1.61      0.00
  -20    2   34      3.03      0.00
  -18    2   34      0.70      0.00
  -25    3   34     -1.53      0.00
  -23    3   34     -1.13      0.00
  -21    3   34     -3.63      0.00
  -19    3   34     -5.50      0.00
  -17    3   34     -1.05      0.00
  -20    4   34      6.72      0.00
    0    0    0      0.00      0.00
loop_
  _platon_squeeze_void_nr
  _platon_squeeze_void_average_x
  _platon_squeeze_void_average_y
  _platon_squeeze_void_average_z
  _platon_squeeze_void_volume
  _platon_squeeze_void_count_electrons
  _platon_squeeze_void_content
   1  0.500  0.000  0.171       712       215 ' '
   2  0.000  0.500  0.447       712       215 ' '
_platon_squeeze_void_probe_radius                  1.20
_platon_squeeze_details
)
TITL GMF16023_0m in C2/c
CELL   26.5093   15.8108   23.0204     90.00    123.13     90.00
SPGR C2/c
C101 0.024 0.421 0.440 !      13.99 eA-3
C102 0.102 0.470 0.390 !       4.26 eA-3
C103 0.846 0.422 0.020 !       3.67 eA-3
C104 0.982 0.482 0.306 !       3.50 eA-3
C105 0.086 0.482 0.455 !       2.41 eA-3
C106 0.469 0.018 0.106 !       2.14 eA-3
Q107 0.866 0.359 0.126 !       1.99 eA-3
C108 0.124 0.451 0.444 !       1.92 eA-3
C109 0.064 0.467 0.342 !       1.83 eA-3
Q110 0.798 0.298 0.322 !       1.32 eA-3
Q111 0.742 0.295 0.306 !       1.31 eA-3
C112 0.984 0.483 0.226 !       1.28 eA-3
Q113 0.248 0.130 0.466 !       1.23 eA-3
C114 0.838 0.483 0.085 !       1.21 eA-3
Q115 0.257 0.373 0.171 !       1.18 eA-3
Q116 0.729 0.200 0.170 !       1.14 eA-3
Q117 0.369 0.154 0.151 !       1.14 eA-3
Q118 0.781 0.282 0.327 !       1.10 eA-3
Q119 0.234 0.318 0.210 !       1.09 eA-3
Q120 0.226 0.113 0.179 !       1.09 eA-3
C121 0.990 0.468 0.257 !       1.08 eA-3
Q122 0.814 0.343 0.337 !       1.06 eA-3
Q123 0.314 0.155 0.835 !       1.06 eA-3
C124 0.430 0.030 0.083 !       1.06 eA-3
Q125 0.808 0.317 0.363 !       1.05 eA-3
Q126 0.740 0.370 0.298 !       1.05 eA-3
Q127 0.790 0.361 0.373 !       1.04 eA-3
Q128 0.822 0.200 0.481 !       1.03 eA-3
Q129 0.735 0.079 0.019 !       1.02 eA-3
C130 0.004 0.481 0.350 !       1.01 eA-3
Q131 0.232 0.346 0.132 !       1.00 eA-3
C132 0.057 0.461 0.289 !       0.99 eA-3
Q133 0.129 0.034 0.348 !       0.98 eA-3
C134 0.031 0.499 0.251 !       0.96 eA-3
C135 0.476 0.017 0.047 !       0.94 eA-3
C136 0.430 0.032 0.132 !       0.93 eA-3
C137 0.023 0.387 0.141 !       0.93 eA-3
Q138 0.070 0.064 0.216 !       0.93 eA-3
Q139 0.991 0.377 0.043 !       0.93 eA-3
Q140 0.682 0.249 0.193 !       0.92 eA-3
C141 0.100 0.362 0.418 !       0.91 eA-3
Q142 0.245 0.286 0.157 !       0.91 eA-3
Q143 0.310 0.222 0.474 !       0.91 eA-3
Q144 0.138 0.223 0.012 !       0.91 eA-3
Q145 0.549 0.080 0.396 !       0.90 eA-3
Q146 0.991 0.329 0.445 !       0.89 eA-3
C147 0.079 0.405 0.370 !       0.89 eA-3
C148 0.497 0.043 0.115 !       0.89 eA-3
Q149 0.828 0.297 0.320 !       0.89 eA-3
Q150 0.719 0.437 0.165 !       0.88 eA-3
Q151 0.787 0.397 0.399 !       0.88 eA-3
C152 0.468 0.020 0.185 !       0.87 eA-3
C153 0.032 0.480 0.815 !       0.87 eA-3
Q154 0.346 0.201 0.017 !       0.87 eA-3
Q155 0.725 0.373 0.397 !       0.87 eA-3
Q156 0.789 0.389 0.359 !       0.87 eA-3
Q157 0.597 0.341 0.057 !       0.85 eA-3
C158 0.343 0.048 0.471 !       0.85 eA-3
Q159 0.172 0.264 0.151 !       0.85 eA-3
Q160 0.969 0.112 0.015 !       0.85 eA-3
Q161 0.671 0.185 0.108 !       0.85 eA-3
Q162 0.414 0.498 0.312 !       0.85 eA-3
Q163 0.694 0.332 0.039 !       0.85 eA-3
Q164 0.164 0.251 0.046 !       0.84 eA-3
Q165 0.259 0.328 0.164 !       0.84 eA-3
C166 0.835 0.406 0.061 !       0.84 eA-3
Q167 0.813 0.424 0.429 !       0.83 eA-3
Q168 0.884 0.170 0.180 !       0.83 eA-3
Q169 0.352 0.332 0.030 !       0.83 eA-3
Q170 0.288 0.313 0.178 !       0.83 eA-3
Q171 0.275 0.260 0.284 !       0.83 eA-3
Q172 0.179 0.330 0.008 !       0.82 eA-3
Q173 0.341 0.412 0.143 !       0.82 eA-3
Q174 0.312 0.328 0.131 !       0.82 eA-3
Q175 0.915 0.465 0.435 !       0.82 eA-3
Q176 0.960 0.251 0.006 !       0.82 eA-3
Q177 0.614 0.052 0.452 !       0.82 eA-3
Q178 0.362 0.480 0.237 !       0.82 eA-3
Q179 0.954 0.324 0.404 !       0.82 eA-3
Q180 0.764 0.407 0.318 !       0.81 eA-3
C181 0.900 0.453 0.010 !       0.81 eA-3
Q182 0.009 0.296 0.345 !       0.81 eA-3
Q183 0.223 0.378 0.205 !       0.81 eA-3
Q184 0.733 0.187 0.367 !       0.81 eA-3
Q185 0.968 0.394 0.288 !       0.80 eA-3
Q186 0.748 0.453 0.168 !       0.80 eA-3
Q187 0.165 0.233 0.164 !       0.80 eA-3
Q188 0.251 0.250 0.107 !       0.80 eA-3
C189 0.932 0.502 0.004 !       0.80 eA-3
Q190 0.633 0.218 0.416 !       0.80 eA-3
Q191 0.413 0.100 0.025 !       0.80 eA-3
Q192 0.631 0.031 0.042 !       0.79 eA-3
Q193 1.001 0.043 0.327 !       0.79 eA-3
C194 0.679 0.170 0.000 !       0.79 eA-3
Q195 0.155 0.110 0.144 !       0.79 eA-3
Q196 0.837 0.141 0.325 !       0.79 eA-3
Q197 0.679 0.404 0.312 !       0.79 eA-3
Q198 0.616 0.307 0.094 !       0.79 eA-3
Q199 0.991 0.065 0.276 !       0.79 eA-3
)
;
_shelx_fab_checksum              74790
loop_
_symmetry_equiv_pos_as_xyz
'x, y, z'
'-x, y, -z+1/2'
'x+1/2, y+1/2, z'
'-x+1/2, y+1/2, -z+1/2'
'-x, -y, -z'
'x, -y, z-1/2'
'-x+1/2, -y+1/2, -z'
'x+1/2, -y+1/2, z-1/2'
loop_
_atom_site_label
_atom_site_fract_x
_atom_site_fract_y
_atom_site_fract_z
_atom_site_U_iso_or_equiv
_atom_site_adp_type
_atom_site_calc_flag
_atom_site_occupancy
_atom_site_type_symbol
Ir1 0.22679(2) 0.33959(2) 0.17098(2) 0.01016(6) Uani d 1 Ir
C21 0.1572(2) 0.3141(3) 0.0749(2) 0.0115(8) Uani d 1 C
N22 0.27848(17) 0.3715(3) 0.1334(2) 0.0119(7) Uani d 1 N
N23 0.29948(17) 0.3662(2) 0.2717(2) 0.0116(7) Uani d 1 N
N24 0.17597(17) 0.3074(2) 0.2100(2) 0.0113(7) Uani d 1 N
N25 0.25593(18) 0.2162(3) 0.1816(2) 0.0130(7) Uani d 1 N
N31 0.19755(18) 0.4636(2) 0.1586(2) 0.0132(7) Uani d 1 N
C1 0.0988(2) 0.2874(3) 0.0559(2) 0.0136(8) Uani d 1 C
C2 0.0603(2) 0.2802(3) -0.0201(2) 0.0135(8) Uani d 1 C
C2A -0.0004(2) 0.2615(3) -0.0640(3) 0.0178(9) Uani d 1 C
H2A -0.0245 0.2499 -0.0459 0.021 Uiso calc 1 H
C2B -0.0253(2) 0.2600(4) -0.1350(3) 0.0219(10) Uani d 1 C
H2B -0.0667 0.2468 -0.1657 0.026 Uiso calc 1 H
C3 0.0963(2) 0.2992(3) -0.0462(2) 0.0159(9) Uani d 1 C
C3A 0.0711(2) 0.2973(4) -0.1174(3) 0.0244(11) Uani d 1 C
H3A 0.0949 0.309 -0.1356 0.029 Uiso calc 1 H
C3B 0.0095(3) 0.2776(4) -0.1617(3) 0.0298(13) Uani d 1 C
H3B -0.0084 0.2762 -0.2105 0.036 Uiso calc 1 H
C4 0.1565(2) 0.3210(3) 0.0126(3) 0.0138(8) Uani d 1 C
C5 0.2053(2) 0.3441(3) 0.0090(2) 0.0147(8) Uani d 1 C
H5 0.1995 0.3443 -0.0356 0.018 Uiso calc 1 H
C6 0.2622(2) 0.3671(3) 0.0652(2) 0.0122(8) Uani d 1 C
C7 0.3127(2) 0.3901(3) 0.0615(3) 0.0156(9) Uani d 1 C
C7A 0.3121(2) 0.3936(4) -0.0038(3) 0.0206(10) Uani d 1 C
H7A1 0.2894 0.4434 -0.0308 0.031 Uiso calc 1 H
H7A2 0.2931 0.3424 -0.0311 0.031 Uiso calc 1 H
H7A3 0.3536 0.3974 0.0079 0.031 Uiso calc 1 H
C8 0.3599(2) 0.4070(3) 0.1272(2) 0.0153(9) Uani d 1 C
C8A 0.4226(2) 0.4339(4) 0.1508(3) 0.0217(10) Uani d 1 C
H8A1 0.4323 0.411 0.118 0.026 Uiso calc 1 H
H8A2 0.4511 0.4083 0.1967 0.026 Uiso calc 1 H
C8B 0.4326(3) 0.5281(4) 0.1563(4) 0.0344(14) Uani d 1 C
H8B1 0.4745 0.54 0.172 0.052 Uiso calc 1 H
H8B2 0.4055 0.5541 0.1108 0.052 Uiso calc 1 H
H8B3 0.4243 0.5514 0.1897 0.052 Uiso calc 1 H
C9 0.3382(2) 0.3964(3) 0.1722(2) 0.0128(8) Uani d 1 C
C10 0.3725(2) 0.4101(3) 0.2442(2) 0.0146(8) Uani d 1 C
H10 0.4123 0.4305 0.2635 0.017 Uiso calc 1 H
C11 0.3547(2) 0.3970(3) 0.2903(2) 0.0134(8) Uani d 1 C
C12 0.3911(2) 0.4121(3) 0.3642(2) 0.0135(8) Uani d 1 C
C12A 0.4515(2) 0.4543(3) 0.4016(3) 0.0167(9) Uani d 1 C
H12A 0.4742 0.4361 0.3811 0.02 Uiso calc 1 H
H12B 0.4746 0.4372 0.451 0.02 Uiso calc 1 H
C12B 0.4442(2) 0.5521(3) 0.3964(3) 0.0241(11) Uani d 1 C
H12C 0.4841 0.5786 0.4211 0.036 Uiso calc 1 H
H12D 0.4218 0.569 0.3475 0.036 Uiso calc 1 H
H12E 0.4222 0.5702 0.4173 0.036 Uiso calc 1 H
C13 0.3577(2) 0.3875(3) 0.3900(2) 0.0139(8) Uani d 1 C
C13A 0.3739(2) 0.3914(3) 0.4637(3) 0.0181(9) Uani d 1 C
H13A 0.3399 0.4171 0.4637 0.022 Uiso calc 1 H
H13B 0.4091 0.4292 0.4905 0.022 Uiso calc 1 H
C13B 0.3887(3) 0.3060(4) 0.5010(3) 0.0264(12) Uani d 1 C
H13C 0.3987 0.3144 0.5483 0.04 Uiso calc 1 H
H13D 0.3538 0.2684 0.4758 0.04 Uiso calc 1 H
H13E 0.4232 0.2805 0.5026 0.04 Uiso calc 1 H
C14 0.3003(2) 0.3589(3) 0.3317(2) 0.0128(8) Uani d 1 C
C15 0.2513(2) 0.3315(3) 0.3338(3) 0.0149(9) Uani d 1 C
H15 0.2574 0.3291 0.3785 0.018 Uiso calc 1 H
C16 0.1951(2) 0.3076(3) 0.2790(2) 0.0139(8) Uani d 1 C
C17 0.1466(2) 0.2791(3) 0.2856(3) 0.0167(9) Uani d 1 C
C17A 0.1511(3) 0.2711(4) 0.3538(3) 0.0288(12) Uani d 1 C
H17A 0.1101 0.2658 0.3445 0.035 Uiso calc 1 H
H17B 0.1694 0.3232 0.3813 0.035 Uiso calc 1 H
C17B 0.1903(4) 0.1915(7) 0.3980(5) 0.059(2) Uani d 1 C
H17C 0.1919 0.189 0.4415 0.089 Uiso calc 1 H
H17D 0.1718 0.1396 0.3714 0.089 Uiso calc 1 H
H17E 0.2312 0.197 0.4082 0.089 Uiso calc 1 H
C18 0.0985(2) 0.2628(3) 0.2205(3) 0.0174(9) Uani d 1 C
C18A 0.0369(2) 0.2338(4) 0.1996(3) 0.0228(11) Uani d 1 C
H18A 0.0387 0.2098 0.2399 0.034 Uiso calc 1 H
H18B 0.0227 0.1905 0.1634 0.034 Uiso calc 1 H
H18C 0.0091 0.2819 0.1817 0.034 Uiso calc 1 H
C19 0.1167(2) 0.2808(3) 0.1730(3) 0.0144(8) Uani d 1 C
C20 0.0805(2) 0.2713(3) 0.1009(2) 0.0134(8) Uani d 1 C
H20 0.0404 0.2524 0.0812 0.016 Uiso calc 1 H
C26 0.2183(2) 0.1507(3) 0.1670(3) 0.0161(9) Uani d 1 C
H26 0.1777 0.1625 0.1515 0.019 Uiso calc 1 H
C27 0.2361(2) 0.0672(3) 0.1734(3) 0.0195(10) Uani d 1 C
H27 0.2086 0.0227 0.1644 0.023 Uiso calc 1 H
C28 0.2954(2) 0.0493(3) 0.1935(3) 0.0217(10) Uani d 1 C
H28 0.3088 -0.0073 0.1974 0.026 Uiso calc 1 H
C29 0.3336(2) 0.1165(3) 0.2076(3) 0.0211(10) Uani d 1 C
H29 0.374 0.1065 0.2214 0.025 Uiso calc 1 H
C30 0.3129(2) 0.1984(3) 0.2015(3) 0.0164(9) Uani d 1 C
H30 0.34 0.2439 0.2119 0.02 Uiso calc 1 H
C32 0.1390(2) 0.4813(3) 0.1342(3) 0.0189(9) Uani d 1 C
H32 0.1118 0.436 0.1241 0.023 Uiso calc 1 H
C33 0.1180(3) 0.5640(3) 0.1237(3) 0.0232(11) Uani d 1 C
H33 0.077 0.5751 0.1069 0.028 Uiso calc 1 H
C34 0.1576(3) 0.6301(3) 0.1381(3) 0.0241(11) Uani d 1 C
H34 0.1441 0.6871 0.1312 0.029 Uiso calc 1 H
C35 0.2165(3) 0.6115(3) 0.1626(3) 0.0226(11) Uani d 1 C
H35 0.2443 0.656 0.1728 0.027 Uiso calc 1 H
C36 0.2358(2) 0.5277(3) 0.1724(3) 0.0176(9) Uani d 1 C
H36 0.2767 0.5157 0.1892 0.021 Uiso calc 1 H
loop_
_atom_site_aniso_label
_atom_site_aniso_U_11
_atom_site_aniso_U_22
_atom_site_aniso_U_33
_atom_site_aniso_U_12
_atom_site_aniso_U_13
_atom_site_aniso_U_23
Ir1 0.01003(9) 0.00909(8) 0.01059(8) -0.00153(6) 0.00513(6) -0.00039(6)
C21 0.0110(19) 0.0097(18) 0.0115(19) -0.0020(15) 0.0045(16) -0.0012(15)
N22 0.0124(17) 0.0123(17) 0.0114(17) -0.0009(14) 0.0067(14) 0.0005(14)
N23 0.0117(17) 0.0085(15) 0.0113(17) -0.0009(13) 0.0042(14) 0.0000(13)
N24 0.0141(17) 0.0108(16) 0.0124(17) -0.0009(14) 0.0093(15) -0.0004(14)
N25 0.0140(18) 0.0128(17) 0.0131(17) -0.0009(14) 0.0080(15) 0.0001(14)
N31 0.0142(18) 0.0111(17) 0.0117(17) 0.0017(14) 0.0054(15) 0.0002(13)
C1 0.0128(19) 0.015(2) 0.0128(19) -0.0030(16) 0.0067(17) -0.0016(16)
C2 0.0115(19) 0.0122(19) 0.015(2) -0.0019(15) 0.0062(17) -0.0017(16)
C2A 0.013(2) 0.021(2) 0.018(2) -0.0019(17) 0.0078(18) -0.0002(18)
C2B 0.014(2) 0.026(3) 0.018(2) -0.0058(19) 0.0039(19) -0.002(2)
C3 0.0112(19) 0.020(2) 0.014(2) -0.0037(17) 0.0054(17) -0.0039(17)
C3A 0.021(2) 0.036(3) 0.014(2) -0.010(2) 0.008(2) -0.001(2)
C3B 0.021(3) 0.050(4) 0.010(2) -0.008(2) 0.002(2) -0.003(2)
C4 0.012(2) 0.0123(19) 0.015(2) 0.0000(15) 0.0057(17) 0.0000(16)
C5 0.016(2) 0.019(2) 0.0087(18) 0.0004(17) 0.0069(17) 0.0021(16)
C6 0.013(2) 0.0133(19) 0.0103(19) -0.0007(16) 0.0066(16) 0.0012(15)
C7 0.016(2) 0.018(2) 0.018(2) -0.0016(17) 0.0124(18) -0.0011(17)
C7A 0.022(2) 0.025(3) 0.019(2) -0.005(2) 0.014(2) -0.002(2)
C8 0.015(2) 0.017(2) 0.015(2) 0.0002(17) 0.0092(18) 0.0013(17)
C8A 0.012(2) 0.035(3) 0.019(2) -0.007(2) 0.0085(19) -0.004(2)
C8B 0.030(3) 0.032(3) 0.035(3) -0.018(3) 0.014(3) -0.002(3)
C9 0.016(2) 0.0099(19) 0.0132(19) 0.0005(15) 0.0081(17) 0.0014(15)
C10 0.0103(19) 0.015(2) 0.014(2) 0.0003(15) 0.0034(16) 0.0027(16)
C11 0.0098(19) 0.014(2) 0.0116(19) 0.0012(15) 0.0026(16) -0.0002(16)
C12 0.014(2) 0.0113(19) 0.0113(19) 0.0014(15) 0.0042(16) 0.0001(15)
C12A 0.012(2) 0.018(2) 0.016(2) 0.0005(16) 0.0050(17) -0.0006(17)
C12B 0.015(2) 0.018(2) 0.021(2) -0.0072(18) -0.0019(19) 0.0010(19)
C13 0.014(2) 0.0118(19) 0.0116(19) 0.0008(15) 0.0038(16) 0.0008(15)
C13A 0.018(2) 0.018(2) 0.014(2) 0.0025(18) 0.0054(18) -0.0010(17)
C13B 0.030(3) 0.030(3) 0.021(3) 0.012(2) 0.015(2) 0.007(2)
C14 0.015(2) 0.0097(18) 0.0119(19) 0.0003(15) 0.0065(17) -0.0009(15)
C15 0.020(2) 0.011(2) 0.016(2) 0.0025(16) 0.0112(19) 0.0013(16)
C16 0.013(2) 0.014(2) 0.015(2) -0.0020(16) 0.0076(17) -0.0004(16)
C17 0.020(2) 0.017(2) 0.019(2) -0.0024(18) 0.0141(19) -0.0011(17)
C17A 0.028(3) 0.042(3) 0.025(3) -0.004(2) 0.021(2) -0.003(2)
C17B 0.051(5) 0.080(7) 0.050(5) 0.002(5) 0.029(4) 0.016(5)
C18 0.019(2) 0.019(2) 0.021(2) -0.0035(18) 0.015(2) -0.0039(18)
C18A 0.017(2) 0.032(3) 0.023(3) -0.006(2) 0.013(2) -0.005(2)
C19 0.017(2) 0.012(2) 0.018(2) -0.0017(16) 0.0117(18) -0.0013(16)
C20 0.0083(18) 0.016(2) 0.015(2) -0.0009(15) 0.0051(16) 0.0017(16)
C26 0.019(2) 0.013(2) 0.017(2) -0.0005(16) 0.0102(19) 0.0013(16)
C27 0.025(3) 0.013(2) 0.018(2) -0.0016(18) 0.010(2) -0.0013(17)
C28 0.025(3) 0.015(2) 0.022(2) 0.0019(19) 0.010(2) 0.0001(19)
C29 0.022(2) 0.015(2) 0.025(3) 0.0071(18) 0.012(2) 0.0039(19)
C30 0.018(2) 0.011(2) 0.019(2) 0.0001(17) 0.0098(19) 0.0011(17)
C32 0.020(2) 0.013(2) 0.023(2) -0.0013(18) 0.011(2) -0.0026(19)
C33 0.022(2) 0.013(2) 0.030(3) 0.0032(18) 0.011(2) -0.002(2)
C34 0.034(3) 0.011(2) 0.024(3) 0.003(2) 0.014(2) 0.0015(19)
C35 0.029(3) 0.013(2) 0.023(3) -0.0052(19) 0.012(2) 0.0000(18)
C36 0.018(2) 0.017(2) 0.018(2) -0.0011(17) 0.0101(19) -0.0019(18)
loop_
_atom_type_symbol
_atom_type_description
_atom_type_scat_dispersion_real
_atom_type_scat_dispersion_imag
_atom_type_scat_source
C C 0.0033 0.0016 'International Tables Vol C Tables 4.2.6.8 and 6.1.1.4'
H H 0 0 'International Tables Vol C Tables 4.2.6.8 and 6.1.1.4'
N N 0.0061 0.0033 'International Tables Vol C Tables 4.2.6.8 and 6.1.1.4'
Ir Ir -1.4442 7.9887 'International Tables Vol C Tables 4.2.6.8 and 6.1.1.4'
loop_
_geom_angle_atom_site_label_1
_geom_angle_atom_site_label_2
_geom_angle_atom_site_label_3
_geom_angle
C21 Ir1 N22 90.47(17)
C21 Ir1 N24 90.29(17)
N22 Ir1 N24 179.21(15)
C21 Ir1 N25 90.00(17)
N22 Ir1 N25 89.37(16)
N24 Ir1 N25 90.38(15)
C21 Ir1 N31 89.36(17)
N22 Ir1 N31 89.75(16)
N24 Ir1 N31 90.50(16)
N25 Ir1 N31 178.91(15)
C21 Ir1 N23 179.81(17)
N22 Ir1 N23 89.72(15)
N24 Ir1 N23 89.53(15)
N25 Ir1 N23 90.02(15)
N31 Ir1 N23 90.62(15)
C1 C21 C4 107.4(4)
C1 C21 Ir1 126.2(3)
C4 C21 Ir1 126.5(3)
C9 N22 C6 106.5(4)
C9 N22 Ir1 126.3(3)
C6 N22 Ir1 127.0(3)
C11 N23 C14 106.8(4)
C11 N23 Ir1 126.6(3)
C14 N23 Ir1 126.6(3)
C16 N24 C19 106.7(4)
C16 N24 Ir1 126.1(3)
C19 N24 Ir1 127.2(3)
C30 N25 C26 117.7(4)
C30 N25 Ir1 121.0(3)
C26 N25 Ir1 121.3(3)
C36 N31 C32 119.1(4)
C36 N31 Ir1 120.3(3)
C32 N31 Ir1 120.6(3)
C20 C1 C21 126.2(4)
C20 C1 C2 125.2(4)
C21 C1 C2 108.6(4)
C2A C2 C3 121.4(4)
C2A C2 C1 131.2(4)
C3 C2 C1 107.4(4)
C2 C2A C2B 118.5(5)
C2 C2A H2A 120.7
C2B C2A H2A 120.7
C3B C2B C2A 121.1(5)
C3B C2B H2B 119.5
C2A C2B H2B 119.5
C3A C3 C2 119.7(4)
C3A C3 C4 132.4(5)
C2 C3 C4 107.8(4)
C3 C3A C3B 118.7(5)
C3 C3A H3A 120.7
C3B C3A H3A 120.7
C2B C3B C3A 120.6(5)
C2B C3B H3B 119.7
C3A C3B H3B 119.7
C5 C4 C21 125.2(4)
C5 C4 C3 126.0(4)
C21 C4 C3 108.7(4)
C4 C5 C6 125.7(4)
C4 C5 H5 117.2
C6 C5 H5 117.2
N22 C6 C5 125.0(4)
N22 C6 C7 109.4(4)
C5 C6 C7 125.6(4)
C8 C7 C6 107.7(4)
C8 C7 C7A 127.4(4)
C6 C7 C7A 124.9(4)
C7 C7A H7A1 109.5
C7 C7A H7A2 109.5
H7A1 C7A H7A2 109.5
C7 C7A H7A3 109.5
H7A1 C7A H7A3 109.5
H7A2 C7A H7A3 109.5
C7 C8 C9 106.8(4)
C7 C8 C8A 128.4(4)
C9 C8 C8A 124.7(4)
C8 C8A C8B 114.8(5)
C8 C8A H8A1 108.6
C8B C8A H8A1 108.6
C8 C8A H8A2 108.6
C8B C8A H8A2 108.6
H8A1 C8A H8A2 107.5
C8A C8B H8B1 109.5
C8A C8B H8B2 109.5
H8B1 C8B H8B2 109.5
C8A C8B H8B3 109.5
H8B1 C8B H8B3 109.5
H8B2 C8B H8B3 109.5
N22 C9 C10 125.6(4)
N22 C9 C8 109.5(4)
C10 C9 C8 124.9(4)
C11 C10 C9 127.2(4)
C11 C10 H10 116.4
C9 C10 H10 116.4
N23 C11 C10 124.3(4)
N23 C11 C12 109.7(4)
C10 C11 C12 126.0(4)
C13 C12 C11 106.9(4)
C13 C12 C12A 128.4(4)
C11 C12 C12A 124.4(4)
C12 C12A C12B 110.5(4)
C12 C12A H12A 109.5
C12B C12A H12A 109.5
C12 C12A H12B 109.5
C12B C12A H12B 109.5
H12A C12A H12B 108.1
C12A C12B H12C 109.5
C12A C12B H12D 109.5
H12C C12B H12D 109.5
C12A C12B H12E 109.5
H12C C12B H12E 109.5
H12D C12B H12E 109.5
C12 C13 C14 106.8(4)
C12 C13 C13A 128.6(4)
C14 C13 C13A 124.6(4)
C13 C13A C13B 114.9(4)
C13 C13A H13A 108.5
C13B C13A H13A 108.5
C13 C13A H13B 108.5
C13B C13A H13B 108.5
H13A C13A H13B 107.5
C13A C13B H13C 109.5
C13A C13B H13D 109.5
H13C C13B H13D 109.5
C13A C13B H13E 109.5
H13C C13B H13E 109.5
H13D C13B H13E 109.5
N23 C14 C15 123.9(4)
N23 C14 C13 109.8(4)
C15 C14 C13 126.2(5)
C16 C15 C14 127.8(5)
C16 C15 H15 116.1
C14 C15 H15 116.1
N24 C16 C15 126.0(4)
N24 C16 C17 109.5(4)
C15 C16 C17 124.5(4)
C18 C17 C16 107.1(4)
C18 C17 C17A 128.5(5)
C16 C17 C17A 124.4(5)
C17 C17A C17B 112.5(6)
C17 C17A H17A 109.1
C17B C17A H17A 109.1
C17 C17A H17B 109.1
C17B C17A H17B 109.1
H17A C17A H17B 107.8
C17A C17B H17C 109.5
C17A C17B H17D 109.5
H17C C17B H17D 109.5
C17A C17B H17E 109.5
H17C C17B H17E 109.5
H17D C17B H17E 109.5
C17 C18 C19 107.3(4)
C17 C18 C18A 127.8(5)
C19 C18 C18A 124.9(5)
C18 C18A H18A 109.5
C18 C18A H18B 109.5
H18A C18A H18B 109.5
C18 C18A H18C 109.5
H18A C18A H18C 109.5
H18B C18A H18C 109.5
N24 C19 C20 125.0(4)
N24 C19 C18 109.4(4)
C20 C19 C18 125.6(4)
C1 C20 C19 125.2(4)
C1 C20 H20 117.4
C19 C20 H20 117.4
N25 C26 C27 123.0(5)
N25 C26 H26 118.5
C27 C26 H26 118.5
C26 C27 C28 118.8(5)
C26 C27 H27 120.6
C28 C27 H27 120.6
C29 C28 C27 118.0(5)
C29 C28 H28 121
C27 C28 H28 121
C28 C29 C30 119.8(5)
C28 C29 H29 120.1
C30 C29 H29 120.1
N25 C30 C29 122.6(5)
N25 C30 H30 118.7
C29 C30 H30 118.7
N31 C32 C33 121.6(5)
N31 C32 H32 119.2
C33 C32 H32 119.2
C34 C33 C32 119.3(5)
C34 C33 H33 120.4
C32 C33 H33 120.4
C35 C34 C33 118.6(5)
C35 C34 H34 120.7
C33 C34 H34 120.7
C34 C35 C36 120.3(5)
C34 C35 H35 119.8
C36 C35 H35 119.8
N31 C36 C35 121.1(5)
N31 C36 H36 119.4
C35 C36 H36 119.4
loop_
_geom_bond_atom_site_label_1
_geom_bond_atom_site_label_2
_geom_bond_distance
Ir1 C21 1.999(4)
Ir1 N22 2.043(4)
Ir1 N24 2.050(4)
Ir1 N25 2.063(4)
Ir1 N31 2.070(4)
Ir1 N23 2.094(4)
C21 C1 1.426(6)
C21 C4 1.428(7)
N22 C9 1.383(6)
N22 C6 1.385(6)
N23 C11 1.371(6)
N23 C14 1.373(6)
N24 C16 1.378(6)
N24 C19 1.382(6)
N25 C30 1.346(6)
N25 C26 1.346(6)
N31 C36 1.343(6)
N31 C32 1.359(6)
C1 C20 1.383(6)
C1 C2 1.471(6)
C2 C2A 1.386(6)
C2 C3 1.411(7)
C2A C2B 1.388(7)
C2A H2A 0.95
C2B C3B 1.388(8)
C2B H2B 0.95
C3 C3A 1.391(7)
C3 C4 1.461(6)
C3A C3B 1.408(7)
C3A H3A 0.95
C3B H3B 0.95
C4 C5 1.391(7)
C5 C6 1.395(7)
C5 H5 0.95
C6 C7 1.435(6)
C7 C8 1.362(7)
C7 C7A 1.495(7)
C7A H7A1 0.98
C7A H7A2 0.98
C7A H7A3 0.98
C8 C9 1.445(6)
C8 C8A 1.500(7)
C8A C8B 1.506(8)
C8A H8A1 0.99
C8A H8A2 0.99
C8B H8B1 0.98
C8B H8B2 0.98
C8B H8B3 0.98
C9 C10 1.404(6)
C10 C11 1.394(7)
C10 H10 0.95
C11 C12 1.445(6)
C12 C13 1.365(7)
C12 C12A 1.498(7)
C12A C12B 1.554(7)
C12A H12A 0.99
C12A H12B 0.99
C12B H12C 0.98
C12B H12D 0.98
C12B H12E 0.98
C13 C14 1.445(6)
C13 C13A 1.507(7)
C13A C13B 1.531(8)
C13A H13A 0.99
C13A H13B 0.99
C13B H13C 0.98
C13B H13D 0.98
C13B H13E 0.98
C14 C15 1.395(7)
C15 C16 1.380(7)
C15 H15 0.95
C16 C17 1.448(7)
C17 C18 1.360(7)
C17 C17A 1.512(7)
C17A C17B 1.595(12)
C17A H17A 0.99
C17A H17B 0.99
C17B H17C 0.98
C17B H17D 0.98
C17B H17E 0.98
C18 C19 1.443(7)
C18 C18A 1.499(7)
C18A H18A 0.98
C18A H18B 0.98
C18A H18C 0.98
C19 C20 1.400(7)
C20 H20 0.95
C26 C27 1.383(7)
C26 H26 0.95
C27 C28 1.403(8)
C27 H27 0.95
C28 C29 1.378(8)
C28 H28 0.95
C29 C30 1.384(7)
C29 H29 0.95
C30 H30 0.95
C32 C33 1.390(7)
C32 H32 0.95
C33 C34 1.387(8)
C33 H33 0.95
C34 C35 1.373(8)
C34 H34 0.95
C35 C36 1.393(7)
C35 H35 0.95
C36 H36 0.95
loop_
_geom_torsion_atom_site_label_1
_geom_torsion_atom_site_label_2
_geom_torsion_atom_site_label_3
_geom_torsion_atom_site_label_4
_geom_torsion
C4 C21 C1 C20 178.6(5)
Ir1 C21 C1 C20 -2.6(7)
C4 C21 C1 C2 -1.9(5)
Ir1 C21 C1 C2 176.9(3)
C20 C1 C2 C2A 3.7(8)
C21 C1 C2 C2A -175.8(5)
C20 C1 C2 C3 -178.1(5)
C21 C1 C2 C3 2.3(5)
C3 C2 C2A C2B 1.3(8)
C1 C2 C2A C2B 179.2(5)
C2 C2A C2B C3B -0.6(9)
C2A C2 C3 C3A -1.6(8)
C1 C2 C3 C3A -180.0(5)
C2A C2 C3 C4 176.5(4)
C1 C2 C3 C4 -1.9(5)
C2 C3 C3A C3B 1.1(9)
C4 C3 C3A C3B -176.5(6)
C2A C2B C3B C3A 0.0(10)
C3 C3A C3B C2B -0.3(10)
C1 C21 C4 C5 -178.9(5)
Ir1 C21 C4 C5 2.3(7)
C1 C21 C4 C3 0.7(5)
Ir1 C21 C4 C3 -178.1(3)
C3A C3 C4 C5 -1.9(9)
C2 C3 C4 C5 -179.7(5)
C3A C3 C4 C21 178.5(6)
C2 C3 C4 C21 0.8(6)
C21 C4 C5 C6 -2.4(8)
C3 C4 C5 C6 178.2(5)
C9 N22 C6 C5 180.0(5)
Ir1 N22 C6 C5 3.9(7)
C9 N22 C6 C7 -0.3(5)
Ir1 N22 C6 C7 -176.4(3)
C4 C5 C6 N22 -0.9(8)
C4 C5 C6 C7 179.3(5)
N22 C6 C7 C8 1.0(6)
C5 C6 C7 C8 -179.2(5)
N22 C6 C7 C7A -179.3(5)
C5 C6 C7 C7A 0.4(8)
C6 C7 C8 C9 -1.3(6)
C7A C7 C8 C9 179.0(5)
C6 C7 C8 C8A -179.9(5)
C7A C7 C8 C8A 0.4(9)
C7 C8 C8A C8B 93.2(7)
C9 C8 C8A C8B -85.2(7)
C6 N22 C9 C10 178.9(4)
Ir1 N22 C9 C10 -5.0(7)
C6 N22 C9 C8 -0.5(5)
Ir1 N22 C9 C8 175.6(3)
C7 C8 C9 N22 1.2(5)
C8A C8 C9 N22 179.8(5)
C7 C8 C9 C10 -178.3(5)
C8A C8 C9 C10 0.4(8)
N22 C9 C10 C11 3.9(8)
C8 C9 C10 C11 -176.8(5)
C14 N23 C11 C10 177.3(4)
Ir1 N23 C11 C10 -4.7(7)
C14 N23 C11 C12 -1.8(5)
Ir1 N23 C11 C12 176.2(3)
C9 C10 C11 N23 1.4(8)
C9 C10 C11 C12 -179.7(5)
N23 C11 C12 C13 1.9(5)
C10 C11 C12 C13 -177.2(5)
N23 C11 C12 C12A -173.2(4)
C10 C11 C12 C12A 7.8(8)
C13 C12 C12A C12B -91.4(6)
C11 C12 C12A C12B 82.5(6)
C11 C12 C13 C14 -1.2(5)
C12A C12 C13 C14 173.6(5)
C11 C12 C13 C13A -178.7(5)
C12A C12 C13 C13A -3.9(8)
C12 C13 C13A C13B -106.6(6)
C14 C13 C13A C13B 76.3(6)
C11 N23 C14 C15 178.2(4)
Ir1 N23 C14 C15 0.3(7)
C11 N23 C14 C13 1.1(5)
Ir1 N23 C14 C13 -176.9(3)
C12 C13 C14 N23 0.1(5)
C13A C13 C14 N23 177.8(4)
C12 C13 C14 C15 -177.0(5)
C13A C13 C14 C15 0.6(8)
N23 C14 C15 C16 0.0(8)
C13 C14 C15 C16 176.7(5)
C19 N24 C16 C15 -178.8(5)
Ir1 N24 C16 C15 1.8(7)
C19 N24 C16 C17 0.8(5)
Ir1 N24 C16 C17 -178.6(3)
C14 C15 C16 N24 -1.1(8)
C14 C15 C16 C17 179.4(5)
N24 C16 C17 C18 -0.6(6)
C15 C16 C17 C18 178.9(5)
N24 C16 C17 C17A -180.0(5)
C15 C16 C17 C17A -0.5(8)
C18 C17 C17A C17B 106.7(7)
C16 C17 C17A C17B -74.0(8)
C16 C17 C18 C19 0.2(6)
C17A C17 C18 C19 179.5(5)
C16 C17 C18 C18A -178.5(5)
C17A C17 C18 C18A 0.9(9)
C16 N24 C19 C20 -179.6(5)
Ir1 N24 C19 C20 -0.2(7)
C16 N24 C19 C18 -0.6(5)
Ir1 N24 C19 C18 178.7(3)
C17 C18 C19 N24 0.3(6)
C18A C18 C19 N24 179.0(5)
C17 C18 C19 C20 179.2(5)
C18A C18 C19 C20 -2.1(8)
C21 C1 C20 C19 1.6(8)
C2 C1 C20 C19 -177.9(5)
N24 C19 C20 C1 -0.1(8)
C18 C19 C20 C1 -178.9(5)
C30 N25 C26 C27 1.9(7)
Ir1 N25 C26 C27 -180.0(4)
N25 C26 C27 C28 -2.5(8)
C26 C27 C28 C29 1.6(8)
C27 C28 C29 C30 -0.1(8)
C26 N25 C30 C29 -0.3(7)
Ir1 N25 C30 C29 -178.4(4)
C28 C29 C30 N25 -0.6(8)
C36 N31 C32 C33 -0.5(7)
Ir1 N31 C32 C33 -178.2(4)
N31 C32 C33 C34 0.4(8)
C32 C33 C34 C35 -0.2(9)
C33 C34 C35 C36 0.2(8)
C32 N31 C36 C35 0.4(7)
Ir1 N31 C36 C35 178.2(4)
C34 C35 C36 N31 -0.3(8)
