#------------------------------------------------------------------------------
#$Date: 2017-06-17 05:25:45 +0300 (Sat, 17 Jun 2017) $
#$Revision: 197906 $
#$URL: file:///home/coder/svn-repositories/cod/cif/7/04/33/7043379.cif $
#------------------------------------------------------------------------------
#
# This file is available in the Crystallography Open Database (COD),
# http://www.crystallography.net/
#
# All data on this site have been placed in the public domain by the
# contributors.
#
data_7043379
loop_
_publ_author_name
'Faialaga, Nathan Hikaru'
'Ito, Satoru'
'Shinokubo, Hiroshi'
'Kim, Yonghun'
'Kim, Kimoon'
'Shin, Ji-Young'
_publ_section_title
;
 A Synthesis of Novel Expanded Porphyrinoids: NiII-Induced Nitrile
 Cyclization of Dicyanovinylene-Bis(meso-Aryl)Dipyrrin
;
_journal_name_full               'Dalton Trans.'
_journal_paper_doi               10.1039/C7DT01838J
_journal_year                    2017
_chemical_formula_moiety         '2(C68 H18 F20 N12 Ni2) 0.5 (C6 H14)'
_chemical_formula_sum            'C69.5 H21.5 F20 N12 Ni2'
_chemical_formula_weight         1521.91
_space_group_crystal_system      triclinic
_space_group_IT_number           2
_space_group_name_Hall           '-P 1'
_space_group_name_H-M_alt        'P -1'
_symmetry_space_group_name_Hall  '-P 1'
_symmetry_space_group_name_H-M   'P -1'
_atom_sites_solution_hydrogens   geom
_atom_sites_solution_primary     direct
_audit_creation_method           SHELXL-2014
_audit_update_record
;
2016-12-05 deposited with the CCDC.
2017-06-16 downloaded from the CCDC.
;
_cell_angle_alpha                103.63(3)
_cell_angle_beta                 94.83(3)
_cell_angle_gamma                108.69(3)
_cell_formula_units_Z            4
_cell_length_a                   16.065(3)
_cell_length_b                   20.758(4)
_cell_length_c                   21.059(4)
_cell_measurement_reflns_used    69797
_cell_measurement_temperature    100(2)
_cell_measurement_theta_max      50.00
_cell_measurement_theta_min      0.63
_cell_volume                     6367(3)
_computing_cell_refinement       HKL3000
_computing_data_collection       'PAL ADSC Quantum-210 ADX Program'
_computing_data_reduction        HKL3000
_computing_molecular_graphics    'Ortep-3 (Farrugia, 1997)'
_computing_publication_material  WinGX
_computing_structure_refinement  'SHELXL-2014 (Sheldrick, 2014)'
_computing_structure_solution    'SHELXS-2014 (Sheldrick, 2014)'
_diffrn_ambient_pressure         101
_diffrn_ambient_temperature      100(2)
_diffrn_measured_fraction_theta_full 0.906
_diffrn_measured_fraction_theta_max 0.905
_diffrn_measurement_details
'1.00 degrees, 3.0 sec, detector distance 63.00 mm'
_diffrn_measurement_device_type  'ADSC Q210 CCD area detector'
_diffrn_measurement_method       'omega scans'
_diffrn_radiation_monochromator  'Si(111) double crystal monochromator'
_diffrn_radiation_probe          x-ray
_diffrn_radiation_type           synchrotron
_diffrn_radiation_wavelength     0.700
_diffrn_reflns_av_R_equivalents  0.0262
_diffrn_reflns_av_unetI/netI     0.0411
_diffrn_reflns_Laue_measured_fraction_full 0.906
_diffrn_reflns_Laue_measured_fraction_max 0.905
_diffrn_reflns_limit_h_max       19
_diffrn_reflns_limit_h_min       -19
_diffrn_reflns_limit_k_max       25
_diffrn_reflns_limit_k_min       -25
_diffrn_reflns_limit_l_max       25
_diffrn_reflns_limit_l_min       -25
_diffrn_reflns_number            40579
_diffrn_reflns_point_group_measured_fraction_full 0.906
_diffrn_reflns_point_group_measured_fraction_max 0.905
_diffrn_reflns_theta_full        24.835
_diffrn_reflns_theta_max         24.999
_diffrn_reflns_theta_min         1.523
_diffrn_source                   'PLSII 2D bending magnet'
_exptl_absorpt_coefficient_mu    0.678
_exptl_absorpt_correction_T_max  0.6371
_exptl_absorpt_correction_T_min  0.63
_exptl_absorpt_correction_type   empirical
_exptl_absorpt_process_details   'HKL3000 Scalepack'
_exptl_crystal_colour            green
_exptl_crystal_density_diffrn    1.588
_exptl_crystal_density_method    'not measured'
_exptl_crystal_description       block
_exptl_crystal_F_000             3034
_exptl_crystal_recrystallization_method 'Dichloromethane and Hexane'
_exptl_crystal_size_max          0.160
_exptl_crystal_size_mid          0.020
_exptl_crystal_size_min          0.010
_refine_diff_density_max         1.357
_refine_diff_density_min         -1.477
_refine_diff_density_rms         0.142
_refine_ls_extinction_method     none
_refine_ls_goodness_of_fit_ref   1.068
_refine_ls_hydrogen_treatment    constr
_refine_ls_matrix_type           full
_refine_ls_number_parameters     1892
_refine_ls_number_reflns         21255
_refine_ls_number_restraints     75
_refine_ls_restrained_S_all      1.067
_refine_ls_R_factor_all          0.0939
_refine_ls_R_factor_gt           0.0761
_refine_ls_shift/su_max          0.001
_refine_ls_shift/su_mean         0.000
_refine_ls_structure_factor_coef Fsqd
_refine_ls_weighting_details
'w=1/[\s^2^(Fo^2^)+(0.1697P)^2^+3.4590P] where P=(Fo^2^+2Fc^2^)/3'
_refine_ls_weighting_scheme      calc
_refine_ls_wR_factor_gt          0.2220
_refine_ls_wR_factor_ref         0.2412
_reflns_Friedel_coverage         0.000
_reflns_number_gt                16207
_reflns_number_total             21255
_reflns_threshold_expression     'I > 2\s(I)'
_cod_data_source_file            c7dt01838j2.cif
_cod_data_source_block           Ni2MAC-JYS-B
_cod_original_cell_volume        6367(2)
_cod_original_formula_sum        'C69.50 H21.50 F20 N12 Ni2'
_cod_database_code               7043379
_shelx_space_group_comment
;
The symmetry employed for this shelxl refinement is uniquely defined
by the following loop, which should always be used as a source of
symmetry information in preference to the above space-group names.
;
_shelx_estimated_absorpt_t_min   0.899
_shelx_estimated_absorpt_t_max   0.993
_shelxl_version_number           2014-3
_shelx_res_file
;
TITL p-1
REM  Yadorkari-X generated
CELL 0.70000 16.0650 20.7580 21.0590 103.6300 94.8300 108.6900
ZERR 4.0 0.0030 0.0040 0.0040 0.0300 0.0300 0.0300
LATT 1
REM  SPGR P-1 triclinic
SFAC C F N Ni H
DISP C 0.003 0.002 11.182
DISP F 0.017 0.01 49.618
DISP N 0.006 0.003 18.982
DISP Ni 0.358 1.094 4388.525
UNIT 278 80 48 8 86
SIZE 0.16 0.02 0.01
TEMP -100.0
L.S. 20
FMAP 2
PLAN -20
ACTA
CONF
BOND$H
MERG 2
OMIT -10.000000 50.000000

DFIX 1.51 0.02 C137 C138 C138 C139 C139 C140 C140 C141 C141 C142
DANG 2.45 0.04 C137 C139 C138 C140 C139 C141 C140 C142
SIMU 0.01 C137 > C142
ISOR 0.02 C137 > C142
WGHT    0.169700    3.459000
FVAR       0.33078
C1    1    0.899632    0.458648    0.285422    11.00000    0.02506    0.04550 =
         0.04917    0.00152    0.00191    0.01122
C2    1    0.937570    0.416185    0.241283    11.00000    0.02998    0.06119 =
         0.04983   -0.00421    0.00504    0.01720
AFIX  43
H1    5    0.905626    0.372245    0.209226    11.00000   -1.20000
AFIX   0
C3    1    1.027445    0.450288    0.253716    11.00000    0.03201    0.06225 =
         0.05946   -0.00800    0.01028    0.01838
AFIX  43
H2    5    1.070073    0.434353    0.232643    11.00000   -1.20000
AFIX   0
C4    1    1.045623    0.515071    0.304850    11.00000    0.02524    0.05703 =
         0.05184    0.00368    0.00641    0.01035
C5    1    1.120610    0.571201    0.342497    11.00000    0.02927    0.05521 =
         0.05359    0.00440    0.00623    0.01232
C6    1    1.215657    0.591566    0.351406    11.00000    0.02269    0.06986 =
         0.05704    0.00555    0.00648    0.01453
AFIX  43
H3    5    1.248829    0.567922    0.326026    11.00000   -1.20000
AFIX   0
C7    1    1.249525    0.651336    0.403230    11.00000    0.02262    0.06243 =
         0.05833    0.01198    0.00207    0.01124
AFIX  43
H4    5    1.310886    0.676432    0.421338    11.00000   -1.20000
AFIX   0
C8    1    1.175525    0.669733    0.425720    11.00000    0.02823    0.05106 =
         0.04990    0.00640    0.00515    0.00570
C9    1    1.171892    0.725540    0.476166    11.00000    0.02694    0.04839 =
         0.04447    0.00844   -0.00036    0.00646
C10   1    1.091406    0.735489    0.486061    11.00000    0.02575    0.04846 =
         0.04759    0.00886    0.00365    0.00629
C11   1    1.080899    0.791424    0.535281    11.00000    0.02982    0.04477 =
         0.04883    0.00414   -0.00172    0.00424
AFIX  43
H5    5    1.127391    0.828916    0.566679    11.00000   -1.20000
AFIX   0
C12   1    0.992545    0.781388    0.529135    11.00000    0.03701    0.04617 =
         0.05140    0.00159    0.00673    0.01292
AFIX  43
H6    5    0.965673    0.809857    0.555989    11.00000   -1.20000
AFIX   0
C13   1    0.947667    0.720245    0.474943    11.00000    0.02462    0.04462 =
         0.04987    0.01042    0.00460    0.00876
C14   1    0.856746    0.692047    0.446755    11.00000    0.02446    0.04416 =
         0.04863    0.00682    0.00418    0.00833
C15   1    0.822809    0.641504    0.381871    11.00000    0.02497    0.04439 =
         0.05039    0.01085    0.00833    0.00626
C16   1    0.783858    0.709882    0.469391    11.00000    0.02808    0.04598 =
         0.05043    0.00502    0.00640    0.01103
C17   1    0.784955    0.753190    0.532063    11.00000    0.02959    0.04089 =
         0.06388   -0.00391    0.00310    0.01037
C18   1    0.708715    0.673961    0.419385    11.00000    0.02928    0.04113 =
         0.05563    0.00319    0.00688    0.00929
C19   1    0.617505    0.661250    0.403192    11.00000    0.02896    0.04699 =
         0.06694    0.00580    0.00719    0.01307
AFIX  43
H7    5    0.581900    0.678575    0.431601    11.00000   -1.20000
AFIX   0
C20   1    0.588767    0.619446    0.339187    11.00000    0.02198    0.04401 =
         0.06183    0.00615   -0.00128    0.00502
AFIX  43
H8    5    0.528940    0.601577    0.316329    11.00000   -1.20000
AFIX   0
C21   1    0.662781    0.606657    0.311770    11.00000    0.02549    0.03893 =
         0.05157    0.00783    0.00147    0.00715
C22   1    0.666096    0.584494    0.243304    11.00000    0.02227    0.04607 =
         0.05257    0.01440    0.00064    0.00510
C23   1    0.585390    0.543916    0.198993    11.00000    0.02910    0.04499 =
         0.05110    0.01199    0.00094    0.00677
C24   1    0.559764    0.552460    0.135473    11.00000    0.03044    0.06354 =
         0.05630    0.02123    0.00025    0.00189
AFIX  43
H9    5    0.598485    0.578477    0.111398    11.00000   -1.20000
AFIX   0
C25   1    0.469110    0.516376    0.115272    11.00000    0.03285    0.06314 =
         0.06083    0.02292    0.00299    0.00307
AFIX  43
H10   5    0.432749    0.514073    0.076221    11.00000   -1.20000
AFIX   0
C26   1    0.442429    0.483572    0.165741    11.00000    0.02932    0.05110 =
         0.05108    0.00931   -0.00101    0.00634
C27   1    0.359633    0.442871    0.179037    11.00000    0.03028    0.04582 =
         0.04907    0.00630    0.00187    0.00533
C28   1    0.267244    0.414927    0.149810    11.00000    0.03082    0.05220 =
         0.04730    0.00234   -0.00248    0.00456
AFIX  43
H11   5    0.241879    0.418142    0.108777    11.00000   -1.20000
AFIX   0
C29   1    0.222737    0.382612    0.192895    11.00000    0.01995    0.04867 =
         0.05071    0.00515   -0.00179    0.00120
AFIX  43
H12   5    0.160193    0.358390    0.186662    11.00000   -1.20000
AFIX   0
C30   1    0.286621    0.391555    0.249052    11.00000    0.02651    0.03910 =
         0.05216    0.00262    0.00467    0.00698
C31   1    0.278252    0.374839    0.308602    11.00000    0.02502    0.03998 =
         0.05394    0.00535    0.00667    0.00784
C32   1    0.350252    0.391442    0.358157    11.00000    0.02296    0.04404 =
         0.04746    0.00877    0.00523    0.00699
C33   1    0.347200    0.385321    0.424402    11.00000    0.02913    0.05210 =
         0.05484    0.01247    0.01100    0.01167
AFIX  43
H13   5    0.294697    0.368806    0.442407    11.00000   -1.20000
AFIX   0
C34   1    0.431848    0.407086    0.456770    11.00000    0.02742    0.05306 =
         0.05118    0.00862    0.00853    0.00911
AFIX  43
H14   5    0.449717    0.409684    0.501743    11.00000   -1.20000
AFIX   0
C35   1    0.489554    0.425487    0.410773    11.00000    0.02602    0.04271 =
         0.04467    0.00459    0.00472    0.01059
C36   1    0.582159    0.442504    0.418727    11.00000    0.02609    0.04145 =
         0.04198    0.00472    0.00557    0.01022
C37   1    0.631348    0.450202    0.364551    11.00000    0.02198    0.03729 =
         0.05013    0.00322    0.00477    0.00782
C38   1    0.643310    0.447812    0.474030    11.00000    0.02546    0.04904 =
         0.04562    0.00588    0.00569    0.01073
C39   1    0.624088    0.441283    0.537099    11.00000    0.02283    0.05049 =
         0.05415    0.00896    0.00460    0.00976
C40   1    0.726789    0.456012    0.454658    11.00000    0.02679    0.04558 =
         0.04432    0.00505    0.00378    0.01177
C41   1    0.815521    0.464597    0.475887    11.00000    0.02717    0.04615 =
         0.05283    0.00345    0.00391    0.01463
AFIX  43
H15   5    0.841491    0.468258    0.519414    11.00000   -1.20000
AFIX   0
C42   1    0.858042    0.466749    0.422306    11.00000    0.02510    0.04865 =
         0.04877    0.00324    0.00429    0.01437
AFIX  43
H16   5    0.919754    0.474146    0.423758    11.00000   -1.20000
AFIX   0
C43   1    0.798502    0.456587    0.364835    11.00000    0.02074    0.03881 =
         0.04727    0.00101    0.00366    0.00882
C44   1    0.811259    0.437455    0.298313    11.00000    0.02770    0.04172 =
         0.04898    0.00125    0.00362    0.01399
C45   1    1.256867    0.775749    0.519824    11.00000    0.02427    0.05386 =
         0.04855    0.00341   -0.00320    0.00892
C46   1    1.322123    0.821999    0.496555    11.00000    0.02975    0.07092 =
         0.04420    0.00755   -0.00194    0.00759
C47   1    1.401165    0.867368    0.534849    11.00000    0.02712    0.06852 =
         0.05554    0.00446    0.00386    0.00377
C48   1    1.418782    0.867355    0.599428    11.00000    0.02938    0.05652 =
         0.05685   -0.01532   -0.01394    0.01498
C49   1    1.358010    0.823595    0.625168    11.00000    0.05471    0.04863 =
         0.04995    0.00066   -0.01170    0.02118
C50   1    1.276895    0.777153    0.585226    11.00000    0.03833    0.04691 =
         0.05164    0.00514    0.00016    0.01401
C51   1    0.746973    0.611692    0.215125    11.00000    0.02575    0.05409 =
         0.05555    0.01727    0.00426    0.00653
C52   1    0.762533    0.571164    0.157463    11.00000    0.04476    0.06450 =
         0.05903    0.01888    0.00872    0.01811
C53   1    0.834668    0.594446    0.127125    11.00000    0.05026    0.08760 =
         0.07051    0.03543    0.01892    0.02960
C54   1    0.896808    0.662772    0.154944    11.00000    0.04949    0.09700 =
         0.08250    0.05043    0.02841    0.03385
C55   1    0.882636    0.704953    0.209887    11.00000    0.02846    0.07321 =
         0.08380    0.04042   -0.00488    0.00003
C56   1    0.809377    0.680364    0.239041    11.00000    0.03278    0.05242 =
         0.05691    0.01526    0.00023    0.00462
C57   1    0.186731    0.338773    0.320209    11.00000    0.02126    0.05602 =
         0.05544    0.01313    0.00511    0.01019
C58   1    0.137863    0.376698    0.352997    11.00000    0.03577    0.07113 =
         0.04835    0.00965    0.00723    0.01575
C59   1    0.052290    0.344178    0.360933    11.00000    0.03342    0.11366 =
         0.05546    0.02379    0.01606    0.03065
C60   1    0.012409    0.272304    0.335602    11.00000    0.02301    0.10808 =
         0.06986    0.04238    0.00261    0.00431
C61   1    0.057563    0.233834    0.304706    11.00000    0.03149    0.06963 =
         0.09456    0.03556   -0.00648   -0.00306
C62   1    0.144258    0.266017    0.296409    11.00000    0.03150    0.05553 =
         0.07393    0.02283   -0.00094    0.00546
C63   1    0.740645    0.385975    0.244043    11.00000    0.02354    0.04537 =
         0.05035    0.00009    0.00354    0.01282
C64   1    0.673084    0.327227    0.251360    11.00000    0.03147    0.04719 =
         0.04956    0.00359    0.00313    0.01571
C65   1    0.610821    0.277777    0.199810    11.00000    0.03096    0.04358 =
         0.05886    0.00008    0.00094    0.01176
C66   1    0.611906    0.285415    0.136687    11.00000    0.03198    0.05046 =
         0.05674   -0.00756   -0.00055    0.01668
C67   1    0.676078    0.342097    0.126449    11.00000    0.03848    0.06313 =
         0.04448    0.00122    0.00510    0.02387
C68   1    0.739413    0.390662    0.178450    11.00000    0.02591    0.05197 =
         0.05067    0.00182    0.00468    0.01413
F1    2    1.306561    0.821747    0.432870    11.00000    0.04131    0.09915 =
         0.05214    0.02120    0.00038   -0.01331
F2    2    1.462252    0.910639    0.510083    11.00000    0.03755    0.09344 =
         0.06991    0.00471    0.00794   -0.01675
F3    2    1.497954    0.910925    0.637143    11.00000    0.03681    0.06264 =
         0.07173   -0.01665   -0.01771    0.01539
F4    2    1.374884    0.823964    0.688799    11.00000    0.09259    0.05544 =
         0.05944    0.00490   -0.02740    0.01255
F5    2    1.218526    0.733735    0.611728    11.00000    0.06014    0.05715 =
         0.05814    0.01752   -0.00216    0.00987
F6    2    0.704814    0.505102    0.127334    11.00000    0.05235    0.06428 =
         0.06018    0.00877    0.00363    0.01745
F7    2    0.845883    0.553585    0.072250    11.00000    0.10535    0.11804 =
         0.07886    0.03588    0.04873    0.05955
F8    2    0.966937    0.685297    0.127190    11.00000    0.04901    0.13280 =
         0.12843    0.08391    0.04312    0.03139
F9    2    0.940032    0.772044    0.236395    11.00000    0.03649    0.07487 =
         0.10670    0.04603    0.00083   -0.00613
F10   2    0.797520    0.725978    0.290945    11.00000    0.04814    0.04847 =
         0.07165    0.01489    0.00170   -0.00111
F11   2    0.176866    0.446874    0.377509    11.00000    0.04856    0.07325 =
         0.06893   -0.00444    0.01177    0.02565
F12   2    0.007113    0.383778    0.391846    11.00000    0.05124    0.15814 =
         0.07447    0.02881    0.02719    0.05320
F13   2   -0.073638    0.240974    0.339225    11.00000    0.02216    0.16637 =
         0.10311    0.07915    0.00552    0.00349
F14   2    0.018751    0.162020    0.280920    11.00000    0.04714    0.07675 =
         0.13857    0.04957   -0.02041   -0.01695
F15   2    0.187171    0.226183    0.264576    11.00000    0.04255    0.05326 =
         0.09012    0.00465   -0.00455    0.00999
F16   2    0.669985    0.316991    0.312411    11.00000    0.04152    0.04844 =
         0.05330    0.00775    0.00165    0.00874
F17   2    0.548352    0.221100    0.209194    11.00000    0.04124    0.04464 =
         0.07028    0.00441   -0.00183    0.00417
F18   2    0.550354    0.237666    0.085538    11.00000    0.04285    0.05828 =
         0.05720   -0.01396   -0.01335    0.01763
F19   2    0.677533    0.348909    0.064023    11.00000    0.05098    0.08183 =
         0.04469    0.00493    0.00501    0.02633
F20   2    0.802885    0.443051    0.164817    11.00000    0.03451    0.06576 =
         0.05827    0.01605    0.01062    0.01416
N1    3    0.966515    0.519594    0.321055    11.00000    0.02345    0.05237 =
         0.05015    0.00377    0.00714    0.01243
N2    3    1.098452    0.619128    0.387754    11.00000    0.02926    0.05140 =
         0.05115    0.00553    0.00875    0.01010
N3    3    1.008033    0.691852    0.449066    11.00000    0.02152    0.04752 =
         0.04557    0.00542   -0.00004    0.00732
N4    3    0.865840    0.605745    0.349832    11.00000    0.02942    0.04367 =
         0.04736    0.00145    0.00434    0.00999
AFIX  43
H17   5    0.838751    0.576958    0.310409    11.00000   -1.20000
AFIX   0
N5    3    0.784631    0.787032    0.584269    11.00000    0.03396    0.05320 =
         0.07472   -0.01160    0.00105    0.01269
N6    3    0.734518    0.637580    0.364895    11.00000    0.02335    0.04334 =
         0.05048    0.00407    0.00515    0.01116
N7    3    0.512154    0.498730    0.214586    11.00000    0.02383    0.04506 =
         0.04783    0.01082   -0.00101    0.00542
N8    3    0.369991    0.429054    0.239138    11.00000    0.02261    0.04378 =
         0.04325    0.00347    0.00035    0.00467
N9    3    0.439226    0.417867    0.351069    11.00000    0.02207    0.04438 =
         0.04357    0.00497    0.00353    0.00831
N10   3    0.599295    0.455242    0.308174    11.00000    0.02361    0.04162 =
         0.04149    0.00643    0.00693    0.00822
AFIX  43
H18   5    0.635860    0.461181    0.279461    11.00000   -1.20000
AFIX   0
N11   3    0.604256    0.433228    0.586469    11.00000    0.03252    0.06848 =
         0.05413    0.01730    0.00894    0.01611
N12   3    0.717183    0.453451    0.387311    11.00000    0.02279    0.04395 =
         0.04240    0.00319    0.00320    0.01087
NI1   4    0.980911    0.609439    0.379529    11.00000    0.02071    0.04456 =
         0.04592    0.00198    0.00316    0.00768
NI2   4    0.483488    0.451207    0.281498    11.00000    0.02148    0.03991 =
         0.04417    0.00537    0.00381    0.00631
C69   1    0.131876    0.020469    0.263453    11.00000    0.02777    0.04154 =
         0.07205   -0.00402    0.00921    0.00680
C70   1    0.100922    0.056508    0.319123    11.00000    0.03792    0.05037 =
         0.07357   -0.00870    0.01059    0.01141
AFIX  43
H19   5    0.136740    0.095625    0.355140    11.00000   -1.20000
AFIX   0
C71   1    0.010738    0.023664    0.310017    11.00000    0.03606    0.04895 =
         0.07784   -0.01209    0.01582    0.00974
AFIX  43
H20   5   -0.028194    0.036325    0.338023    11.00000   -1.20000
AFIX   0
C72   1   -0.014469   -0.033573    0.250286    11.00000    0.02291    0.04886 =
         0.06853   -0.00086    0.00861    0.00752
C73   1   -0.093765   -0.081961    0.210561    11.00000    0.03129    0.04208 =
         0.06489   -0.00325    0.01327    0.00788
C74   1   -0.188485   -0.096906    0.207899    11.00000    0.02823    0.05537 =
         0.07452    0.00031    0.01710    0.00870
AFIX  43
H21   5   -0.216540   -0.075685    0.240391    11.00000   -1.20000
AFIX   0
C75   1   -0.229088   -0.146829    0.150293    11.00000    0.02650    0.05288 =
         0.08448    0.01078    0.02034    0.00800
AFIX  43
H22   5   -0.291597   -0.167540    0.134673    11.00000   -1.20000
AFIX   0
C76   1   -0.160652   -0.163382    0.116343    11.00000    0.02684    0.04114 =
         0.06866    0.00807    0.00764    0.00798
C77   1   -0.167126   -0.212046    0.055847    11.00000    0.02330    0.04189 =
         0.05973    0.01290    0.00553    0.00435
C78   1   -0.091258   -0.224289    0.036011    11.00000    0.02246    0.04152 =
         0.05711    0.00507    0.00350    0.00742
C79   1   -0.089922   -0.274796   -0.023287    11.00000    0.02829    0.04955 =
         0.05687    0.00821    0.00249    0.00914
AFIX  43
H23   5   -0.140012   -0.305642   -0.056094    11.00000   -1.20000
AFIX   0
C80   1   -0.003390   -0.270282   -0.023790    11.00000    0.03345    0.05101 =
         0.05250    0.00200    0.00445    0.01548
AFIX  43
H24   5    0.017635   -0.297312   -0.057325    11.00000   -1.20000
AFIX   0
C81   1    0.049937   -0.217930    0.034785    11.00000    0.02787    0.03992 =
         0.05405    0.00847    0.00935    0.00810
C82   1    0.140730   -0.198238    0.057163    11.00000    0.02860    0.03830 =
         0.05286    0.00570    0.01075    0.01018
C83   1    0.183789   -0.157157    0.123736    11.00000    0.02512    0.03620 =
         0.05331    0.00940    0.00757    0.00648
C84   1    0.207471   -0.216198    0.024528    11.00000    0.03178    0.04162 =
         0.05234    0.00457    0.00822    0.01300
C85   1    0.194331   -0.253511   -0.043317    11.00000    0.03016    0.05044 =
         0.05528    0.00281    0.00489    0.01465
C86   1    0.287050   -0.190184    0.069788    11.00000    0.03152    0.04050 =
         0.04981    0.00491    0.00855    0.01075
C87   1    0.377613   -0.182870    0.077381    11.00000    0.02717    0.04155 =
         0.06021    0.00438    0.01151    0.00918
AFIX  43
H25   5    0.407922   -0.198199    0.043351    11.00000   -1.20000
AFIX   0
C88   1    0.414235   -0.149610    0.142795    11.00000    0.02581    0.03669 =
         0.05470   -0.00407    0.00374    0.00765
AFIX  43
H26   5    0.475208   -0.136952    0.161260    11.00000   -1.20000
AFIX   0
C89   1    0.346516   -0.136576    0.179642    11.00000    0.02097    0.03762 =
         0.05808    0.00706    0.00439    0.00218
C90   1    0.349186   -0.122217    0.248047    11.00000    0.02665    0.04659 =
         0.05783    0.01479    0.01210    0.00988
C91   1    0.432823   -0.087609    0.292210    11.00000    0.03375    0.04726 =
         0.05082    0.00815    0.00972    0.00963
C92   1    0.460562   -0.099670    0.353626    11.00000    0.03766    0.06308 =
         0.05532    0.02023    0.00959    0.00838
AFIX  43
H27   5    0.422861   -0.127077    0.377292    11.00000   -1.20000
AFIX   0
C93   1    0.550968   -0.064759    0.372239    11.00000    0.03792    0.06622 =
         0.05402    0.01754    0.00656    0.01202
AFIX  43
H28   5    0.588049   -0.064016    0.410207    11.00000   -1.20000
AFIX   0
C94   1    0.577398   -0.030036    0.322905    11.00000    0.03775    0.04833 =
         0.05147    0.00612    0.00809    0.01129
C95   1    0.658354    0.010833    0.307590    11.00000    0.02787    0.04708 =
         0.04772    0.00479    0.00178    0.00794
C96   1    0.751406    0.037341    0.332941    11.00000    0.03261    0.05194 =
         0.05143    0.00387   -0.00040    0.01005
AFIX  43
H29   5    0.779145    0.033528    0.372861    11.00000   -1.20000
AFIX   0
C97   1    0.793120    0.069282    0.288901    11.00000    0.02283    0.05333 =
         0.05270    0.00248   -0.00145    0.00459
AFIX  43
H30   5    0.855666    0.091562    0.292422    11.00000   -1.20000
AFIX   0
C98   1    0.726136    0.063317    0.236532    11.00000    0.02606    0.04676 =
         0.05852    0.01023    0.00493    0.00800
C99   1    0.730004    0.085150    0.178620    11.00000    0.02256    0.04809 =
         0.05773    0.01131    0.00399    0.00755
C100  1    0.654894    0.080263    0.137465    11.00000    0.02621    0.04658 =
         0.05613    0.01082    0.00881    0.00443
C101  1    0.651408    0.097457    0.075274    11.00000    0.02767    0.05538 =
         0.05797    0.01424    0.00879    0.00556
AFIX  43
H31   5    0.700951    0.113800    0.054216    11.00000   -1.20000
AFIX   0
C102  1    0.566221    0.086468    0.052086    11.00000    0.03113    0.04571 =
         0.05448    0.01122    0.00220    0.00904
AFIX  43
H32   5    0.544431    0.092861    0.011528    11.00000   -1.20000
AFIX   0
C103  1    0.514126    0.063286    0.099842    11.00000    0.02477    0.04059 =
         0.05186    0.00452    0.00392    0.00798
C104  1    0.422887    0.050703    0.100000    11.00000    0.02822    0.03792 =
         0.05540    0.00860    0.00278    0.01078
C105  1    0.380660    0.035508    0.155583    11.00000    0.02612    0.03138 =
         0.06151    0.00265    0.00772    0.00729
C106  1    0.357806    0.056375    0.054523    11.00000    0.02770    0.04294 =
         0.06680    0.01140    0.00070    0.00668
C107  1    0.372272    0.077139   -0.005406    11.00000    0.02443    0.05800 =
         0.07069    0.02175   -0.00572    0.00762
C108  1    0.277794    0.044790    0.080596    11.00000    0.02688    0.04342 =
         0.06886    0.00799    0.00118    0.01332
C109  1    0.188230    0.038029    0.066969    11.00000    0.02672    0.04546 =
         0.08562    0.01819    0.00082    0.00682
AFIX  43
H33   5    0.157779    0.039639    0.027023    11.00000   -1.20000
AFIX   0
C110  1    0.152750    0.028555    0.122976    11.00000    0.02406    0.04418 =
         0.09696    0.01615    0.00645    0.00897
AFIX  43
H34   5    0.092102    0.021150    0.126806    11.00000   -1.20000
AFIX   0
C111  1    0.217322    0.031229    0.173358    11.00000    0.02176    0.03796 =
         0.07706    0.00747    0.00775    0.00700
C112  1    0.214509    0.046464    0.243320    11.00000    0.02815    0.03766 =
         0.07780   -0.00024    0.00834    0.00905
C113  1   -0.255583   -0.253223    0.013992    11.00000    0.02565    0.04089 =
         0.05726    0.01183    0.00326    0.00689
C114  1   -0.319864   -0.303722    0.032998    11.00000    0.02895    0.06502 =
         0.05564    0.02664   -0.00628    0.00309
C115  1   -0.403422   -0.340756   -0.003750    11.00000    0.03276    0.05641 =
         0.07011    0.02936    0.00565    0.00097
C116  1   -0.425982   -0.328418   -0.062628    11.00000    0.02485    0.05285 =
         0.06215    0.01514   -0.00290    0.01017
C117  1   -0.364804   -0.279265   -0.083965    11.00000    0.03437    0.05889 =
         0.05827    0.02314    0.00638    0.02077
C118  1   -0.281371   -0.241950   -0.046096    11.00000    0.02727    0.04628 =
         0.06785    0.01898    0.00823    0.00916
C119  1    0.269382   -0.149440    0.278173    11.00000    0.02873    0.07319 =
         0.07518    0.03366    0.01041    0.01403
C120  1    0.255146   -0.104162    0.336895    11.00000    0.04348    0.10024 =
         0.06911    0.03395    0.02505    0.02868
C121  1    0.181126   -0.128549    0.364552    11.00000    0.08114    0.15121 =
         0.09864    0.06489    0.05150    0.07295
C122  1    0.116665   -0.192044    0.338485    11.00000    0.03466    0.14154 =
         0.12452    0.09090    0.00614    0.01586
C123  1    0.129323   -0.238654    0.282394    11.00000    0.03782    0.10163 =
         0.11103    0.05876   -0.00384    0.00734
C124  1    0.205707   -0.214857    0.253790    11.00000    0.04131    0.07967 =
         0.07783    0.03192   -0.00415   -0.00071
C125  1    0.819178    0.115542    0.160621    11.00000    0.02279    0.05481 =
         0.05412    0.01076    0.00295    0.00816
C126  1    0.858590    0.071611    0.124311    11.00000    0.02654    0.05802 =
         0.06279    0.01574    0.00423    0.00907
C127  1    0.942799    0.097948    0.109340    11.00000    0.03085    0.07681 =
         0.07534    0.02955    0.01789    0.02327
C128  1    0.990090    0.170480    0.131920    11.00000    0.02588    0.06989 =
         0.07563    0.03145    0.01309    0.01212
C129  1    0.952183    0.214259    0.165530    11.00000    0.02864    0.05402 =
         0.06471    0.01447    0.00417    0.00134
C130  1    0.868024    0.187371    0.180132    11.00000    0.02650    0.05480 =
         0.06166    0.01392    0.00594    0.00846
C131  1    0.290018    0.103464    0.292290    11.00000    0.02812    0.04995 =
         0.08741   -0.00421    0.01341    0.01283
C132  1    0.341575    0.163362    0.275381    11.00000    0.03221    0.03968 =
         0.11657   -0.01130    0.02351    0.00632
C133  1    0.409259    0.218233    0.321820    11.00000    0.03448    0.04420 =
         0.14674   -0.01477    0.02690    0.00614
C134  1    0.426451    0.215784    0.386126    11.00000    0.03407    0.06198 =
         0.13996   -0.03745   -0.01797    0.01883
C135  1    0.375905    0.159730    0.404843    11.00000    0.06986    0.07905 =
         0.09182   -0.02402   -0.01316    0.04442
C136  1    0.308172    0.104670    0.358614    11.00000    0.04599    0.05980 =
         0.09186   -0.00540    0.00446    0.02520
F21   2   -0.298991   -0.318167    0.090286    11.00000    0.03969    0.08659 =
         0.07747    0.04463   -0.01244   -0.01251
F22   2   -0.464180   -0.389785    0.016613    11.00000    0.03786    0.09101 =
         0.08861    0.04907   -0.00940   -0.01707
F23   2   -0.507433   -0.365540   -0.099640    11.00000    0.03050    0.06321 =
         0.06614    0.01540   -0.00869    0.00956
F24   2   -0.387276   -0.267727   -0.142264    11.00000    0.04799    0.09445 =
         0.07282    0.04228    0.00167    0.01862
F25   2   -0.223643   -0.193443   -0.068085    11.00000    0.04090    0.07024 =
         0.08473    0.04002    0.01689    0.01088
F26   2    0.316741   -0.042950    0.367340    11.00000    0.08968    0.08205 =
         0.09267    0.01559    0.03470    0.03974
F27   2    0.171869   -0.086014    0.420734    11.00000    0.13170    0.18826 =
         0.12242    0.07573    0.08396    0.10712
F28   2    0.044783   -0.213358    0.363717    11.00000    0.06271    0.22880 =
         0.16818    0.14468    0.06195    0.06182
F29   2    0.070123   -0.303192    0.255922    11.00000    0.05564    0.11673 =
         0.16213    0.08615   -0.01253   -0.01779
F30   2    0.215958   -0.260513    0.200473    11.00000    0.06608    0.05707 =
         0.08782    0.02314   -0.00969   -0.00811
F31   2    0.814903    0.001781    0.102705    11.00000    0.04119    0.05570 =
         0.08194    0.01440    0.01734    0.01205
F32   2    0.978834    0.054447    0.074338    11.00000    0.04203    0.08004 =
         0.08587    0.02705    0.02414    0.03134
F33   2    1.074562    0.195506    0.122019    11.00000    0.02716    0.08661 =
         0.09870    0.04186    0.02164    0.01606
F34   2    0.997911    0.285117    0.185985    11.00000    0.03105    0.06216 =
         0.07989    0.01717    0.00586    0.00067
F35   2    0.833665    0.232496    0.215992    11.00000    0.03776    0.05605 =
         0.07160    0.00950    0.01348    0.00672
F36   2    0.326444    0.171643    0.215133    11.00000    0.07034    0.04101 =
         0.11132    0.00532    0.04672    0.00992
F37   2    0.457838    0.274604    0.303332    11.00000    0.06000    0.04562 =
         0.20019   -0.02289    0.05530   -0.00569
F38   2    0.492419    0.268218    0.430393    11.00000    0.05464    0.07265 =
         0.19319   -0.06005   -0.03978    0.02247
F39   2    0.388627    0.156622    0.467475    11.00000    0.11906    0.11394 =
         0.10915   -0.03438   -0.05052    0.06659
F40   2    0.258552    0.052666    0.381294    11.00000    0.08207    0.07235 =
         0.08665    0.01024    0.00219    0.03526
N13   3    0.059678   -0.036949    0.224747    11.00000    0.02803    0.04287 =
         0.06396   -0.00169    0.00692    0.00785
N14   3   -0.080234   -0.122255    0.154081    11.00000    0.02800    0.04098 =
         0.06106    0.00604    0.00981    0.00773
N15   3   -0.004284   -0.189733    0.070948    11.00000    0.02385    0.04086 =
         0.05630    0.00587    0.00956    0.00795
N16   3    0.148071   -0.122688    0.165857    11.00000    0.02956    0.03783 =
         0.05164    0.00041    0.00723    0.00649
AFIX  43
H35   5    0.180619   -0.099245    0.205335    11.00000   -1.20000
AFIX   0
N17   3    0.182148   -0.283469   -0.099053    11.00000    0.03596    0.07463 =
         0.06052    0.00010    0.00278    0.02263
N18   3    0.269414   -0.159596    0.130832    11.00000    0.02680    0.04163 =
         0.05095    0.00493    0.00832    0.00830
N19   3    0.505543   -0.042496    0.276108    11.00000    0.02518    0.04233 =
         0.04565    0.00557    0.00281    0.00664
N20   3    0.644717    0.027470    0.249594    11.00000    0.02208    0.04250 =
         0.05023    0.00844    0.00259    0.00710
N21   3    0.568164    0.058347    0.150663    11.00000    0.02007    0.04282 =
         0.05141    0.00662    0.00396    0.00643
N22   3    0.416004    0.019652    0.204782    11.00000    0.02957    0.04131 =
         0.05078    0.00616    0.00793    0.00905
AFIX  43
H36   5    0.383446    0.010711    0.235388    11.00000   -1.20000
AFIX   0
N23   3    0.386227    0.097212   -0.050415    11.00000    0.03873    0.08152 =
         0.09292    0.04299   -0.00451    0.00920
N24   3    0.294989    0.037746    0.143913    11.00000    0.02006    0.04416 =
         0.06356    0.00753    0.00334    0.01104
NI3   4    0.034297   -0.117897    0.150979    11.00000    0.02276    0.03751 =
         0.05638    0.00117    0.00797    0.00626
NI4   4    0.529886    0.014135    0.216365    11.00000    0.02082    0.03942 =
         0.04683    0.00422    0.00445    0.00572
PART -1
C137  1    0.221442    1.129405    0.590418    10.50000    0.20445    0.15342 =
         0.18876    0.07583    0.05171    0.12290
AFIX 137
H37   5    0.237805    1.106499    0.622722    10.50000   -1.50000
H38   5    0.242813    1.180740    0.610409    10.50000   -1.50000
H39   5    0.248754    1.118774    0.551202    10.50000   -1.50000
AFIX   0
C138  1    0.123771    1.102677    0.570778    10.50000    0.21300    0.19111 =
         0.19783    0.06975    0.05474    0.07942
AFIX  23
H40   5    0.106855    1.135743    0.549895    10.50000   -1.20000
H41   5    0.096486    1.102512    0.611203    10.50000   -1.20000
AFIX   0
C139  1    0.085249    1.028970    0.523126    10.50000    0.22082    0.20499 =
         0.21249    0.06811    0.04691    0.07801
AFIX  23
H42   5    0.102584    0.995648    0.543366    10.50000   -1.20000
H43   5    0.110755    1.029013    0.481941    10.50000   -1.20000
AFIX   0
C140  1   -0.016123    1.003502    0.505826    10.50000    0.22785    0.21359 =
         0.22083    0.06885    0.03771    0.08162
AFIX  23
H44   5   -0.039724    1.013422    0.547578    10.50000   -1.20000
H45   5   -0.031888    1.032195    0.478624    10.50000   -1.20000
AFIX   0
C141  1   -0.063919    0.925847    0.468883    10.50000    0.23474    0.21714 =
         0.23643    0.06775    0.03180    0.08509
AFIX  23
H46   5   -0.056490    0.918112    0.421805    10.50000   -1.20000
H47   5   -0.036663    0.896696    0.488242    10.50000   -1.20000
AFIX   0
C142  1   -0.162464    0.902513    0.472704    10.50000    0.25496    0.23479 =
         0.28473    0.06170    0.02026    0.07297
AFIX 131
H48   5   -0.169960    0.910003    0.519271    10.50000   -1.50000
H49   5   -0.191211    0.852165    0.449035    10.50000   -1.50000
H50   5   -0.189959    0.930280    0.452276    10.50000   -1.50000
PART 0

AFIX   0
HKLF 4

REM  p-1
REM R1 =  0.0761 for   16207 Fo > 4sig(Fo)  and  0.0939 for all   21255 data
REM   1892 parameters refined using     75 restraints

END

WGHT      0.1565      6.8744

REM Highest difference peak  1.357,  deepest hole -1.477,  1-sigma level  0.142
Q1    1   0.3982  1.2148  0.7420  11.00000  0.05    1.36
Q2    1   0.4854  1.2590  0.7484  11.00000  0.05    1.19
Q3    1   0.5386  1.2992  0.7652  11.00000  0.05    1.18
Q4    1   0.4605  1.2644  0.8299  11.00000  0.05    0.96
Q5    1   0.0418  0.5353  0.1324  11.00000  0.05    0.96
Q6    1   0.6173  1.3513  0.7625  11.00000  0.05    0.95
Q7    1   0.0407  0.5233  0.0157  11.00000  0.05    0.95
Q8    1   0.6094  1.3255  0.8282  11.00000  0.05    0.90
Q9    1   0.0181  0.5168  0.0047  11.00000  0.05    0.90
Q10   1   0.6807  1.3749  0.8169  11.00000  0.05    0.88
Q11   1   0.6596  1.3653  0.8096  11.00000  0.05    0.88
Q12   1   0.6419  1.3591  0.7904  11.00000  0.05    0.85
Q13   1   0.0508  0.4790  0.0833  11.00000  0.05    0.84
Q14   1   0.0235 -0.2871  0.3100  11.00000  0.05    0.84
Q15   1   0.3170  1.1718  0.6727  11.00000  0.05    0.78
Q16   1   0.1021 -0.3517  0.2130  11.00000  0.05    0.78
Q17   1   0.0564  0.5697 -0.0266  11.00000  0.05    0.65
Q18   1   0.2660 -0.2778  0.1718  11.00000  0.05    0.61
Q19   1   0.1261  0.5476  0.0752  11.00000  0.05    0.60
Q20   1   0.1470 -0.2842  0.2395  11.00000  0.05    0.55
;
_shelx_res_checksum              90248
loop_
_space_group_symop_operation_xyz
'x, y, z'
'-x, -y, -z'
loop_
_atom_site_label
_atom_site_type_symbol
_atom_site_fract_x
_atom_site_fract_y
_atom_site_fract_z
_atom_site_U_iso_or_equiv
_atom_site_adp_type
_atom_site_occupancy
_atom_site_site_symmetry_order
_atom_site_calc_flag
_atom_site_refinement_flags_posn
_atom_site_refinement_flags_adp
_atom_site_refinement_flags_occupancy
_atom_site_disorder_assembly
_atom_site_disorder_group
C1 C 0.8996(3) 0.4586(3) 0.2854(3) 0.0426(11) Uani 1 1 d . . . . .
C2 C 0.9376(3) 0.4162(3) 0.2413(3) 0.0504(13) Uani 1 1 d . . . . .
H1 H 0.9056 0.3722 0.2092 0.060 Uiso 1 1 calc R U . . .
C3 C 1.0274(3) 0.4503(3) 0.2537(3) 0.0551(14) Uani 1 1 d . . . . .
H2 H 1.0701 0.4344 0.2326 0.066 Uiso 1 1 calc R U . . .
C4 C 1.0456(3) 0.5151(3) 0.3048(3) 0.0478(12) Uani 1 1 d . . . . .
C5 C 1.1206(3) 0.5712(3) 0.3425(3) 0.0487(12) Uani 1 1 d . . . . .
C6 C 1.2157(3) 0.5916(3) 0.3514(3) 0.0525(13) Uani 1 1 d . . . . .
H3 H 1.2488 0.5679 0.3260 0.063 Uiso 1 1 calc R U . . .
C7 C 1.2495(3) 0.6513(3) 0.4032(3) 0.0499(12) Uani 1 1 d . . . . .
H4 H 1.3109 0.6764 0.4213 0.060 Uiso 1 1 calc R U . . .
C8 C 1.1755(3) 0.6697(3) 0.4257(3) 0.0466(12) Uani 1 1 d . . . . .
C9 C 1.1719(3) 0.7255(3) 0.4762(2) 0.0429(11) Uani 1 1 d . . . . .
C10 C 1.0914(3) 0.7355(3) 0.4861(3) 0.0433(11) Uani 1 1 d . . . . .
C11 C 1.0809(3) 0.7914(3) 0.5353(3) 0.0455(11) Uani 1 1 d . . . . .
H5 H 1.1274 0.8289 0.5667 0.055 Uiso 1 1 calc R U . . .
C12 C 0.9925(3) 0.7814(3) 0.5291(3) 0.0475(12) Uani 1 1 d . . . . .
H6 H 0.9657 0.8099 0.5560 0.057 Uiso 1 1 calc R U . . .
C13 C 0.9477(3) 0.7202(3) 0.4749(3) 0.0412(11) Uani 1 1 d . . . . .
C14 C 0.8567(3) 0.6920(3) 0.4468(3) 0.0413(11) Uani 1 1 d . . . . .
C15 C 0.8228(3) 0.6415(3) 0.3819(3) 0.0417(11) Uani 1 1 d . . . . .
C16 C 0.7839(3) 0.7099(3) 0.4694(3) 0.0435(11) Uani 1 1 d . . . . .
C17 C 0.7850(3) 0.7532(3) 0.5321(3) 0.0489(13) Uani 1 1 d . . . . .
C18 C 0.7087(3) 0.6740(3) 0.4194(3) 0.0447(11) Uani 1 1 d . . . . .
C19 C 0.6175(3) 0.6612(3) 0.4032(3) 0.0496(13) Uani 1 1 d . . . . .
H7 H 0.5819 0.6786 0.4316 0.059 Uiso 1 1 calc R U . . .
C20 C 0.5888(3) 0.6194(3) 0.3392(3) 0.0463(12) Uani 1 1 d . . . . .
H8 H 0.5289 0.6016 0.3163 0.056 Uiso 1 1 calc R U . . .
C21 C 0.6628(3) 0.6067(2) 0.3118(3) 0.0409(11) Uani 1 1 d . . . . .
C22 C 0.6661(3) 0.5845(3) 0.2433(3) 0.0423(11) Uani 1 1 d . . . . .
C23 C 0.5854(3) 0.5439(3) 0.1990(3) 0.0439(11) Uani 1 1 d . . . . .
C24 C 0.5598(4) 0.5525(3) 0.1355(3) 0.0534(13) Uani 1 1 d . . . . .
H9 H 0.5985 0.5785 0.1114 0.064 Uiso 1 1 calc R U . . .
C25 C 0.4691(4) 0.5164(3) 0.1153(3) 0.0550(14) Uani 1 1 d . . . . .
H10 H 0.4327 0.5141 0.0762 0.066 Uiso 1 1 calc R U . . .
C26 C 0.4424(3) 0.4836(3) 0.1657(3) 0.0472(12) Uani 1 1 d . . . . .
C27 C 0.3596(3) 0.4429(3) 0.1790(3) 0.0453(11) Uani 1 1 d . . . . .
C28 C 0.2672(3) 0.4149(3) 0.1498(3) 0.0486(12) Uani 1 1 d . . . . .
H11 H 0.2419 0.4181 0.1088 0.058 Uiso 1 1 calc R U . . .
C29 C 0.2227(3) 0.3826(3) 0.1929(3) 0.0446(11) Uani 1 1 d . . . . .
H12 H 0.1602 0.3584 0.1867 0.053 Uiso 1 1 calc R U . . .
C30 C 0.2866(3) 0.3916(2) 0.2491(3) 0.0424(11) Uani 1 1 d . . . . .
C31 C 0.2783(3) 0.3748(2) 0.3086(3) 0.0420(11) Uani 1 1 d . . . . .
C32 C 0.3503(3) 0.3914(2) 0.3582(2) 0.0401(11) Uani 1 1 d . . . . .
C33 C 0.3472(3) 0.3853(3) 0.4244(3) 0.0462(12) Uani 1 1 d . . . . .
H13 H 0.2947 0.3688 0.4424 0.055 Uiso 1 1 calc R U . . .
C34 C 0.4318(3) 0.4071(3) 0.4568(3) 0.0461(12) Uani 1 1 d . . . . .
H14 H 0.4497 0.4097 0.5017 0.055 Uiso 1 1 calc R U . . .
C35 C 0.4896(3) 0.4255(2) 0.4108(2) 0.0396(10) Uani 1 1 d . . . . .
C36 C 0.5822(3) 0.4425(2) 0.4187(2) 0.0382(10) Uani 1 1 d . . . . .
C37 C 0.6313(3) 0.4502(2) 0.3646(2) 0.0388(10) Uani 1 1 d . . . . .
C38 C 0.6433(3) 0.4478(3) 0.4740(2) 0.0420(11) Uani 1 1 d . . . . .
C39 C 0.6241(3) 0.4413(3) 0.5371(3) 0.0444(11) Uani 1 1 d . . . . .
C40 C 0.7268(3) 0.4560(3) 0.4547(2) 0.0406(10) Uani 1 1 d . . . . .
C41 C 0.8155(3) 0.4646(3) 0.4759(3) 0.0437(11) Uani 1 1 d . . . . .
H15 H 0.8415 0.4683 0.5194 0.052 Uiso 1 1 calc R U . . .
C42 C 0.8580(3) 0.4667(3) 0.4223(2) 0.0425(11) Uani 1 1 d . . . . .
H16 H 0.9198 0.4741 0.4238 0.051 Uiso 1 1 calc R U . . .
C43 C 0.7985(3) 0.4566(2) 0.3648(2) 0.0381(10) Uani 1 1 d . . . . .
C44 C 0.8113(3) 0.4375(2) 0.2983(3) 0.0413(11) Uani 1 1 d . . . . .
C45 C 1.2569(3) 0.7757(3) 0.5198(3) 0.0460(12) Uani 1 1 d . . . . .
C46 C 1.3221(4) 0.8220(3) 0.4966(3) 0.0529(13) Uani 1 1 d . . . . .
C47 C 1.4012(4) 0.8674(3) 0.5348(3) 0.0562(14) Uani 1 1 d . . . . .
C48 C 1.4188(4) 0.8674(3) 0.5994(3) 0.0546(14) Uani 1 1 d . . . . .
C49 C 1.3580(4) 0.8236(3) 0.6252(3) 0.0540(13) Uani 1 1 d . . . . .
C50 C 1.2769(4) 0.7772(3) 0.5852(3) 0.0479(12) Uani 1 1 d . . . . .
C51 C 0.7470(3) 0.6117(3) 0.2151(3) 0.0468(12) Uani 1 1 d . . . . .
C52 C 0.7625(4) 0.5712(3) 0.1575(3) 0.0561(14) Uani 1 1 d . . . . .
C53 C 0.8347(4) 0.5944(4) 0.1271(3) 0.0652(16) Uani 1 1 d . . . . .
C54 C 0.8968(4) 0.6628(4) 0.1549(4) 0.0686(18) Uani 1 1 d . . . . .
C55 C 0.8826(4) 0.7050(3) 0.2099(4) 0.0639(17) Uani 1 1 d . . . . .
C56 C 0.8094(4) 0.6804(3) 0.2390(3) 0.0504(13) Uani 1 1 d . . . . .
C57 C 0.1867(3) 0.3388(3) 0.3202(3) 0.0456(12) Uani 1 1 d . . . . .
C58 C 0.1379(4) 0.3767(3) 0.3530(3) 0.0538(13) Uani 1 1 d . . . . .
C59 C 0.0523(4) 0.3442(4) 0.3609(3) 0.0657(17) Uani 1 1 d . . . . .
C60 C 0.0124(4) 0.2723(4) 0.3356(4) 0.0689(19) Uani 1 1 d . . . . .
C61 C 0.0576(4) 0.2338(4) 0.3047(4) 0.0693(18) Uani 1 1 d . . . . .
C62 C 0.1443(4) 0.2660(3) 0.2964(3) 0.0559(14) Uani 1 1 d . . . . .
C63 C 0.7406(3) 0.3860(3) 0.2440(3) 0.0421(11) Uani 1 1 d . . . . .
C64 C 0.6731(3) 0.3272(3) 0.2514(3) 0.0443(11) Uani 1 1 d . . . . .
C65 C 0.6108(3) 0.2778(3) 0.1998(3) 0.0478(12) Uani 1 1 d . . . . .
C66 C 0.6119(3) 0.2854(3) 0.1367(3) 0.0504(13) Uani 1 1 d . . . . .
C67 C 0.6761(4) 0.3421(3) 0.1264(3) 0.0498(12) Uani 1 1 d . . . . .
C68 C 0.7394(3) 0.3907(3) 0.1785(3) 0.0451(11) Uani 1 1 d . . . . .
F1 F 1.3066(2) 0.8217(2) 0.43287(17) 0.0742(11) Uani 1 1 d . . . . .
F2 F 1.4623(2) 0.9106(2) 0.51008(19) 0.0803(12) Uani 1 1 d . . . . .
F3 F 1.4980(2) 0.91092(17) 0.63714(18) 0.0657(9) Uani 1 1 d . . . . .
F4 F 1.3749(3) 0.82396(18) 0.68880(18) 0.0771(11) Uani 1 1 d . . . . .
F5 F 1.2185(2) 0.73374(17) 0.61173(16) 0.0617(8) Uani 1 1 d . . . . .
F6 F 0.7048(2) 0.50510(18) 0.12733(17) 0.0616(8) Uani 1 1 d . . . . .
F7 F 0.8459(3) 0.5536(3) 0.0723(2) 0.0921(13) Uani 1 1 d . . . . .
F8 F 0.9669(3) 0.6853(3) 0.1272(2) 0.0932(15) Uani 1 1 d . . . . .
F9 F 0.9400(2) 0.7720(2) 0.2364(2) 0.0761(11) Uani 1 1 d . . . . .
F10 F 0.7975(2) 0.72598(16) 0.29094(18) 0.0615(9) Uani 1 1 d . . . . .
F11 F 0.1769(2) 0.44687(19) 0.37751(18) 0.0668(9) Uani 1 1 d . . . . .
F12 F 0.0071(3) 0.3838(3) 0.3918(2) 0.0901(14) Uani 1 1 d . . . . .
F13 F -0.0736(2) 0.2410(3) 0.3392(2) 0.0975(16) Uani 1 1 d . . . . .
F14 F 0.0188(3) 0.1620(2) 0.2809(3) 0.0960(15) Uani 1 1 d . . . . .
F15 F 0.1872(2) 0.22618(17) 0.2646(2) 0.0675(9) Uani 1 1 d . . . . .
F16 F 0.6700(2) 0.31699(15) 0.31241(15) 0.0511(7) Uani 1 1 d . . . . .
F17 F 0.5484(2) 0.22110(15) 0.20919(17) 0.0576(8) Uani 1 1 d . . . . .
F18 F 0.5504(2) 0.23767(16) 0.08554(16) 0.0596(8) Uani 1 1 d . . . . .
F19 F 0.6775(2) 0.34891(19) 0.06402(15) 0.0609(8) Uani 1 1 d . . . . .
F20 F 0.8029(2) 0.44305(17) 0.16482(16) 0.0538(7) Uani 1 1 d . . . . .
N1 N 0.9665(3) 0.5196(2) 0.3211(2) 0.0441(10) Uani 1 1 d . . . . .
N2 N 1.0985(3) 0.6191(2) 0.3878(2) 0.0464(10) Uani 1 1 d . . . . .
N3 N 1.0080(3) 0.6919(2) 0.4491(2) 0.0411(9) Uani 1 1 d . . . . .
N4 N 0.8658(3) 0.6057(2) 0.3498(2) 0.0430(9) Uani 1 1 d . . . . .
H17 H 0.8388 0.5770 0.3104 0.052 Uiso 1 1 calc R U . . .
N5 N 0.7846(3) 0.7870(2) 0.5843(3) 0.0605(13) Uani 1 1 d . . . . .
N6 N 0.7345(3) 0.6376(2) 0.3649(2) 0.0409(9) Uani 1 1 d . . . . .
N7 N 0.5122(3) 0.4987(2) 0.2146(2) 0.0414(9) Uani 1 1 d . . . . .
N8 N 0.3700(3) 0.4291(2) 0.2391(2) 0.0402(9) Uani 1 1 d . . . . .
N9 N 0.4392(3) 0.4179(2) 0.3511(2) 0.0390(9) Uani 1 1 d . . . . .
N10 N 0.5993(3) 0.4552(2) 0.30817(19) 0.0372(8) Uani 1 1 d . . . . .
H18 H 0.6359 0.4612 0.2795 0.045 Uiso 1 1 calc R U . . .
N11 N 0.6043(3) 0.4332(3) 0.5865(2) 0.0520(11) Uani 1 1 d . . . . .
N12 N 0.7172(3) 0.4535(2) 0.3873(2) 0.0383(9) Uani 1 1 d . . . . .
Ni1 Ni 0.98091(4) 0.60944(3) 0.37953(3) 0.04010(17) Uani 1 1 d . . . . .
Ni2 Ni 0.48349(4) 0.45121(3) 0.28150(3) 0.03758(17) Uani 1 1 d . . . . .
C69 C 0.1319(3) 0.0205(3) 0.2635(3) 0.0520(14) Uani 1 1 d . . . . .
C70 C 0.1009(4) 0.0565(3) 0.3191(3) 0.0596(15) Uani 1 1 d . . . . .
H19 H 0.1367 0.0956 0.3551 0.072 Uiso 1 1 calc R U . . .
C71 C 0.0107(4) 0.0237(3) 0.3100(3) 0.0606(16) Uani 1 1 d . . . . .
H20 H -0.0282 0.0363 0.3380 0.073 Uiso 1 1 calc R U . . .
C72 C -0.0145(3) -0.0336(3) 0.2503(3) 0.0511(13) Uani 1 1 d . . . . .
C73 C -0.0938(3) -0.0820(3) 0.2106(3) 0.0503(13) Uani 1 1 d . . . . .
C74 C -0.1885(3) -0.0969(3) 0.2079(3) 0.0569(15) Uani 1 1 d . . . . .
H21 H -0.2165 -0.0757 0.2404 0.068 Uiso 1 1 calc R U . . .
C75 C -0.2291(4) -0.1468(3) 0.1503(3) 0.0569(15) Uani 1 1 d . . . . .
H22 H -0.2916 -0.1675 0.1347 0.068 Uiso 1 1 calc R U . . .
C76 C -0.1607(3) -0.1634(3) 0.1163(3) 0.0479(12) Uani 1 1 d . . . . .
C77 C -0.1671(3) -0.2120(3) 0.0558(3) 0.0438(11) Uani 1 1 d . . . . .
C78 C -0.0913(3) -0.2243(2) 0.0360(3) 0.0431(11) Uani 1 1 d . . . . .
C79 C -0.0899(3) -0.2748(3) -0.0233(3) 0.0475(12) Uani 1 1 d . . . . .
H23 H -0.1400 -0.3056 -0.0561 0.057 Uiso 1 1 calc R U . . .
C80 C -0.0034(3) -0.2703(3) -0.0238(3) 0.0479(12) Uani 1 1 d . . . . .
H24 H 0.0176 -0.2973 -0.0573 0.058 Uiso 1 1 calc R U . . .
C81 C 0.0499(3) -0.2179(2) 0.0348(3) 0.0423(11) Uani 1 1 d . . . . .
C82 C 0.1407(3) -0.1982(2) 0.0572(3) 0.0413(11) Uani 1 1 d . . . . .
C83 C 0.1838(3) -0.1572(2) 0.1237(3) 0.0398(11) Uani 1 1 d . . . . .
C84 C 0.2075(3) -0.2162(3) 0.0245(3) 0.0434(11) Uani 1 1 d . . . . .
C85 C 0.1943(3) -0.2535(3) -0.0433(3) 0.0475(12) Uani 1 1 d . . . . .
C86 C 0.2870(3) -0.1902(2) 0.0698(3) 0.0424(11) Uani 1 1 d . . . . .
C87 C 0.3776(3) -0.1829(2) 0.0774(3) 0.0452(12) Uani 1 1 d . . . . .
H25 H 0.4079 -0.1982 0.0434 0.054 Uiso 1 1 calc R U . . .
C88 C 0.4142(3) -0.1496(2) 0.1428(3) 0.0431(11) Uani 1 1 d . . . . .
H26 H 0.4752 -0.1370 0.1613 0.052 Uiso 1 1 calc R U . . .
C89 C 0.3465(3) -0.1366(2) 0.1796(3) 0.0422(11) Uani 1 1 d . . . . .
C90 C 0.3492(3) -0.1222(3) 0.2480(3) 0.0441(11) Uani 1 1 d . . . . .
C91 C 0.4328(3) -0.0876(3) 0.2922(3) 0.0459(12) Uani 1 1 d . . . . .
C92 C 0.4606(4) -0.0997(3) 0.3536(3) 0.0536(13) Uani 1 1 d . . . . .
H27 H 0.4229 -0.1271 0.3773 0.064 Uiso 1 1 calc R U . . .
C93 C 0.5510(4) -0.0648(3) 0.3722(3) 0.0542(13) Uani 1 1 d . . . . .
H28 H 0.5880 -0.0640 0.4102 0.065 Uiso 1 1 calc R U . . .
C94 C 0.5774(4) -0.0300(3) 0.3229(3) 0.0482(12) Uani 1 1 d . . . . .
C95 C 0.6584(3) 0.0108(3) 0.3076(3) 0.0440(11) Uani 1 1 d . . . . .
C96 C 0.7514(3) 0.0373(3) 0.3329(3) 0.0489(12) Uani 1 1 d . . . . .
H29 H 0.7791 0.0335 0.3729 0.059 Uiso 1 1 calc R U . . .
C97 C 0.7931(3) 0.0693(3) 0.2889(3) 0.0479(12) Uani 1 1 d . . . . .
H30 H 0.8557 0.0916 0.2924 0.057 Uiso 1 1 calc R U . . .
C98 C 0.7261(3) 0.0633(3) 0.2365(3) 0.0459(12) Uani 1 1 d . . . . .
C99 C 0.7300(3) 0.0851(3) 0.1786(3) 0.0448(11) Uani 1 1 d . . . . .
C100 C 0.6549(3) 0.0803(3) 0.1375(3) 0.0456(12) Uani 1 1 d . . . . .
C101 C 0.6514(3) 0.0975(3) 0.0753(3) 0.0495(12) Uani 1 1 d . . . . .
H31 H 0.7010 0.1138 0.0542 0.059 Uiso 1 1 calc R U . . .
C102 C 0.5662(3) 0.0865(3) 0.0521(3) 0.0457(11) Uani 1 1 d . . . . .
H32 H 0.5444 0.0929 0.0115 0.055 Uiso 1 1 calc R U . . .
C103 C 0.5141(3) 0.0633(2) 0.0998(3) 0.0416(11) Uani 1 1 d . . . . .
C104 C 0.4229(3) 0.0507(2) 0.1000(3) 0.0418(11) Uani 1 1 d . . . . .
C105 C 0.3807(3) 0.0355(2) 0.1556(3) 0.0422(11) Uani 1 1 d . . . . .
C106 C 0.3578(3) 0.0564(3) 0.0545(3) 0.0484(12) Uani 1 1 d . . . . .
C107 C 0.3723(4) 0.0771(3) -0.0054(3) 0.0530(13) Uani 1 1 d . . . . .
C108 C 0.2778(3) 0.0448(3) 0.0806(3) 0.0480(12) Uani 1 1 d . . . . .
C109 C 0.1882(3) 0.0380(3) 0.0670(3) 0.0546(14) Uani 1 1 d . . . . .
H33 H 0.1578 0.0396 0.0270 0.066 Uiso 1 1 calc R U . . .
C110 C 0.1527(3) 0.0286(3) 0.1230(3) 0.0567(15) Uani 1 1 d . . . . .
H34 H 0.0921 0.0212 0.1268 0.068 Uiso 1 1 calc R U . . .
C111 C 0.2173(3) 0.0312(2) 0.1734(3) 0.0481(13) Uani 1 1 d . . . . .
C112 C 0.2145(3) 0.0465(3) 0.2433(3) 0.0515(14) Uani 1 1 d . . . . .
C113 C -0.2556(3) -0.2532(2) 0.0140(3) 0.0430(11) Uani 1 1 d . . . . .
C114 C -0.3199(4) -0.3037(3) 0.0330(3) 0.0523(13) Uani 1 1 d . . . . .
C115 C -0.4034(4) -0.3408(3) -0.0037(3) 0.0549(14) Uani 1 1 d . . . . .
C116 C -0.4260(3) -0.3284(3) -0.0626(3) 0.0483(12) Uani 1 1 d . . . . .
C117 C -0.3648(4) -0.2793(3) -0.0840(3) 0.0483(12) Uani 1 1 d . . . . .
C118 C -0.2814(3) -0.2420(3) -0.0461(3) 0.0475(12) Uani 1 1 d . . . . .
C119 C 0.2694(4) -0.1494(3) 0.2782(3) 0.0576(15) Uani 1 1 d . . . . .
C120 C 0.2551(4) -0.1042(4) 0.3369(3) 0.0672(17) Uani 1 1 d . . . . .
C121 C 0.1811(6) -0.1285(6) 0.3646(5) 0.095(3) Uani 1 1 d . . . . .
C122 C 0.1167(5) -0.1920(6) 0.3385(5) 0.095(3) Uani 1 1 d . . . . .
C123 C 0.1293(5) -0.2387(5) 0.2824(5) 0.084(2) Uani 1 1 d . . . . .
C124 C 0.2057(4) -0.2149(4) 0.2538(4) 0.0709(18) Uani 1 1 d . . . . .
C125 C 0.8192(3) 0.1155(3) 0.1606(3) 0.0463(12) Uani 1 1 d . . . . .
C126 C 0.8586(3) 0.0716(3) 0.1243(3) 0.0510(13) Uani 1 1 d . . . . .
C127 C 0.9428(4) 0.0979(3) 0.1093(3) 0.0578(15) Uani 1 1 d . . . . .
C128 C 0.9901(4) 0.1705(3) 0.1319(3) 0.0560(14) Uani 1 1 d . . . . .
C129 C 0.9522(4) 0.2143(3) 0.1655(3) 0.0531(13) Uani 1 1 d . . . . .
C130 C 0.8680(3) 0.1874(3) 0.1801(3) 0.0496(12) Uani 1 1 d . . . . .
C131 C 0.2900(4) 0.1035(3) 0.2923(4) 0.0594(16) Uani 1 1 d . . . . .
C132 C 0.3416(4) 0.1634(3) 0.2754(4) 0.070(2) Uani 1 1 d . . . . .
C133 C 0.4093(4) 0.2182(3) 0.3218(5) 0.084(3) Uani 1 1 d . . . . .
C134 C 0.4265(5) 0.2158(4) 0.3861(6) 0.092(3) Uani 1 1 d . . . . .
C135 C 0.3759(6) 0.1597(4) 0.4048(4) 0.086(2) Uani 1 1 d . . . . .
C136 C 0.3082(4) 0.1047(3) 0.3586(4) 0.0695(18) Uani 1 1 d . . . . .
F21 F -0.2990(2) -0.3182(2) 0.09029(19) 0.0741(11) Uani 1 1 d . . . . .
F22 F -0.4642(2) -0.3898(2) 0.0166(2) 0.0794(12) Uani 1 1 d . . . . .
F23 F -0.5074(2) -0.36554(17) -0.09964(17) 0.0566(8) Uani 1 1 d . . . . .
F24 F -0.3873(2) -0.2677(2) -0.14226(19) 0.0705(10) Uani 1 1 d . . . . .
F25 F -0.2236(2) -0.19344(18) -0.06809(19) 0.0638(9) Uani 1 1 d . . . . .
F26 F 0.3167(3) -0.0429(2) 0.3673(2) 0.0861(12) Uani 1 1 d . . . . .
F27 F 0.1719(4) -0.0860(4) 0.4207(3) 0.125(2) Uani 1 1 d . . . . .
F28 F 0.0448(3) -0.2134(4) 0.3637(3) 0.132(2) Uani 1 1 d . . . . .
F29 F 0.0701(3) -0.3032(3) 0.2559(3) 0.117(2) Uani 1 1 d . . . . .
F30 F 0.2160(3) -0.26051(19) 0.2005(2) 0.0787(11) Uani 1 1 d . . . . .
F31 F 0.8149(2) 0.00178(17) 0.10270(18) 0.0613(9) Uani 1 1 d . . . . .
F32 F 0.9788(2) 0.05445(19) 0.07434(19) 0.0653(9) Uani 1 1 d . . . . .
F33 F 1.0746(2) 0.1955(2) 0.1220(2) 0.0682(10) Uani 1 1 d . . . . .
F34 F 0.9979(2) 0.28512(17) 0.18598(18) 0.0624(9) Uani 1 1 d . . . . .
F35 F 0.8337(2) 0.23250(16) 0.21599(17) 0.0588(8) Uani 1 1 d . . . . .
F36 F 0.3264(3) 0.17164(17) 0.2151(2) 0.0776(12) Uani 1 1 d . . . . .
F37 F 0.4578(3) 0.27460(19) 0.3033(3) 0.116(2) Uani 1 1 d . . . . .
F38 F 0.4924(3) 0.2682(2) 0.4304(3) 0.128(2) Uani 1 1 d . . . . .
F39 F 0.3886(4) 0.1566(3) 0.4675(3) 0.124(2) Uani 1 1 d . . . . .
F40 F 0.2586(3) 0.0527(2) 0.3813(2) 0.0812(11) Uani 1 1 d . . . . .
N13 N 0.0597(3) -0.0369(2) 0.2247(2) 0.0492(11) Uani 1 1 d . . . . .
N14 N -0.0802(3) -0.1223(2) 0.1541(2) 0.0458(10) Uani 1 1 d . . . . .
N15 N -0.0043(3) -0.1897(2) 0.0709(2) 0.0424(9) Uani 1 1 d . . . . .
N16 N 0.1481(3) -0.1227(2) 0.1659(2) 0.0432(9) Uani 1 1 d . . . . .
H35 H 0.1806 -0.0992 0.2053 0.052 Uiso 1 1 calc R U . . .
N17 N 0.1821(3) -0.2835(3) -0.0991(3) 0.0600(12) Uani 1 1 d . . . . .
N18 N 0.2694(3) -0.1596(2) 0.1308(2) 0.0421(9) Uani 1 1 d . . . . .
N19 N 0.5055(3) -0.0425(2) 0.2761(2) 0.0404(9) Uani 1 1 d . . . . .
N20 N 0.6447(3) 0.0275(2) 0.2496(2) 0.0404(9) Uani 1 1 d . . . . .
N21 N 0.5682(3) 0.0583(2) 0.1507(2) 0.0406(9) Uani 1 1 d . . . . .
N22 N 0.4160(3) 0.0197(2) 0.2048(2) 0.0426(9) Uani 1 1 d . . . . .
H36 H 0.3834 0.0107 0.2354 0.051 Uiso 1 1 calc R U . . .
N23 N 0.3862(3) 0.0972(3) -0.0504(3) 0.0717(15) Uani 1 1 d . . . . .
N24 N 0.2950(3) 0.0377(2) 0.1439(2) 0.0442(10) Uani 1 1 d . . . . .
Ni3 Ni 0.03430(4) -0.11790(3) 0.15098(3) 0.04205(18) Uani 1 1 d . . . . .
Ni4 Ni 0.52989(4) 0.01414(3) 0.21636(3) 0.03840(17) Uani 1 1 d . . . . .
C137 C 0.2214(16) 1.1294(12) 0.5904(14) 0.161(8) Uani 0.5 1 d D U P A -1
H37 H 0.2378 1.1065 0.6227 0.241 Uiso 0.5 1 calc R U P A -1
H38 H 0.2428 1.1807 0.6104 0.241 Uiso 0.5 1 calc R U P A -1
H39 H 0.2488 1.1188 0.5512 0.241 Uiso 0.5 1 calc R U P A -1
C138 C 0.1238(17) 1.1027(16) 0.5708(17) 0.195(9) Uani 0.5 1 d D U P A -1
H40 H 0.1069 1.1357 0.5499 0.233 Uiso 0.5 1 calc R U P A -1
H41 H 0.0965 1.1025 0.6112 0.233 Uiso 0.5 1 calc R U P A -1
C139 C 0.0852(18) 1.0290(16) 0.523(2) 0.210(9) Uani 0.5 1 d D U P A -1
H42 H 0.1026 0.9956 0.5434 0.251 Uiso 0.5 1 calc R U P A -1
H43 H 0.1108 1.0290 0.4819 0.251 Uiso 0.5 1 calc R U P A -1
C140 C -0.0161(18) 1.0035(19) 0.506(3) 0.218(9) Uani 0.5 1 d D U P A -1
H44 H -0.0397 1.0134 0.5476 0.262 Uiso 0.5 1 calc R U P A -1
H45 H -0.0319 1.0322 0.4786 0.262 Uiso 0.5 1 calc R U P A -1
C141 C -0.064(2) 0.9258(17) 0.469(2) 0.228(10) Uani 0.5 1 d D U P A -1
H46 H -0.0565 0.9181 0.4218 0.273 Uiso 0.5 1 calc R U P A -1
H47 H -0.0367 0.8967 0.4882 0.273 Uiso 0.5 1 calc R U P A -1
C142 C -0.162(2) 0.903(2) 0.473(3) 0.265(15) Uani 0.5 1 d D U P A -1
H48 H -0.1700 0.9100 0.5193 0.398 Uiso 0.5 1 calc . U P B -1
H49 H -0.1912 0.8522 0.4490 0.398 Uiso 0.5 1 calc . U P C -1
H50 H -0.1900 0.9303 0.4523 0.398 Uiso 0.5 1 calc . U P D -1
loop_
_atom_site_aniso_label
_atom_site_aniso_U_11
_atom_site_aniso_U_22
_atom_site_aniso_U_33
_atom_site_aniso_U_23
_atom_site_aniso_U_13
_atom_site_aniso_U_12
C1 0.025(3) 0.046(3) 0.049(3) 0.002(2) 0.002(2) 0.0112(19)
C2 0.030(3) 0.061(3) 0.050(3) -0.004(2) 0.005(3) 0.017(2)
C3 0.032(3) 0.062(3) 0.059(3) -0.008(3) 0.010(3) 0.018(2)
C4 0.025(3) 0.057(3) 0.052(3) 0.004(2) 0.006(2) 0.010(2)
C5 0.029(3) 0.055(3) 0.054(3) 0.004(2) 0.006(3) 0.012(2)
C6 0.023(3) 0.070(3) 0.057(3) 0.006(3) 0.006(3) 0.015(2)
C7 0.023(3) 0.062(3) 0.058(3) 0.012(3) 0.002(3) 0.011(2)
C8 0.028(3) 0.051(3) 0.050(3) 0.006(2) 0.005(2) 0.006(2)
C9 0.027(3) 0.048(3) 0.044(3) 0.008(2) 0.000(2) 0.006(2)
C10 0.026(3) 0.048(3) 0.048(3) 0.009(2) 0.004(2) 0.0063(19)
C11 0.030(3) 0.045(3) 0.049(3) 0.004(2) -0.002(2) 0.004(2)
C12 0.037(3) 0.046(3) 0.051(3) 0.002(2) 0.007(3) 0.013(2)
C13 0.025(2) 0.045(2) 0.050(3) 0.010(2) 0.005(2) 0.0088(19)
C14 0.024(2) 0.044(2) 0.049(3) 0.007(2) 0.004(2) 0.0083(19)
C15 0.025(2) 0.044(2) 0.050(3) 0.011(2) 0.008(2) 0.0063(19)
C16 0.028(3) 0.046(3) 0.050(3) 0.005(2) 0.006(2) 0.011(2)
C17 0.030(3) 0.041(2) 0.064(3) -0.004(2) 0.003(3) 0.010(2)
C18 0.029(3) 0.041(2) 0.056(3) 0.003(2) 0.007(2) 0.0093(19)
C19 0.029(3) 0.047(3) 0.067(3) 0.006(2) 0.007(3) 0.013(2)
C20 0.022(2) 0.044(3) 0.062(3) 0.006(2) -0.001(2) 0.0050(19)
C21 0.025(2) 0.039(2) 0.052(3) 0.008(2) 0.001(2) 0.0072(18)
C22 0.022(2) 0.046(3) 0.053(3) 0.014(2) 0.001(2) 0.0051(19)
C23 0.029(3) 0.045(3) 0.051(3) 0.012(2) 0.001(2) 0.007(2)
C24 0.030(3) 0.064(3) 0.056(3) 0.021(3) 0.000(3) 0.002(2)
C25 0.033(3) 0.063(3) 0.061(3) 0.023(3) 0.003(3) 0.003(2)
C26 0.029(3) 0.051(3) 0.051(3) 0.009(2) -0.001(3) 0.006(2)
C27 0.030(3) 0.046(3) 0.049(3) 0.006(2) 0.002(2) 0.005(2)
C28 0.031(3) 0.052(3) 0.047(3) 0.002(2) -0.002(2) 0.005(2)
C29 0.020(2) 0.049(3) 0.051(3) 0.005(2) -0.002(2) 0.0012(19)
C30 0.027(3) 0.039(2) 0.052(3) 0.003(2) 0.005(2) 0.0070(18)
C31 0.025(3) 0.040(2) 0.054(3) 0.005(2) 0.007(2) 0.0078(19)
C32 0.023(3) 0.044(2) 0.047(3) 0.009(2) 0.005(2) 0.0070(18)
C33 0.029(3) 0.052(3) 0.055(3) 0.012(2) 0.011(3) 0.012(2)
C34 0.027(3) 0.053(3) 0.051(3) 0.009(2) 0.009(2) 0.009(2)
C35 0.026(2) 0.043(2) 0.045(3) 0.005(2) 0.005(2) 0.0106(19)
C36 0.026(2) 0.041(2) 0.042(2) 0.0047(19) 0.006(2) 0.0102(18)
C37 0.022(2) 0.037(2) 0.050(3) 0.003(2) 0.005(2) 0.0078(17)
C38 0.025(3) 0.049(3) 0.046(3) 0.006(2) 0.006(2) 0.0107(19)
C39 0.023(3) 0.050(3) 0.054(3) 0.009(2) 0.005(2) 0.010(2)
C40 0.027(3) 0.046(2) 0.044(3) 0.005(2) 0.004(2) 0.0118(19)
C41 0.027(3) 0.046(3) 0.053(3) 0.003(2) 0.004(2) 0.015(2)
C42 0.025(3) 0.049(3) 0.049(3) 0.003(2) 0.004(2) 0.014(2)
C43 0.021(2) 0.039(2) 0.047(3) 0.0010(19) 0.004(2) 0.0088(17)
C44 0.028(3) 0.042(2) 0.049(3) 0.001(2) 0.004(2) 0.0140(19)
C45 0.024(3) 0.054(3) 0.049(3) 0.003(2) -0.003(2) 0.009(2)
C46 0.030(3) 0.071(4) 0.044(3) 0.008(3) -0.002(3) 0.008(2)
C47 0.027(3) 0.069(3) 0.056(3) 0.004(3) 0.004(3) 0.004(2)
C48 0.029(3) 0.057(3) 0.057(3) -0.015(3) -0.014(3) 0.015(2)
C49 0.055(4) 0.049(3) 0.050(3) 0.001(2) -0.012(3) 0.021(3)
C50 0.038(3) 0.047(3) 0.052(3) 0.005(2) 0.000(3) 0.014(2)
C51 0.026(3) 0.054(3) 0.056(3) 0.017(2) 0.004(2) 0.007(2)
C52 0.045(3) 0.064(3) 0.059(3) 0.019(3) 0.009(3) 0.018(3)
C53 0.050(4) 0.088(4) 0.071(4) 0.035(4) 0.019(3) 0.030(3)
C54 0.049(4) 0.097(5) 0.083(5) 0.050(4) 0.028(4) 0.034(4)
C55 0.028(3) 0.073(4) 0.084(4) 0.040(3) -0.005(3) 0.000(3)
C56 0.033(3) 0.052(3) 0.057(3) 0.015(2) 0.000(3) 0.005(2)
C57 0.021(3) 0.056(3) 0.055(3) 0.013(2) 0.005(2) 0.010(2)
C58 0.036(3) 0.071(4) 0.048(3) 0.010(3) 0.007(3) 0.016(3)
C59 0.033(3) 0.114(5) 0.055(3) 0.024(3) 0.016(3) 0.031(3)
C60 0.023(3) 0.108(5) 0.070(4) 0.042(4) 0.003(3) 0.004(3)
C61 0.031(3) 0.070(4) 0.095(5) 0.036(4) -0.006(4) -0.003(3)
C62 0.032(3) 0.056(3) 0.074(4) 0.023(3) -0.001(3) 0.005(2)
C63 0.024(2) 0.045(2) 0.050(3) 0.000(2) 0.004(2) 0.0128(19)
C64 0.031(3) 0.047(3) 0.050(3) 0.004(2) 0.003(2) 0.016(2)
C65 0.031(3) 0.044(3) 0.059(3) 0.000(2) 0.001(3) 0.012(2)
C66 0.032(3) 0.050(3) 0.057(3) -0.008(2) -0.001(3) 0.017(2)
C67 0.038(3) 0.063(3) 0.044(3) 0.001(2) 0.005(3) 0.024(2)
C68 0.026(3) 0.052(3) 0.051(3) 0.002(2) 0.005(2) 0.014(2)
F1 0.041(2) 0.099(3) 0.0521(19) 0.0212(18) 0.0004(17) -0.0133(17)
F2 0.038(2) 0.093(3) 0.070(2) 0.005(2) 0.0079(19) -0.0168(17)
F3 0.0368(18) 0.0626(19) 0.072(2) -0.0167(16) -0.0177(17) 0.0154(14)
F4 0.093(3) 0.0554(19) 0.059(2) 0.0049(16) -0.027(2) 0.0126(19)
F5 0.060(2) 0.0571(18) 0.0581(19) 0.0175(15) -0.0022(17) 0.0099(16)
F6 0.052(2) 0.064(2) 0.0602(19) 0.0088(16) 0.0036(17) 0.0174(16)
F7 0.105(4) 0.118(3) 0.079(3) 0.036(2) 0.049(3) 0.060(3)
F8 0.049(2) 0.133(4) 0.128(4) 0.084(3) 0.043(3) 0.031(2)
F9 0.0365(19) 0.075(2) 0.107(3) 0.046(2) 0.001(2) -0.0061(16)
F10 0.048(2) 0.0485(17) 0.072(2) 0.0149(15) 0.0017(17) -0.0011(14)
F11 0.049(2) 0.073(2) 0.069(2) -0.0044(17) 0.0118(18) 0.0256(17)
F12 0.051(2) 0.158(4) 0.074(3) 0.029(3) 0.027(2) 0.053(3)
F13 0.0222(19) 0.166(4) 0.103(3) 0.079(3) 0.006(2) 0.003(2)
F14 0.047(2) 0.077(3) 0.139(4) 0.050(3) -0.020(3) -0.0170(19)
F15 0.0425(19) 0.0533(18) 0.090(3) 0.0046(17) -0.0045(19) 0.0100(14)
F16 0.0415(18) 0.0484(16) 0.0533(17) 0.0077(13) 0.0016(15) 0.0087(13)
F17 0.0412(18) 0.0446(16) 0.070(2) 0.0044(14) -0.0018(17) 0.0042(13)
F18 0.0428(19) 0.0583(18) 0.0572(18) -0.0140(14) -0.0133(16) 0.0176(14)
F19 0.051(2) 0.082(2) 0.0447(16) 0.0049(15) 0.0050(16) 0.0263(17)
F20 0.0345(17) 0.0658(19) 0.0583(18) 0.0160(15) 0.0106(15) 0.0142(14)
N1 0.023(2) 0.052(2) 0.050(2) 0.0038(19) 0.007(2) 0.0124(17)
N2 0.029(2) 0.051(2) 0.051(2) 0.0055(19) 0.009(2) 0.0101(18)
N3 0.022(2) 0.048(2) 0.046(2) 0.0054(18) 0.0000(19) 0.0073(16)
N4 0.029(2) 0.044(2) 0.047(2) 0.0015(17) 0.004(2) 0.0100(16)
N5 0.034(3) 0.053(3) 0.075(3) -0.012(2) 0.001(3) 0.013(2)
N6 0.023(2) 0.043(2) 0.050(2) 0.0041(18) 0.0051(19) 0.0112(16)
N7 0.024(2) 0.045(2) 0.048(2) 0.0108(18) -0.001(2) 0.0054(16)
N8 0.023(2) 0.044(2) 0.043(2) 0.0035(17) 0.0003(19) 0.0047(16)
N9 0.022(2) 0.044(2) 0.044(2) 0.0050(17) 0.0035(18) 0.0083(15)
N10 0.024(2) 0.042(2) 0.041(2) 0.0064(16) 0.0069(18) 0.0082(15)
N11 0.033(3) 0.068(3) 0.054(3) 0.017(2) 0.009(2) 0.016(2)
N12 0.023(2) 0.044(2) 0.042(2) 0.0032(17) 0.0032(18) 0.0109(15)
Ni1 0.0207(3) 0.0446(3) 0.0459(4) 0.0020(3) 0.0032(3) 0.0077(2)
Ni2 0.0215(3) 0.0399(3) 0.0442(3) 0.0054(2) 0.0038(3) 0.0063(2)
C69 0.028(3) 0.042(3) 0.072(4) -0.004(2) 0.009(3) 0.007(2)
C70 0.038(3) 0.050(3) 0.074(4) -0.009(3) 0.011(3) 0.011(2)
C71 0.036(3) 0.049(3) 0.078(4) -0.012(3) 0.016(3) 0.010(2)
C72 0.023(3) 0.049(3) 0.069(4) -0.001(2) 0.009(3) 0.008(2)
C73 0.031(3) 0.042(3) 0.065(3) -0.003(2) 0.013(3) 0.008(2)
C74 0.028(3) 0.055(3) 0.075(4) 0.000(3) 0.017(3) 0.009(2)
C75 0.027(3) 0.053(3) 0.084(4) 0.011(3) 0.020(3) 0.008(2)
C76 0.027(3) 0.041(2) 0.069(3) 0.008(2) 0.008(3) 0.008(2)
C77 0.023(2) 0.042(2) 0.060(3) 0.013(2) 0.006(2) 0.0043(19)
C78 0.022(2) 0.042(2) 0.057(3) 0.005(2) 0.004(2) 0.0074(18)
C79 0.028(3) 0.050(3) 0.057(3) 0.008(2) 0.002(3) 0.009(2)
C80 0.033(3) 0.051(3) 0.053(3) 0.002(2) 0.004(3) 0.015(2)
C81 0.028(3) 0.040(2) 0.054(3) 0.008(2) 0.009(2) 0.0081(19)
C82 0.029(3) 0.038(2) 0.053(3) 0.006(2) 0.011(2) 0.0102(18)
C83 0.025(2) 0.036(2) 0.053(3) 0.009(2) 0.008(2) 0.0065(18)
C84 0.032(3) 0.042(2) 0.052(3) 0.005(2) 0.008(2) 0.013(2)
C85 0.030(3) 0.050(3) 0.055(3) 0.003(2) 0.005(3) 0.015(2)
C86 0.032(3) 0.041(2) 0.050(3) 0.005(2) 0.009(2) 0.0107(19)
C87 0.027(3) 0.042(2) 0.060(3) 0.004(2) 0.012(2) 0.0092(19)
C88 0.026(2) 0.037(2) 0.055(3) -0.004(2) 0.004(2) 0.0077(18)
C89 0.021(2) 0.038(2) 0.058(3) 0.007(2) 0.004(2) 0.0022(18)
C90 0.027(3) 0.047(3) 0.058(3) 0.015(2) 0.012(2) 0.010(2)
C91 0.034(3) 0.047(3) 0.051(3) 0.008(2) 0.010(3) 0.010(2)
C92 0.038(3) 0.063(3) 0.055(3) 0.020(3) 0.010(3) 0.008(2)
C93 0.038(3) 0.066(3) 0.054(3) 0.018(3) 0.007(3) 0.012(2)
C94 0.038(3) 0.048(3) 0.051(3) 0.006(2) 0.008(3) 0.011(2)
C95 0.028(3) 0.047(3) 0.048(3) 0.005(2) 0.002(2) 0.008(2)
C96 0.033(3) 0.052(3) 0.051(3) 0.004(2) 0.000(3) 0.010(2)
C97 0.023(3) 0.053(3) 0.053(3) 0.002(2) -0.001(2) 0.005(2)
C98 0.026(3) 0.047(3) 0.059(3) 0.010(2) 0.005(3) 0.008(2)
C99 0.023(3) 0.048(3) 0.058(3) 0.011(2) 0.004(2) 0.0076(19)
C100 0.026(3) 0.047(3) 0.056(3) 0.011(2) 0.009(3) 0.0044(19)
C101 0.028(3) 0.055(3) 0.058(3) 0.014(2) 0.009(3) 0.006(2)
C102 0.031(3) 0.046(3) 0.054(3) 0.011(2) 0.002(2) 0.009(2)
C103 0.025(2) 0.041(2) 0.052(3) 0.005(2) 0.004(2) 0.0080(18)
C104 0.028(3) 0.038(2) 0.055(3) 0.009(2) 0.003(2) 0.0108(19)
C105 0.026(2) 0.031(2) 0.062(3) 0.003(2) 0.008(2) 0.0073(18)
C106 0.028(3) 0.043(3) 0.067(3) 0.011(2) 0.001(3) 0.007(2)
C107 0.024(3) 0.058(3) 0.071(4) 0.022(3) -0.006(3) 0.008(2)
C108 0.027(3) 0.043(3) 0.069(3) 0.008(2) 0.001(3) 0.013(2)
C109 0.027(3) 0.045(3) 0.086(4) 0.018(3) 0.001(3) 0.007(2)
C110 0.024(3) 0.044(3) 0.097(5) 0.016(3) 0.006(3) 0.009(2)
C111 0.022(3) 0.038(2) 0.077(4) 0.007(2) 0.008(3) 0.0070(18)
C112 0.028(3) 0.038(2) 0.078(4) 0.000(2) 0.008(3) 0.0091(19)
C113 0.026(3) 0.041(2) 0.057(3) 0.012(2) 0.003(2) 0.0069(19)
C114 0.029(3) 0.065(3) 0.056(3) 0.027(3) -0.006(3) 0.003(2)
C115 0.033(3) 0.056(3) 0.070(4) 0.029(3) 0.006(3) 0.001(2)
C116 0.025(3) 0.053(3) 0.062(3) 0.015(2) -0.003(3) 0.010(2)
C117 0.034(3) 0.059(3) 0.058(3) 0.023(3) 0.006(3) 0.021(2)
C118 0.027(3) 0.046(3) 0.068(3) 0.019(2) 0.008(3) 0.009(2)
C119 0.029(3) 0.073(4) 0.075(4) 0.034(3) 0.010(3) 0.014(3)
C120 0.043(4) 0.100(5) 0.069(4) 0.034(4) 0.025(3) 0.029(3)
C121 0.081(6) 0.151(8) 0.099(6) 0.065(6) 0.051(5) 0.073(6)
C122 0.035(4) 0.142(8) 0.125(7) 0.091(7) 0.006(5) 0.016(4)
C123 0.038(4) 0.102(6) 0.111(6) 0.059(5) -0.004(4) 0.007(4)
C124 0.041(4) 0.080(4) 0.078(4) 0.032(4) -0.004(4) -0.001(3)
C125 0.023(3) 0.055(3) 0.054(3) 0.011(2) 0.003(2) 0.008(2)
C126 0.027(3) 0.058(3) 0.063(3) 0.016(3) 0.004(3) 0.009(2)
C127 0.031(3) 0.077(4) 0.075(4) 0.030(3) 0.018(3) 0.023(3)
C128 0.026(3) 0.070(4) 0.076(4) 0.031(3) 0.013(3) 0.012(2)
C129 0.029(3) 0.054(3) 0.065(3) 0.014(3) 0.004(3) 0.001(2)
C130 0.026(3) 0.055(3) 0.062(3) 0.014(3) 0.006(3) 0.008(2)
C131 0.028(3) 0.050(3) 0.087(5) -0.004(3) 0.013(3) 0.013(2)
C132 0.032(3) 0.040(3) 0.117(6) -0.011(3) 0.024(4) 0.006(2)
C133 0.034(3) 0.044(3) 0.147(8) -0.015(4) 0.027(5) 0.006(3)
C134 0.034(4) 0.062(4) 0.140(8) -0.037(5) -0.018(5) 0.019(3)
C135 0.070(5) 0.079(5) 0.092(6) -0.024(4) -0.013(5) 0.044(4)
C136 0.046(4) 0.060(4) 0.092(5) -0.005(3) 0.004(4) 0.025(3)
F21 0.040(2) 0.087(2) 0.077(2) 0.045(2) -0.0124(19) -0.0125(17)
F22 0.038(2) 0.091(3) 0.089(3) 0.049(2) -0.009(2) -0.0171(17)
F23 0.0305(17) 0.0632(19) 0.0661(19) 0.0154(16) -0.0087(16) 0.0096(13)
F24 0.048(2) 0.094(3) 0.073(2) 0.042(2) 0.0017(19) 0.0186(18)
F25 0.0409(19) 0.070(2) 0.085(2) 0.0400(19) 0.0169(18) 0.0109(15)
F26 0.090(3) 0.082(3) 0.093(3) 0.016(2) 0.035(3) 0.040(2)
F27 0.132(5) 0.188(6) 0.122(4) 0.076(4) 0.084(4) 0.107(4)
F28 0.063(3) 0.229(7) 0.168(5) 0.145(5) 0.062(4) 0.062(4)
F29 0.056(3) 0.117(4) 0.162(5) 0.086(4) -0.013(3) -0.018(2)
F30 0.066(3) 0.057(2) 0.088(3) 0.023(2) -0.010(2) -0.0081(17)
F31 0.0412(18) 0.0557(18) 0.082(2) 0.0144(16) 0.0173(18) 0.0121(14)
F32 0.0420(19) 0.080(2) 0.086(2) 0.0271(19) 0.0241(19) 0.0313(16)
F33 0.0272(17) 0.087(2) 0.099(3) 0.042(2) 0.0216(19) 0.0161(15)
F34 0.0311(17) 0.0622(19) 0.080(2) 0.0172(17) 0.0059(17) 0.0007(14)
F35 0.0378(18) 0.0560(18) 0.072(2) 0.0095(15) 0.0135(17) 0.0067(13)
F36 0.070(3) 0.0410(17) 0.111(3) 0.0053(19) 0.047(3) 0.0099(16)
F37 0.060(3) 0.046(2) 0.200(5) -0.023(3) 0.055(3) -0.0057(17)
F38 0.055(3) 0.073(3) 0.193(6) -0.060(3) -0.040(3) 0.022(2)
F39 0.119(5) 0.114(4) 0.109(4) -0.034(3) -0.051(4) 0.067(3)
F40 0.082(3) 0.072(2) 0.087(3) 0.010(2) 0.002(2) 0.035(2)
N13 0.028(2) 0.043(2) 0.064(3) -0.0017(19) 0.007(2) 0.0078(17)
N14 0.028(2) 0.041(2) 0.061(3) 0.0060(19) 0.010(2) 0.0077(16)
N15 0.024(2) 0.041(2) 0.056(2) 0.0059(18) 0.010(2) 0.0080(16)
N16 0.030(2) 0.038(2) 0.052(2) 0.0004(17) 0.007(2) 0.0065(16)
N17 0.036(3) 0.075(3) 0.061(3) 0.000(3) 0.003(2) 0.023(2)
N18 0.027(2) 0.042(2) 0.051(2) 0.0049(18) 0.008(2) 0.0083(16)
N19 0.025(2) 0.042(2) 0.046(2) 0.0056(17) 0.003(2) 0.0066(16)
N20 0.022(2) 0.042(2) 0.050(2) 0.0084(17) 0.0026(19) 0.0071(16)
N21 0.020(2) 0.043(2) 0.051(2) 0.0066(17) 0.0040(19) 0.0064(15)
N22 0.030(2) 0.041(2) 0.051(2) 0.0062(18) 0.008(2) 0.0090(16)
N23 0.039(3) 0.082(4) 0.093(4) 0.043(3) -0.005(3) 0.009(3)
N24 0.020(2) 0.044(2) 0.064(3) 0.0075(19) 0.003(2) 0.0110(16)
Ni3 0.0228(3) 0.0375(3) 0.0564(4) 0.0012(3) 0.0080(3) 0.0063(2)
Ni4 0.0208(3) 0.0394(3) 0.0468(3) 0.0042(3) 0.0045(3) 0.0057(2)
C137 0.204(18) 0.153(14) 0.189(16) 0.076(13) 0.052(15) 0.123(13)
C138 0.213(14) 0.191(13) 0.198(13) 0.070(11) 0.055(11) 0.079(11)
C139 0.221(14) 0.205(12) 0.212(12) 0.068(10) 0.047(11) 0.078(10)
C140 0.228(14) 0.214(13) 0.221(13) 0.069(10) 0.038(11) 0.082(10)
C141 0.235(15) 0.217(14) 0.236(14) 0.068(12) 0.032(12) 0.085(11)
C142 0.25(2) 0.23(2) 0.28(2) 0.062(19) 0.020(19) 0.073(18)
loop_
_atom_type_symbol
_atom_type_description
_atom_type_scat_dispersion_real
_atom_type_scat_dispersion_imag
_atom_type_scat_source
C C 0.0030 0.0020 'International Tables Vol C Tables 4.2.6.8 and 6.1.1.4'
F F 0.0170 0.0100 'International Tables Vol C Tables 4.2.6.8 and 6.1.1.4'
N N 0.0060 0.0030 'International Tables Vol C Tables 4.2.6.8 and 6.1.1.4'
Ni Ni 0.3580 1.0940 'International Tables Vol C Tables 4.2.6.8 and 6.1.1.4'
H H 0.0000 0.0000 'International Tables Vol C Tables 4.2.6.8 and 6.1.1.4'
loop_
_geom_angle_atom_site_label_1
_geom_angle_atom_site_label_2
_geom_angle_atom_site_label_3
_geom_angle
N1 C1 C44 124.3(4)
N1 C1 C2 108.5(4)
C44 C1 C2 126.5(4)
C3 C2 C1 107.6(5)
C3 C2 H1 126.2
C1 C2 H1 126.2
C2 C3 C4 106.9(4)
C2 C3 H2 126.6
C4 C3 H2 126.6
N1 C4 C5 113.9(5)
N1 C4 C3 108.9(4)
C5 C4 C3 137.2(5)
N2 C5 C4 112.1(4)
N2 C5 C6 109.1(5)
C4 C5 C6 138.6(5)
C7 C6 C5 106.9(5)
C7 C6 H3 126.5
C5 C6 H3 126.5
C6 C7 C8 107.8(5)
C6 C7 H4 126.1
C8 C7 H4 126.1
N2 C8 C9 120.3(4)
N2 C8 C7 107.7(5)
C9 C8 C7 132.0(5)
C10 C9 C8 121.8(5)
C10 C9 C45 119.8(5)
C8 C9 C45 118.4(4)
N3 C10 C9 125.0(5)
N3 C10 C11 108.9(4)
C9 C10 C11 126.0(5)
C12 C11 C10 107.7(4)
C12 C11 H5 126.2
C10 C11 H5 126.2
C11 C12 C13 107.2(4)
C11 C12 H6 126.4
C13 C12 H6 126.4
N3 C13 C14 121.9(5)
N3 C13 C12 110.0(4)
C14 C13 C12 128.1(5)
C13 C14 C16 129.9(5)
C13 C14 C15 122.7(4)
C16 C14 C15 107.1(4)
N4 C15 N6 128.8(5)
N4 C15 C14 125.0(5)
N6 C15 C14 106.0(4)
C17 C16 C18 125.3(5)
C17 C16 C14 126.5(5)
C18 C16 C14 108.1(4)
N5 C17 C16 177.9(6)
N6 C18 C19 107.9(4)
N6 C18 C16 108.2(4)
C19 C18 C16 143.8(5)
C20 C19 C18 107.8(5)
C20 C19 H7 126.1
C18 C19 H7 126.1
C19 C20 C21 109.7(5)
C19 C20 H8 125.2
C21 C20 H8 125.2
N6 C21 C22 127.7(4)
N6 C21 C20 104.6(4)
C22 C21 C20 125.8(5)
C23 C22 C21 118.3(4)
C23 C22 C51 118.0(5)
C21 C22 C51 122.9(5)
N7 C23 C22 124.9(5)
N7 C23 C24 108.1(5)
C22 C23 C24 126.1(4)
C25 C24 C23 108.3(5)
C25 C24 H9 125.8
C23 C24 H9 125.8
C24 C25 C26 104.7(5)
C24 C25 H10 127.7
C26 C25 H10 127.7
N7 C26 C25 111.7(4)
N7 C26 C27 113.2(5)
C25 C26 C27 135.0(5)
N8 C27 C26 111.3(5)
N8 C27 C28 109.9(4)
C26 C27 C28 138.7(5)
C29 C28 C27 106.1(5)
C29 C28 H11 126.9
C27 C28 H11 126.9
C28 C29 C30 108.3(4)
C28 C29 H12 125.8
C30 C29 H12 125.8
N8 C30 C31 118.9(5)
N8 C30 C29 108.1(4)
C31 C30 C29 132.9(4)
C30 C31 C32 123.2(4)
C30 C31 C57 118.0(5)
C32 C31 C57 118.8(5)
C31 C32 N9 124.5(4)
C31 C32 C33 127.0(4)
N9 C32 C33 108.5(4)
C34 C33 C32 108.2(4)
C34 C33 H13 125.9
C32 C33 H13 125.9
C33 C34 C35 107.2(5)
C33 C34 H14 126.4
C35 C34 H14 126.4
N9 C35 C36 121.9(4)
N9 C35 C34 109.6(4)
C36 C35 C34 128.3(5)
C35 C36 C38 129.8(4)
C35 C36 C37 122.6(4)
C38 C36 C37 107.2(4)
N10 C37 N12 129.2(4)
N10 C37 C36 124.6(4)
N12 C37 C36 106.2(4)
C40 C38 C36 108.3(4)
C40 C38 C39 124.7(5)
C36 C38 C39 126.9(4)
N11 C39 C38 176.3(6)
C41 C40 N12 107.5(4)
C41 C40 C38 144.7(5)
N12 C40 C38 107.8(4)
C42 C41 C40 107.3(5)
C42 C41 H15 126.3
C40 C41 H15 126.3
C41 C42 C43 111.2(4)
C41 C42 H16 124.4
C43 C42 H16 124.4
N12 C43 C44 127.1(5)
N12 C43 C42 104.3(4)
C44 C43 C42 127.1(4)
C43 C44 C1 118.0(5)
C43 C44 C63 123.4(4)
C1 C44 C63 117.6(4)
C50 C45 C46 115.9(5)
C50 C45 C9 122.0(5)
C46 C45 C9 122.1(5)
F1 C46 C47 118.4(5)
F1 C46 C45 118.2(5)
C47 C46 C45 123.4(5)
F2 C47 C46 121.3(5)
F2 C47 C48 119.6(5)
C46 C47 C48 119.1(5)
F3 C48 C49 120.2(6)
F3 C48 C47 119.4(6)
C49 C48 C47 120.4(5)
F4 C49 C48 120.5(5)
F4 C49 C50 119.6(5)
C48 C49 C50 119.9(5)
F5 C50 C45 120.1(5)
F5 C50 C49 118.7(5)
C45 C50 C49 121.2(5)
C56 C51 C52 114.4(5)
C56 C51 C22 124.3(5)
C52 C51 C22 121.1(5)
F6 C52 C53 115.6(6)
F6 C52 C51 120.4(5)
C53 C52 C51 124.0(6)
F7 C53 C52 121.4(7)
F7 C53 C54 119.7(6)
C52 C53 C54 118.9(6)
F8 C54 C55 121.4(7)
F8 C54 C53 119.6(7)
C55 C54 C53 119.0(5)
F9 C55 C54 120.2(5)
F9 C55 C56 119.0(6)
C54 C55 C56 120.8(6)
F10 C56 C55 117.4(5)
F10 C56 C51 119.8(5)
C55 C56 C51 122.8(6)
C62 C57 C58 116.5(5)
C62 C57 C31 121.7(5)
C58 C57 C31 121.8(5)
F11 C58 C59 119.7(5)
F11 C58 C57 118.3(5)
C59 C58 C57 122.0(6)
F12 C59 C60 120.9(6)
F12 C59 C58 119.5(7)
C60 C59 C58 119.6(6)
C61 C60 F13 120.1(7)
C61 C60 C59 120.3(5)
F13 C60 C59 119.6(7)
C60 C61 F14 120.4(6)
C60 C61 C62 120.8(6)
F14 C61 C62 118.8(7)
F15 C62 C61 119.3(6)
F15 C62 C57 119.8(5)
C61 C62 C57 120.9(6)
C64 C63 C68 114.3(5)
C64 C63 C44 124.4(5)
C68 C63 C44 121.2(4)
F16 C64 C65 117.4(5)
F16 C64 C63 118.8(5)
C65 C64 C63 123.7(5)
F17 C65 C64 121.5(5)
F17 C65 C66 118.9(5)
C64 C65 C66 119.6(5)
F18 C66 C67 120.3(5)
F18 C66 C65 120.3(5)
C67 C66 C65 119.4(5)
F19 C67 C66 119.2(5)
F19 C67 C68 120.3(5)
C66 C67 C68 120.5(5)
F20 C68 C67 117.7(5)
F20 C68 C63 119.8(5)
C67 C68 C63 122.5(5)
C1 N1 C4 108.0(4)
C1 N1 Ni1 139.2(3)
C4 N1 Ni1 112.5(3)
C5 N2 C8 108.5(4)
C5 N2 Ni1 116.7(4)
C8 N2 Ni1 134.3(4)
C13 N3 C10 106.2(4)
C13 N3 Ni1 126.0(3)
C10 N3 Ni1 127.8(3)
C15 N4 Ni1 125.9(4)
C15 N4 H17 117.1
Ni1 N4 H17 117.1
C18 N6 C21 109.6(4)
C18 N6 C15 109.7(4)
C21 N6 C15 140.6(4)
C26 N7 C23 107.1(4)
C26 N7 Ni2 114.3(3)
C23 N7 Ni2 138.6(4)
C27 N8 C30 107.5(4)
C27 N8 Ni2 117.6(3)
C30 N8 Ni2 134.2(4)
C35 N9 C32 106.4(4)
C35 N9 Ni2 125.6(3)
C32 N9 Ni2 127.3(3)
C37 N10 Ni2 126.7(3)
C37 N10 H18 116.6
Ni2 N10 H18 116.6
C37 N12 C40 110.0(4)
C37 N12 C43 140.5(4)
C40 N12 C43 109.4(4)
N2 Ni1 N3 90.36(18)
N2 Ni1 N4 164.59(19)
N3 Ni1 N4 94.90(18)
N2 Ni1 N1 82.53(18)
N3 Ni1 N1 168.33(19)
N4 Ni1 N1 94.35(18)
N8 Ni2 N9 90.28(18)
N8 Ni2 N10 165.99(17)
N9 Ni2 N10 94.28(17)
N8 Ni2 N7 82.06(17)
N9 Ni2 N7 166.64(17)
N10 Ni2 N7 95.74(17)
N13 C69 C112 124.1(5)
N13 C69 C70 108.2(4)
C112 C69 C70 126.3(5)
C71 C70 C69 107.1(5)
C71 C70 H19 126.5
C69 C70 H19 126.5
C70 C71 C72 107.3(5)
C70 C71 H20 126.3
C72 C71 H20 126.3
N13 C72 C73 113.5(5)
N13 C72 C71 109.7(5)
C73 C72 C71 136.6(5)
N14 C73 C72 112.6(4)
N14 C73 C74 109.0(5)
C72 C73 C74 137.9(5)
C75 C74 C73 106.4(5)
C75 C74 H21 126.8
C73 C74 H21 126.8
C74 C75 C76 107.9(5)
C74 C75 H22 126.0
C76 C75 H22 126.0
N14 C76 C77 120.9(4)
N14 C76 C75 108.2(5)
C77 C76 C75 130.9(5)
C78 C77 C76 120.7(5)
C78 C77 C113 119.7(5)
C76 C77 C113 119.5(4)
C77 C78 N15 125.6(5)
C77 C78 C79 125.8(5)
N15 C78 C79 108.6(4)
C80 C79 C78 107.3(5)
C80 C79 H23 126.3
C78 C79 H23 126.4
C79 C80 C81 108.0(5)
C79 C80 H24 126.0
C81 C80 H24 126.0
N15 C81 C82 122.4(5)
N15 C81 C80 109.0(4)
C82 C81 C80 128.4(4)
C81 C82 C84 130.1(5)
C81 C82 C83 123.4(4)
C84 C82 C83 106.4(4)
N16 C83 N18 128.8(5)
N16 C83 C82 124.6(4)
N18 C83 C82 106.5(4)
C86 C84 C85 126.3(5)
C86 C84 C82 108.9(4)
C85 C84 C82 124.8(5)
N17 C85 C84 178.5(6)
N18 C86 C84 107.2(4)
N18 C86 C87 108.4(4)
C84 C86 C87 144.4(5)
C88 C87 C86 107.5(4)
C88 C87 H25 126.2
C86 C87 H25 126.2
C87 C88 C89 110.1(5)
C87 C88 H26 125.0
C89 C88 H26 125.0
C90 C89 N18 126.2(4)
C90 C89 C88 127.8(5)
N18 C89 C88 104.2(4)
C89 C90 C91 120.0(4)
C89 C90 C119 122.8(5)
C91 C90 C119 116.7(5)
N19 C91 C90 122.6(5)
N19 C91 C92 108.2(5)
C90 C91 C92 128.7(5)
C93 C92 C91 108.2(5)
C93 C92 H27 125.9
C91 C92 H27 125.9
C92 C93 C94 105.5(5)
C92 C93 H28 127.2
C94 C93 H28 127.2
N19 C94 C93 110.8(4)
N19 C94 C95 112.1(5)
C93 C94 C95 137.1(6)
N20 C95 C94 111.7(5)
N20 C95 C96 109.2(4)
C94 C95 C96 139.0(5)
C97 C96 C95 106.8(5)
C97 C96 H29 126.6
C95 C96 H29 126.6
C96 C97 C98 107.9(4)
C96 C97 H30 126.1
C98 C97 H30 126.1
N20 C98 C99 119.0(5)
N20 C98 C97 108.1(5)
C99 C98 C97 132.9(5)
C100 C99 C98 123.1(4)
C100 C99 C125 118.6(5)
C98 C99 C125 118.3(5)
C99 C100 N21 124.9(5)
C99 C100 C101 127.3(4)
N21 C100 C101 107.8(5)
C102 C101 C100 108.3(4)
C102 C101 H31 125.9
C100 C101 H31 125.9
C101 C102 C103 107.3(5)
C101 C102 H32 126.3
C103 C102 H32 126.3
N21 C103 C104 122.2(4)
N21 C103 C102 109.5(4)
C104 C103 C102 128.2(5)
C103 C104 C106 130.6(5)
C103 C104 C105 122.5(5)
C106 C104 C105 106.6(4)
N22 C105 N24 127.5(4)
N22 C105 C104 125.3(4)
N24 C105 C104 107.1(4)
C104 C106 C108 108.5(5)
C104 C106 C107 126.0(5)
C108 C106 C107 125.3(5)
N23 C107 C106 176.2(7)
N24 C108 C109 108.4(5)
N24 C108 C106 107.8(5)
C109 C108 C106 143.9(6)
C110 C109 C108 106.5(5)
C110 C109 H33 126.8
C108 C109 H33 126.8
C109 C110 C111 111.5(5)
C109 C110 H34 124.3
C111 C110 H34 124.3
C110 C111 N24 104.4(5)
C110 C111 C112 126.8(5)
N24 C111 C112 126.2(5)
C69 C112 C111 118.4(5)
C69 C112 C131 118.9(5)
C111 C112 C131 120.7(5)
C114 C113 C118 115.2(5)
C114 C113 C77 122.2(5)
C118 C113 C77 122.6(4)
F21 C114 C115 118.3(5)
F21 C114 C113 118.4(5)
C115 C114 C113 123.3(5)
F22 C115 C116 118.9(5)
F22 C115 C114 121.4(5)
C116 C115 C114 119.7(5)
F23 C116 C115 120.1(5)
F23 C116 C117 120.5(5)
C115 C116 C117 119.4(5)
F24 C117 C116 119.1(5)
F24 C117 C118 120.8(5)
C116 C117 C118 120.1(5)
F25 C118 C117 118.5(5)
F25 C118 C113 119.3(5)
C117 C118 C113 122.2(5)
C124 C119 C120 116.0(6)
C124 C119 C90 124.5(6)
C120 C119 C90 119.5(5)
F26 C120 C121 119.6(7)
F26 C120 C119 120.2(5)
C121 C120 C119 119.9(8)
C122 C121 F27 118.0(8)
C122 C121 C120 123.7(9)
F27 C121 C120 118.3(9)
F28 C122 C121 123.1(11)
F28 C122 C123 118.9(9)
C121 C122 C123 118.1(7)
F29 C123 C124 119.9(9)
F29 C123 C122 121.2(7)
C124 C123 C122 118.9(7)
F30 C124 C119 119.2(6)
F30 C124 C123 117.5(7)
C119 C124 C123 123.3(8)
C130 C125 C126 116.7(4)
C130 C125 C99 122.7(5)
C126 C125 C99 120.6(5)
F31 C126 C127 117.9(5)
F31 C126 C125 120.2(4)
C127 C126 C125 122.0(5)
F32 C127 C126 120.6(5)
F32 C127 C128 120.4(5)
C126 C127 C128 119.0(5)
F33 C128 C129 120.9(5)
F33 C128 C127 119.0(5)
C129 C128 C127 120.0(5)
C128 C129 F34 119.7(5)
C128 C129 C130 120.4(5)
F34 C129 C130 119.9(5)
F35 C130 C125 119.3(4)
F35 C130 C129 118.7(5)
C125 C130 C129 121.9(5)
C136 C131 C132 115.6(6)
C136 C131 C112 123.2(6)
C132 C131 C112 120.9(7)
F36 C132 C133 117.0(7)
F36 C132 C131 121.8(6)
C133 C132 C131 121.1(8)
F37 C133 C134 119.8(8)
F37 C133 C132 119.2(9)
C134 C133 C132 121.0(7)
F38 C134 C135 119.7(10)
F38 C134 C133 120.8(9)
C135 C134 C133 119.5(7)
F39 C135 C134 121.3(8)
F39 C135 C136 119.0(9)
C134 C135 C136 119.8(9)
F40 C136 C135 116.4(8)
F40 C136 C131 120.6(6)
C135 C136 C131 122.9(7)
C72 N13 C69 107.4(4)
C72 N13 Ni3 112.6(3)
C69 N13 Ni3 139.9(3)
C76 N14 C73 108.4(4)
C76 N14 Ni3 135.0(4)
C73 N14 Ni3 116.0(4)
C81 N15 C78 107.0(4)
C81 N15 Ni3 125.5(3)
C78 N15 Ni3 127.5(3)
C83 N16 Ni3 126.3(4)
C83 N16 H35 116.8
Ni3 N16 H35 116.8
C86 N18 C83 110.2(4)
C86 N18 C89 109.6(4)
C83 N18 C89 140.0(4)
C91 N19 C94 107.2(4)
C91 N19 Ni4 138.1(4)
C94 N19 Ni4 114.1(3)
C95 N20 C98 108.1(4)
C95 N20 Ni4 116.8(3)
C98 N20 Ni4 133.9(4)
C103 N21 C100 107.1(4)
C103 N21 Ni4 125.8(3)
C100 N21 Ni4 126.2(4)
C105 N22 Ni4 125.8(3)
C105 N22 H36 117.1
Ni4 N22 H36 117.1
C108 N24 C105 109.5(4)
C108 N24 C111 109.1(4)
C105 N24 C111 141.3(5)
N14 Ni3 N15 90.04(18)
N14 Ni3 N16 165.7(2)
N15 Ni3 N16 95.14(18)
N14 Ni3 N13 82.58(19)
N15 Ni3 N13 169.0(2)
N16 Ni3 N13 93.93(19)
N20 Ni4 N22 163.82(18)
N20 Ni4 N21 90.99(18)
N22 Ni4 N21 94.54(18)
N20 Ni4 N19 81.66(17)
N22 Ni4 N19 95.12(18)
N21 Ni4 N19 167.90(17)
C138 C137 H37 109.5
C138 C137 H38 109.5
H37 C137 H38 109.5
C138 C137 H39 109.5
H37 C137 H39 109.5
H38 C137 H39 109.5
C137 C138 C139 114(2)
C137 C138 H40 108.7
C139 C138 H40 108.7
C137 C138 H41 108.7
C139 C138 H41 108.7
H40 C138 H41 107.6
C138 C139 C140 112(2)
C138 C139 H42 109.2
C140 C139 H42 109.2
C138 C139 H43 109.2
C140 C139 H43 109.2
H42 C139 H43 107.9
C141 C140 C139 117(2)
C141 C140 H44 108.1
C139 C140 H44 108.1
C141 C140 H45 108.1
C139 C140 H45 108.1
H44 C140 H45 107.3
C142 C141 C140 111(3)
C142 C141 H46 109.3
C140 C141 H46 109.3
C142 C141 H47 109.3
C140 C141 H47 109.3
H46 C141 H47 108.0
C141 C142 H48 109.5
C141 C142 H49 109.5
H48 C142 H49 109.5
C141 C142 H50 109.5
H48 C142 H50 109.5
H49 C142 H50 109.5
loop_
_geom_bond_atom_site_label_1
_geom_bond_atom_site_label_2
_geom_bond_distance
C1 N1 1.365(6)
C1 C44 1.416(6)
C1 C2 1.437(7)
C2 C3 1.360(7)
C2 H1 0.9500
C3 C4 1.437(7)
C3 H2 0.9500
C4 N1 1.369(6)
C4 C5 1.393(7)
C5 N2 1.365(6)
C5 C6 1.430(7)
C6 C7 1.362(8)
C6 H3 0.9500
C7 C8 1.444(7)
C7 H4 0.9500
C8 N2 1.371(7)
C8 C9 1.396(7)
C9 C10 1.398(7)
C9 C45 1.490(7)
C10 N3 1.391(6)
C10 C11 1.428(7)
C11 C12 1.357(7)
C11 H5 0.9500
C12 C13 1.423(7)
C12 H6 0.9500
C13 N3 1.374(6)
C13 C14 1.404(7)
C14 C16 1.423(6)
C14 C15 1.448(7)
C15 N4 1.287(6)
C15 N6 1.405(6)
C16 C17 1.406(7)
C16 C18 1.400(7)
C17 N5 1.158(7)
C18 N6 1.390(6)
C18 C19 1.400(7)
C19 C20 1.368(8)
C19 H7 0.9500
C20 C21 1.436(7)
C20 H8 0.9500
C21 N6 1.401(7)
C21 C22 1.418(7)
C22 C23 1.410(7)
C22 C51 1.475(6)
C23 N7 1.369(6)
C23 C24 1.434(8)
C24 C25 1.382(7)
C24 H9 0.9500
C25 C26 1.417(7)
C25 H10 0.9500
C26 N7 1.356(7)
C26 C27 1.420(7)
C27 N8 1.370(7)
C27 C28 1.430(7)
C28 C29 1.369(7)
C28 H11 0.9500
C29 C30 1.434(8)
C29 H12 0.9500
C30 N8 1.378(6)
C30 C31 1.384(7)
C31 C32 1.385(7)
C31 C57 1.491(6)
C32 N9 1.392(6)
C32 C33 1.434(7)
C33 C34 1.350(7)
C33 H13 0.9500
C34 C35 1.429(6)
C34 H14 0.9500
C35 N9 1.383(6)
C35 C36 1.400(6)
C36 C38 1.418(7)
C36 C37 1.452(6)
C37 N10 1.295(6)
C37 N12 1.396(6)
C38 C40 1.404(6)
C38 C39 1.416(7)
C39 N11 1.146(7)
C40 C41 1.399(7)
C40 N12 1.400(6)
C41 C42 1.370(7)
C41 H15 0.9500
C42 C43 1.407(7)
C42 H16 0.9500
C43 N12 1.414(5)
C43 C44 1.414(7)
C44 C63 1.471(7)
C45 C50 1.379(8)
C45 C46 1.387(7)
C46 F1 1.342(6)
C46 C47 1.361(8)
C47 F2 1.336(6)
C47 C48 1.366(9)
C48 F3 1.349(6)
C48 C49 1.351(8)
C49 F4 1.342(7)
C49 C50 1.401(8)
C50 F5 1.337(6)
C51 C56 1.397(7)
C51 C52 1.396(8)
C52 F6 1.349(7)
C52 C53 1.377(8)
C53 F7 1.326(8)
C53 C54 1.398(10)
C54 F8 1.316(6)
C54 C55 1.361(10)
C55 F9 1.351(7)
C55 C56 1.381(8)
C56 F10 1.338(7)
C57 C62 1.387(8)
C57 C58 1.394(7)
C58 F11 1.337(7)
C58 C59 1.368(8)
C59 F12 1.355(7)
C59 C60 1.370(10)
C60 C61 1.339(10)
C60 F13 1.343(6)
C61 F14 1.364(8)
C61 C62 1.384(8)
C62 F15 1.338(7)
C63 C64 1.399(7)
C63 C68 1.406(8)
C64 F16 1.354(6)
C64 C65 1.366(7)
C65 F17 1.348(6)
C65 C66 1.376(8)
C66 F18 1.345(6)
C66 C67 1.369(8)
C67 F19 1.356(6)
C67 C68 1.373(8)
C68 F20 1.338(6)
N1 Ni1 1.908(4)
N2 Ni1 1.822(4)
N3 Ni1 1.869(4)
N4 Ni1 1.872(4)
N4 H17 0.8800
N7 Ni2 1.909(4)
N8 Ni2 1.824(4)
N9 Ni2 1.863(4)
N10 Ni2 1.867(4)
N10 H18 0.8800
C69 N13 1.388(7)
C69 C112 1.406(7)
C69 C70 1.451(7)
C70 C71 1.364(7)
C70 H19 0.9500
C71 C72 1.435(8)
C71 H20 0.9500
C72 N13 1.363(6)
C72 C73 1.391(7)
C73 N14 1.361(6)
C73 C74 1.446(7)
C74 C75 1.346(8)
C74 H21 0.9500
C75 C76 1.448(7)
C75 H22 0.9500
C76 N14 1.353(7)
C76 C77 1.399(8)
C77 C78 1.400(6)
C77 C113 1.477(7)
C78 N15 1.394(6)
C78 C79 1.436(7)
C79 C80 1.364(7)
C79 H23 0.9500
C80 C81 1.425(7)
C80 H24 0.9500
C81 N15 1.382(6)
C81 C82 1.389(7)
C82 C84 1.421(6)
C82 C83 1.437(7)
C83 N16 1.295(6)
C83 N18 1.389(6)
C84 C86 1.394(8)
C84 C85 1.417(7)
C85 N17 1.158(7)
C86 N18 1.389(6)
C86 C87 1.405(7)
C87 C88 1.369(7)
C87 H25 0.9500
C88 C89 1.446(6)
C88 H26 0.9500
C89 C90 1.395(7)
C89 N18 1.412(7)
C90 C91 1.429(8)
C90 C119 1.486(6)
C91 N19 1.368(6)
C91 C92 1.436(8)
C92 C93 1.373(8)
C92 H27 0.9500
C93 C94 1.418(7)
C93 H28 0.9500
C94 N19 1.367(7)
C94 C95 1.417(7)
C95 N20 1.364(7)
C95 C96 1.422(7)
C96 C97 1.363(7)
C96 H29 0.9500
C97 C98 1.428(8)
C97 H30 0.9500
C98 N20 1.369(6)
C98 C99 1.397(8)
C99 C100 1.386(8)
C99 C125 1.490(6)
C100 N21 1.394(6)
C100 C101 1.438(8)
C101 C102 1.341(7)
C101 H31 0.9500
C102 C103 1.434(7)
C102 H32 0.9500
C103 N21 1.364(7)
C103 C104 1.404(6)
C104 C106 1.410(8)
C104 C105 1.449(7)
C105 N22 1.298(7)
C105 N24 1.395(6)
C106 C108 1.412(7)
C106 C107 1.440(8)
C107 N23 1.133(8)
C108 N24 1.390(7)
C108 C109 1.398(7)
C109 C110 1.380(8)
C109 H33 0.9500
C110 C111 1.398(9)
C110 H34 0.9500
C111 N24 1.422(6)
C111 C112 1.440(8)
C112 C131 1.493(8)
C113 C114 1.378(7)
C113 C118 1.393(8)
C114 F21 1.351(6)
C114 C115 1.369(8)
C115 F22 1.346(6)
C115 C116 1.367(8)
C116 F23 1.346(6)
C116 C117 1.363(7)
C117 F24 1.347(6)
C117 C118 1.377(8)
C118 F25 1.335(5)
C119 C124 1.359(9)
C119 C120 1.450(9)
C120 F26 1.307(8)
C120 C121 1.371(9)
C121 C122 1.341(13)
C121 F27 1.350(10)
C122 F28 1.303(8)
C122 C123 1.414(13)
C123 F29 1.324(9)
C123 C124 1.410(10)
C124 F30 1.347(9)
C125 C130 1.384(7)
C125 C126 1.393(7)
C126 F31 1.336(6)
C126 C127 1.381(7)
C127 F32 1.337(7)
C127 C128 1.392(9)
C128 F33 1.342(6)
C128 C129 1.350(8)
C129 F34 1.358(6)
C129 C130 1.379(7)
C130 F35 1.349(6)
C131 C136 1.395(10)
C131 C132 1.399(9)
C132 F36 1.333(9)
C132 C133 1.392(10)
C133 F37 1.346(9)
C133 C134 1.375(13)
C134 F38 1.339(8)
C134 C135 1.354(13)
C135 F39 1.337(10)
C135 C136 1.392(10)
C136 F40 1.336(8)
N13 Ni3 1.904(4)
N14 Ni3 1.820(4)
N15 Ni3 1.870(4)
N16 Ni3 1.866(4)
N16 H35 0.8800
N19 Ni4 1.898(4)
N20 Ni4 1.826(4)
N21 Ni4 1.875(4)
N22 Ni4 1.869(4)
N22 H36 0.8800
C137 C138 1.472(18)
C137 H37 0.9800
C137 H38 0.9800
C137 H39 0.9800
C138 C139 1.515(19)
C138 H40 0.9900
C138 H41 0.9900
C139 C140 1.524(19)
C139 H42 0.9900
C139 H43 0.9900
C140 C141 1.52(2)
C140 H44 0.9900
C140 H45 0.9900
C141 C142 1.52(2)
C141 H46 0.9900
C141 H47 0.9900
C142 H48 0.9800
C142 H49 0.9800
C142 H50 0.9800
loop_
_geom_torsion_atom_site_label_1
_geom_torsion_atom_site_label_2
_geom_torsion_atom_site_label_3
_geom_torsion_atom_site_label_4
_geom_torsion
N1 C1 C2 C3 3.5(7)
C44 C1 C2 C3 -167.2(6)
C1 C2 C3 C4 -1.2(7)
C2 C3 C4 N1 -1.5(7)
C2 C3 C4 C5 175.7(7)
N1 C4 C5 N2 -0.2(7)
C3 C4 C5 N2 -177.2(7)
N1 C4 C5 C6 173.9(7)
C3 C4 C5 C6 -3.1(13)
N2 C5 C6 C7 1.1(7)
C4 C5 C6 C7 -173.1(7)
C5 C6 C7 C8 -1.6(7)
C6 C7 C8 N2 1.6(7)
C6 C7 C8 C9 -179.4(6)
N2 C8 C9 C10 -5.7(8)
C7 C8 C9 C10 175.4(6)
N2 C8 C9 C45 174.8(5)
C7 C8 C9 C45 -4.1(9)
C8 C9 C10 N3 1.3(8)
C45 C9 C10 N3 -179.3(5)
C8 C9 C10 C11 -178.8(5)
C45 C9 C10 C11 0.6(8)
N3 C10 C11 C12 1.0(6)
C9 C10 C11 C12 -178.9(5)
C10 C11 C12 C13 -1.5(6)
C11 C12 C13 N3 1.5(6)
C11 C12 C13 C14 -175.0(5)
N3 C13 C14 C16 173.9(5)
C12 C13 C14 C16 -9.9(9)
N3 C13 C14 C15 -13.0(8)
C12 C13 C14 C15 163.2(5)
C13 C14 C15 N4 15.9(8)
C16 C14 C15 N4 -169.6(5)
C13 C14 C15 N6 -167.6(4)
C16 C14 C15 N6 6.9(5)
C13 C14 C16 C17 -11.1(9)
C15 C14 C16 C17 175.0(5)
C13 C14 C16 C18 171.7(5)
C15 C14 C16 C18 -2.2(6)
C17 C16 C18 N6 179.4(5)
C14 C16 C18 N6 -3.4(6)
C17 C16 C18 C19 0.2(11)
C14 C16 C18 C19 177.4(7)
N6 C18 C19 C20 -1.7(6)
C16 C18 C19 C20 177.5(7)
C18 C19 C20 C21 -2.3(6)
C19 C20 C21 N6 5.3(6)
C19 C20 C21 C22 -160.1(5)
N6 C21 C22 C23 169.5(5)
C20 C21 C22 C23 -28.3(7)
N6 C21 C22 C51 -21.1(8)
C20 C21 C22 C51 141.0(5)
C21 C22 C23 N7 -29.9(8)
C51 C22 C23 N7 160.2(5)
C21 C22 C23 C24 137.4(6)
C51 C22 C23 C24 -32.4(8)
N7 C23 C24 C25 4.4(7)
C22 C23 C24 C25 -164.7(5)
C23 C24 C25 C26 -2.9(7)
C24 C25 C26 N7 0.4(7)
C24 C25 C26 C27 175.3(6)
N7 C26 C27 N8 0.6(6)
C25 C26 C27 N8 -174.3(6)
N7 C26 C27 C28 176.3(6)
C25 C26 C27 C28 1.4(12)
N8 C27 C28 C29 -1.4(6)
C26 C27 C28 C29 -177.1(6)
C27 C28 C29 C30 1.1(6)
C28 C29 C30 N8 -0.4(6)
C28 C29 C30 C31 174.2(5)
N8 C30 C31 C32 -2.7(7)
C29 C30 C31 C32 -176.9(5)
N8 C30 C31 C57 175.7(4)
C29 C30 C31 C57 1.5(8)
C30 C31 C32 N9 -9.0(8)
C57 C31 C32 N9 172.6(4)
C30 C31 C32 C33 170.6(5)
C57 C31 C32 C33 -7.9(8)
C31 C32 C33 C34 -179.8(5)
N9 C32 C33 C34 -0.3(6)
C32 C33 C34 C35 -1.5(6)
C33 C34 C35 N9 2.8(6)
C33 C34 C35 C36 -171.4(5)
N9 C35 C36 C38 -175.3(5)
C34 C35 C36 C38 -1.7(8)
N9 C35 C36 C37 -2.8(7)
C34 C35 C36 C37 170.8(5)
C35 C36 C37 N10 13.3(7)
C38 C36 C37 N10 -172.8(4)
C35 C36 C37 N12 -168.9(4)
C38 C36 C37 N12 5.1(5)
C35 C36 C38 C40 171.4(5)
C37 C36 C38 C40 -2.0(5)
C35 C36 C38 C39 -4.6(9)
C37 C36 C38 C39 -178.0(5)
C36 C38 C40 C41 179.6(7)
C39 C38 C40 C41 -4.3(11)
C36 C38 C40 N12 -1.9(5)
C39 C38 C40 N12 174.2(5)
N12 C40 C41 C42 -0.3(5)
C38 C40 C41 C42 178.1(7)
C40 C41 C42 C43 -2.6(6)
C41 C42 C43 N12 4.4(5)
C41 C42 C43 C44 -162.4(5)
N12 C43 C44 C1 166.6(4)
C42 C43 C44 C1 -29.5(7)
N12 C43 C44 C63 -25.4(8)
C42 C43 C44 C63 138.6(5)
N1 C1 C44 C43 -32.4(8)
C2 C1 C44 C43 137.0(6)
N1 C1 C44 C63 158.9(5)
C2 C1 C44 C63 -31.8(8)
C10 C9 C45 C50 71.4(7)
C8 C9 C45 C50 -109.1(6)
C10 C9 C45 C46 -111.1(6)
C8 C9 C45 C46 68.4(7)
C50 C45 C46 F1 178.8(5)
C9 C45 C46 F1 1.2(8)
C50 C45 C46 C47 -0.9(9)
C9 C45 C46 C47 -178.5(6)
F1 C46 C47 F2 -0.2(9)
C45 C46 C47 F2 179.6(6)
F1 C46 C47 C48 -178.8(6)
C45 C46 C47 C48 1.0(10)
F2 C47 C48 F3 -0.3(9)
C46 C47 C48 F3 178.3(5)
F2 C47 C48 C49 -179.5(5)
C46 C47 C48 C49 -0.9(9)
F3 C48 C49 F4 1.4(8)
C47 C48 C49 F4 -179.4(5)
F3 C48 C49 C50 -178.3(5)
C47 C48 C49 C50 0.9(9)
C46 C45 C50 F5 -179.1(5)
C9 C45 C50 F5 -1.5(8)
C46 C45 C50 C49 0.9(8)
C9 C45 C50 C49 178.5(5)
F4 C49 C50 F5 -0.6(8)
C48 C49 C50 F5 179.1(5)
F4 C49 C50 C45 179.4(5)
C48 C49 C50 C45 -1.0(8)
C23 C22 C51 C56 136.3(6)
C21 C22 C51 C56 -33.0(8)
C23 C22 C51 C52 -37.8(8)
C21 C22 C51 C52 152.8(5)
C56 C51 C52 F6 -176.7(5)
C22 C51 C52 F6 -2.0(9)
C56 C51 C52 C53 2.5(9)
C22 C51 C52 C53 177.3(6)
F6 C52 C53 F7 -0.6(9)
C51 C52 C53 F7 -179.8(6)
F6 C52 C53 C54 179.1(6)
C51 C52 C53 C54 -0.1(10)
F7 C53 C54 F8 -1.5(10)
C52 C53 C54 F8 178.8(6)
F7 C53 C54 C55 177.6(6)
C52 C53 C54 C55 -2.1(10)
F8 C54 C55 F9 1.4(10)
C53 C54 C55 F9 -177.7(6)
F8 C54 C55 C56 -179.2(6)
C53 C54 C55 C56 1.7(10)
F9 C55 C56 F10 2.6(9)
C54 C55 C56 F10 -176.8(5)
F9 C55 C56 C51 -179.7(5)
C54 C55 C56 C51 0.9(10)
C52 C51 C56 F10 174.7(5)
C22 C51 C56 F10 0.2(9)
C52 C51 C56 C55 -2.9(9)
C22 C51 C56 C55 -177.4(6)
C30 C31 C57 C62 83.8(7)
C32 C31 C57 C62 -97.7(7)
C30 C31 C57 C58 -93.3(6)
C32 C31 C57 C58 85.2(7)
C62 C57 C58 F11 179.1(5)
C31 C57 C58 F11 -3.7(9)
C62 C57 C58 C59 -0.5(9)
C31 C57 C58 C59 176.8(6)
F11 C58 C59 F12 2.0(9)
C57 C58 C59 F12 -178.5(5)
F11 C58 C59 C60 179.8(6)
C57 C58 C59 C60 -0.6(10)
F12 C59 C60 C61 179.5(6)
C58 C59 C60 C61 1.7(11)
F12 C59 C60 F13 2.5(10)
C58 C59 C60 F13 -175.3(6)
F13 C60 C61 F14 -4.7(11)
C59 C60 C61 F14 178.3(6)
F13 C60 C61 C62 175.4(6)
C59 C60 C61 C62 -1.6(11)
C60 C61 C62 F15 -179.2(6)
F14 C61 C62 F15 1.0(10)
C60 C61 C62 C57 0.4(11)
F14 C61 C62 C57 -179.5(6)
C58 C57 C62 F15 -179.8(5)
C31 C57 C62 F15 2.9(9)
C58 C57 C62 C61 0.6(9)
C31 C57 C62 C61 -176.7(6)
C43 C44 C63 C64 -32.7(7)
C1 C44 C63 C64 135.4(5)
C43 C44 C63 C68 150.9(5)
C1 C44 C63 C68 -41.1(7)
C68 C63 C64 F16 178.3(4)
C44 C63 C64 F16 1.7(7)
C68 C63 C64 C65 0.3(7)
C44 C63 C64 C65 -176.3(5)
F16 C64 C65 F17 0.3(7)
C63 C64 C65 F17 178.3(4)
F16 C64 C65 C66 -179.2(4)
C63 C64 C65 C66 -1.2(8)
F17 C65 C66 F18 1.3(7)
C64 C65 C66 F18 -179.1(4)
F17 C65 C66 C67 -178.8(4)
C64 C65 C66 C67 0.7(8)
F18 C66 C67 F19 -0.9(7)
C65 C66 C67 F19 179.2(5)
F18 C66 C67 C68 -179.5(4)
C65 C66 C67 C68 0.6(8)
F19 C67 C68 F20 -1.7(7)
C66 C67 C68 F20 176.9(5)
F19 C67 C68 C63 179.9(4)
C66 C67 C68 C63 -1.5(8)
C64 C63 C68 F20 -177.4(4)
C44 C63 C68 F20 -0.6(7)
C64 C63 C68 C67 1.1(7)
C44 C63 C68 C67 177.8(5)
C44 C1 N1 C4 166.6(5)
C2 C1 N1 C4 -4.4(6)
C44 C1 N1 Ni1 -19.9(9)
C2 C1 N1 Ni1 169.2(4)
C5 C4 N1 C1 -174.2(5)
C3 C4 N1 C1 3.7(6)
C5 C4 N1 Ni1 10.3(6)
C3 C4 N1 Ni1 -171.8(4)
C4 C5 N2 C8 175.8(5)
C6 C5 N2 C8 -0.1(6)
C4 C5 N2 Ni1 -10.9(6)
C6 C5 N2 Ni1 173.2(4)
C9 C8 N2 C5 179.9(5)
C7 C8 N2 C5 -0.9(6)
C9 C8 N2 Ni1 8.3(8)
C7 C8 N2 Ni1 -172.5(4)
C14 C13 N3 C10 175.9(5)
C12 C13 N3 C10 -0.9(6)
C14 C13 N3 Ni1 -5.6(7)
C12 C13 N3 Ni1 177.5(3)
C9 C10 N3 C13 179.9(5)
C11 C10 N3 C13 0.0(5)
C9 C10 N3 Ni1 1.5(7)
C11 C10 N3 Ni1 -178.4(3)
N6 C15 N4 Ni1 -174.8(4)
C14 C15 N4 Ni1 0.9(7)
C19 C18 N6 C21 5.2(5)
C16 C18 N6 C21 -174.3(4)
C19 C18 N6 C15 -172.5(4)
C16 C18 N6 C15 8.0(5)
C22 C21 N6 C18 158.8(5)
C20 C21 N6 C18 -6.3(5)
C22 C21 N6 C15 -24.7(9)
C20 C21 N6 C15 170.2(5)
N4 C15 N6 C18 167.2(5)
C14 C15 N6 C18 -9.2(5)
N4 C15 N6 C21 -9.4(10)
C14 C15 N6 C21 174.2(5)
C25 C26 N7 C23 2.4(6)
C27 C26 N7 C23 -173.8(4)
C25 C26 N7 Ni2 -175.9(4)
C27 C26 N7 Ni2 8.0(6)
C22 C23 N7 C26 165.2(5)
C24 C23 N7 C26 -4.1(6)
C22 C23 N7 Ni2 -17.3(9)
C24 C23 N7 Ni2 173.4(4)
C26 C27 N8 C30 178.1(4)
C28 C27 N8 C30 1.2(6)
C26 C27 N8 Ni2 -9.7(6)
C28 C27 N8 Ni2 173.4(3)
C31 C30 N8 C27 -176.0(4)
C29 C30 N8 C27 -0.4(5)
C31 C30 N8 Ni2 13.6(7)
C29 C30 N8 Ni2 -170.8(4)
C36 C35 N9 C32 171.8(4)
C34 C35 N9 C32 -2.9(5)
C36 C35 N9 Ni2 -17.6(6)
C34 C35 N9 Ni2 167.7(3)
C31 C32 N9 C35 -178.5(4)
C33 C32 N9 C35 2.0(5)
C31 C32 N9 Ni2 11.1(7)
C33 C32 N9 Ni2 -168.5(3)
N12 C37 N10 Ni2 -179.4(3)
C36 C37 N10 Ni2 -2.0(7)
N10 C37 N12 C40 171.3(5)
C36 C37 N12 C40 -6.4(5)
N10 C37 N12 C43 -6.8(9)
C36 C37 N12 C43 175.5(5)
C41 C40 N12 C37 -175.6(4)
C38 C40 N12 C37 5.3(5)
C41 C40 N12 C43 3.1(5)
C38 C40 N12 C43 -176.0(4)
C44 C43 N12 C37 -19.6(9)
C42 C43 N12 C37 173.6(5)
C44 C43 N12 C40 162.3(5)
C42 C43 N12 C40 -4.5(5)
C5 N2 Ni1 N3 -176.0(4)
C8 N2 Ni1 N3 -4.9(5)
C5 N2 Ni1 N4 -65.9(8)
C8 N2 Ni1 N4 105.2(8)
C5 N2 Ni1 N1 13.3(4)
C8 N2 Ni1 N1 -175.6(5)
C13 N3 Ni1 N2 -178.2(4)
C10 N3 Ni1 N2 -0.1(4)
C13 N3 Ni1 N4 16.3(4)
C10 N3 Ni1 N4 -165.6(4)
C13 N3 Ni1 N1 -126.0(8)
C10 N3 Ni1 N1 52.1(10)
C15 N4 Ni1 N2 -123.5(7)
C15 N4 Ni1 N3 -13.9(4)
C15 N4 Ni1 N1 158.9(4)
C27 N8 Ni2 N9 -179.7(4)
C30 N8 Ni2 N9 -10.1(5)
C27 N8 Ni2 N10 -70.6(8)
C30 N8 Ni2 N10 99.0(8)
C27 N8 Ni2 N7 11.2(4)
C30 N8 Ni2 N7 -179.1(5)
C35 N9 Ni2 N8 -171.1(4)
C32 N9 Ni2 N8 -2.4(4)
C35 N9 Ni2 N10 22.2(4)
C32 N9 Ni2 N10 -169.1(4)
C35 N9 Ni2 N7 -116.3(7)
C32 N9 Ni2 N7 52.4(9)
C37 N10 Ni2 N8 -121.3(7)
C37 N10 Ni2 N9 -12.6(4)
C37 N10 Ni2 N7 158.5(4)
N13 C69 C70 C71 -4.5(7)
C112 C69 C70 C71 162.7(7)
C69 C70 C71 C72 1.5(8)
C70 C71 C72 N13 2.1(8)
C70 C71 C72 C73 -172.5(7)
N13 C72 C73 N14 -0.4(8)
C71 C72 C73 N14 173.9(7)
N13 C72 C73 C74 -171.2(7)
C71 C72 C73 C74 3.1(14)
N14 C73 C74 C75 1.1(7)
C72 C73 C74 C75 172.2(7)
C73 C74 C75 C76 -0.2(7)
C74 C75 C76 N14 -0.8(7)
C74 C75 C76 C77 178.7(6)
N14 C76 C77 C78 6.3(8)
C75 C76 C77 C78 -173.1(6)
N14 C76 C77 C113 -176.5(5)
C75 C76 C77 C113 4.1(9)
C76 C77 C78 N15 -2.2(8)
C113 C77 C78 N15 -179.4(5)
C76 C77 C78 C79 177.2(5)
C113 C77 C78 C79 0.0(8)
C77 C78 C79 C80 -179.7(5)
N15 C78 C79 C80 -0.2(6)
C78 C79 C80 C81 0.5(6)
C79 C80 C81 N15 -0.7(6)
C79 C80 C81 C82 176.0(5)
N15 C81 C82 C84 -173.3(5)
C80 C81 C82 C84 10.4(9)
N15 C81 C82 C83 11.4(8)
C80 C81 C82 C83 -164.9(5)
C81 C82 C83 N16 -14.0(8)
C84 C82 C83 N16 169.7(4)
C81 C82 C83 N18 169.0(4)
C84 C82 C83 N18 -7.2(5)
C81 C82 C84 C86 -173.3(5)
C83 C82 C84 C86 2.6(5)
C81 C82 C84 C85 7.6(9)
C83 C82 C84 C85 -176.5(5)
C85 C84 C86 N18 -177.9(5)
C82 C84 C86 N18 3.0(6)
C85 C84 C86 C87 2.3(11)
C82 C84 C86 C87 -176.7(7)
N18 C86 C87 C88 1.4(6)
C84 C86 C87 C88 -178.9(7)
C86 C87 C88 C89 1.8(6)
C87 C88 C89 C90 161.0(5)
C87 C88 C89 N18 -4.2(5)
N18 C89 C90 C91 -169.0(5)
C88 C89 C90 C91 28.9(8)
N18 C89 C90 C119 19.1(8)
C88 C89 C90 C119 -143.0(5)
C89 C90 C91 N19 27.6(8)
C119 C90 C91 N19 -160.0(5)
C89 C90 C91 C92 -142.8(6)
C119 C90 C91 C92 29.6(8)
N19 C91 C92 C93 -3.3(6)
C90 C91 C92 C93 168.2(5)
C91 C92 C93 C94 1.5(6)
C92 C93 C94 N19 0.7(6)
C92 C93 C94 C95 -175.3(6)
N19 C94 C95 N20 -0.3(6)
C93 C94 C95 N20 175.7(6)
N19 C94 C95 C96 -176.2(6)
C93 C94 C95 C96 -0.3(12)
N20 C95 C96 C97 -0.7(6)
C94 C95 C96 C97 175.3(6)
C95 C96 C97 C98 0.6(6)
C96 C97 C98 N20 -0.3(6)
C96 C97 C98 C99 -179.1(6)
N20 C98 C99 C100 8.3(8)
C97 C98 C99 C100 -173.0(5)
N20 C98 C99 C125 -172.1(4)
C97 C98 C99 C125 6.6(9)
C98 C99 C100 N21 4.9(8)
C125 C99 C100 N21 -174.6(5)
C98 C99 C100 C101 -176.2(5)
C125 C99 C100 C101 4.2(8)
C99 C100 C101 C102 -178.9(5)
N21 C100 C101 C102 0.1(6)
C100 C101 C102 C103 1.0(6)
C101 C102 C103 N21 -1.9(6)
C101 C102 C103 C104 174.4(5)
N21 C103 C104 C106 176.5(5)
C102 C103 C104 C106 0.6(9)
N21 C103 C104 C105 3.5(7)
C102 C103 C104 C105 -172.4(5)
C103 C104 C105 N22 -12.7(7)
C106 C104 C105 N22 172.8(5)
C103 C104 C105 N24 170.2(4)
C106 C104 C105 N24 -4.2(5)
C103 C104 C106 C108 -174.1(5)
C105 C104 C106 C108 -0.3(5)
C103 C104 C106 C107 0.4(9)
C105 C104 C106 C107 174.2(5)
C104 C106 C108 N24 4.7(6)
C107 C106 C108 N24 -169.8(5)
C104 C106 C108 C109 -175.6(7)
C107 C106 C108 C109 9.8(11)
N24 C108 C109 C110 1.3(6)
C106 C108 C109 C110 -178.3(7)
C108 C109 C110 C111 1.9(6)
C109 C110 C111 N24 -4.2(6)
C109 C110 C111 C112 158.3(5)
N13 C69 C112 C111 22.6(9)
C70 C69 C112 C111 -142.7(6)
N13 C69 C112 C131 -173.3(5)
C70 C69 C112 C131 21.3(10)
C110 C111 C112 C69 37.1(8)
N24 C111 C112 C69 -164.0(5)
C110 C111 C112 C131 -126.6(6)
N24 C111 C112 C131 32.3(8)
C78 C77 C113 C114 109.9(6)
C76 C77 C113 C114 -67.4(7)
C78 C77 C113 C118 -72.8(7)
C76 C77 C113 C118 110.0(6)
C118 C113 C114 F21 179.0(5)
C77 C113 C114 F21 -3.4(8)
C118 C113 C114 C115 0.0(9)
C77 C113 C114 C115 177.6(6)
F21 C114 C115 F22 0.9(9)
C113 C114 C115 F22 179.9(6)
F21 C114 C115 C116 -178.7(5)
C113 C114 C115 C116 0.4(10)
F22 C115 C116 F23 -0.8(9)
C114 C115 C116 F23 178.8(5)
F22 C115 C116 C117 -179.5(5)
C114 C115 C116 C117 0.0(9)
F23 C116 C117 F24 0.8(8)
C115 C116 C117 F24 179.5(5)
F23 C116 C117 C118 -179.4(5)
C115 C116 C117 C118 -0.7(8)
F24 C117 C118 F25 0.8(8)
C116 C117 C118 F25 -179.0(5)
F24 C117 C118 C113 -179.2(5)
C116 C117 C118 C113 1.0(8)
C114 C113 C118 F25 179.3(5)
C77 C113 C118 F25 1.8(8)
C114 C113 C118 C117 -0.7(8)
C77 C113 C118 C117 -178.2(5)
C89 C90 C119 C124 38.3(9)
C91 C90 C119 C124 -133.8(7)
C89 C90 C119 C120 -140.3(6)
C91 C90 C119 C120 47.5(7)
C124 C119 C120 F26 173.7(7)
C90 C119 C120 F26 -7.5(9)
C124 C119 C120 C121 0.4(10)
C90 C119 C120 C121 179.2(6)
F26 C120 C121 C122 -176.8(8)
C119 C120 C121 C122 -3.5(13)
F26 C120 C121 F27 4.1(11)
C119 C120 C121 F27 177.4(6)
F27 C121 C122 F28 2.2(13)
C120 C121 C122 F28 -177.0(7)
F27 C121 C122 C123 -175.5(7)
C120 C121 C122 C123 5.3(13)
F28 C122 C123 F29 -0.7(11)
C121 C122 C123 F29 177.1(8)
F28 C122 C123 C124 178.0(7)
C121 C122 C123 C124 -4.2(12)
C120 C119 C124 F30 -178.0(6)
C90 C119 C124 F30 3.3(10)
C120 C119 C124 C123 0.5(11)
C90 C119 C124 C123 -178.2(6)
F29 C123 C124 F30 -1.4(11)
C122 C123 C124 F30 179.9(6)
F29 C123 C124 C119 -179.9(7)
C122 C123 C124 C119 1.4(12)
C100 C99 C125 C130 87.7(7)
C98 C99 C125 C130 -91.9(7)
C100 C99 C125 C126 -94.2(7)
C98 C99 C125 C126 86.2(7)
C130 C125 C126 F31 -178.8(5)
C99 C125 C126 F31 3.0(9)
C130 C125 C126 C127 1.1(9)
C99 C125 C126 C127 -177.2(6)
F31 C126 C127 F32 0.0(9)
C125 C126 C127 F32 -179.9(5)
F31 C126 C127 C128 -179.3(5)
C125 C126 C127 C128 0.8(10)
F32 C127 C128 F33 -4.5(9)
C126 C127 C128 F33 174.7(6)
F32 C127 C128 C129 178.0(6)
C126 C127 C128 C129 -2.7(10)
F33 C128 C129 F34 4.2(9)
C127 C128 C129 F34 -178.4(6)
F33 C128 C129 C130 -174.7(6)
C127 C128 C129 C130 2.7(10)
C126 C125 C130 F35 -179.4(5)
C99 C125 C130 F35 -1.2(9)
C126 C125 C130 C129 -1.1(9)
C99 C125 C130 C129 177.0(6)
C128 C129 C130 F35 177.5(5)
F34 C129 C130 F35 -1.4(9)
C128 C129 C130 C125 -0.7(10)
F34 C129 C130 C125 -179.6(5)
C69 C112 C131 C136 40.6(8)
C111 C112 C131 C136 -155.7(5)
C69 C112 C131 C132 -132.6(6)
C111 C112 C131 C132 31.1(8)
C136 C131 C132 F36 -174.6(5)
C112 C131 C132 F36 -0.9(8)
C136 C131 C132 C133 3.2(8)
C112 C131 C132 C133 176.9(5)
F36 C132 C133 F37 -2.8(8)
C131 C132 C133 F37 179.4(5)
F36 C132 C133 C134 176.7(6)
C131 C132 C133 C134 -1.2(9)
F37 C133 C134 F38 -1.5(10)
C132 C133 C134 F38 179.1(5)
F37 C133 C134 C135 178.4(6)
C132 C133 C134 C135 -1.1(10)
F38 C134 C135 F39 2.2(10)
C133 C134 C135 F39 -177.7(6)
F38 C134 C135 C136 -179.0(6)
C133 C134 C135 C136 1.1(10)
F39 C135 C136 F40 1.7(9)
C134 C135 C136 F40 -177.2(6)
F39 C135 C136 C131 179.9(6)
C134 C135 C136 C131 1.1(10)
C132 C131 C136 F40 175.0(5)
C112 C131 C136 F40 1.5(8)
C132 C131 C136 C135 -3.2(9)
C112 C131 C136 C135 -176.7(6)
C73 C72 N13 C69 171.0(5)
C71 C72 N13 C69 -4.9(7)
C73 C72 N13 Ni3 -10.8(7)
C71 C72 N13 Ni3 173.3(4)
C112 C69 N13 C72 -161.8(6)
C70 C69 N13 C72 5.8(7)
C112 C69 N13 Ni3 20.7(10)
C70 C69 N13 Ni3 -171.6(5)
C77 C76 N14 C73 -178.1(5)
C75 C76 N14 C73 1.5(6)
C77 C76 N14 Ni3 -7.6(8)
C75 C76 N14 Ni3 172.0(4)
C72 C73 N14 C76 -175.1(5)
C74 C73 N14 C76 -1.6(6)
C72 C73 N14 Ni3 12.3(6)
C74 C73 N14 Ni3 -174.2(4)
C82 C81 N15 C78 -176.3(5)
C80 C81 N15 C78 0.5(5)
C82 C81 N15 Ni3 4.4(7)
C80 C81 N15 Ni3 -178.7(3)
C77 C78 N15 C81 179.3(5)
C79 C78 N15 C81 -0.2(6)
C77 C78 N15 Ni3 -1.4(8)
C79 C78 N15 Ni3 179.0(3)
N18 C83 N16 Ni3 176.3(4)
C82 C83 N16 Ni3 0.0(7)
C84 C86 N18 C83 -7.9(5)
C87 C86 N18 C83 172.0(4)
C84 C86 N18 C89 176.0(4)
C87 C86 N18 C89 -4.1(5)
N16 C83 N18 C86 -167.3(5)
C82 C83 N18 C86 9.4(5)
N16 C83 N18 C89 6.9(9)
C82 C83 N18 C89 -176.3(5)
C90 C89 N18 C86 -160.5(5)
C88 C89 N18 C86 5.0(5)
C90 C89 N18 C83 25.2(9)
C88 C89 N18 C83 -169.3(5)
C90 C91 N19 C94 -168.5(5)
C92 C91 N19 C94 3.6(6)
C90 C91 N19 Ni4 21.7(8)
C92 C91 N19 Ni4 -166.2(4)
C93 C94 N19 C91 -2.8(6)
C95 C94 N19 C91 174.3(4)
C93 C94 N19 Ni4 169.9(4)
C95 C94 N19 Ni4 -13.1(5)
C94 C95 N20 C98 -176.7(4)
C96 C95 N20 C98 0.5(6)
C94 C95 N20 Ni4 14.4(5)
C96 C95 N20 Ni4 -168.4(3)
C99 C98 N20 C95 178.8(5)
C97 C98 N20 C95 -0.2(6)
C99 C98 N20 Ni4 -14.9(8)
C97 C98 N20 Ni4 166.1(4)
C104 C103 N21 C100 -174.7(4)
C102 C103 N21 C100 1.9(5)
C104 C103 N21 Ni4 16.0(6)
C102 C103 N21 Ni4 -167.4(3)
C99 C100 N21 C103 177.8(5)
C101 C100 N21 C103 -1.3(5)
C99 C100 N21 Ni4 -12.9(7)
C101 C100 N21 Ni4 168.0(3)
N24 C105 N22 Ni4 177.5(3)
C104 C105 N22 Ni4 1.1(7)
C109 C108 N24 C105 172.7(4)
C106 C108 N24 C105 -7.5(5)
C109 C108 N24 C111 -4.0(5)
C106 C108 N24 C111 175.8(4)
N22 C105 N24 C108 -169.7(5)
C104 C105 N24 C108 7.3(5)
N22 C105 N24 C111 5.4(9)
C104 C105 N24 C111 -177.7(6)
C110 C111 N24 C108 5.0(5)
C112 C111 N24 C108 -157.7(5)
C110 C111 N24 C105 -170.1(6)
C112 C111 N24 C105 27.2(9)
C76 N14 Ni3 N15 3.6(5)
C73 N14 Ni3 N15 173.6(4)
C76 N14 Ni3 N16 -107.9(8)
C73 N14 Ni3 N16 62.1(9)
C76 N14 Ni3 N13 175.4(5)
C73 N14 Ni3 N13 -14.6(4)
C81 N15 Ni3 N14 -179.9(4)
C78 N15 Ni3 N14 1.0(4)
C81 N15 Ni3 N16 -13.2(4)
C78 N15 Ni3 N16 167.7(4)
C81 N15 Ni3 N13 132.6(8)
C78 N15 Ni3 N13 -46.5(11)
C83 N16 Ni3 N14 122.0(7)
C83 N16 Ni3 N15 11.1(4)
C83 N16 Ni3 N13 -162.7(4)
C95 N20 Ni4 N22 62.3(8)
C98 N20 Ni4 N22 -103.0(7)
C95 N20 Ni4 N21 172.4(4)
C98 N20 Ni4 N21 7.1(5)
C95 N20 Ni4 N19 -17.2(3)
C98 N20 Ni4 N19 177.4(5)
C105 N22 Ni4 N20 122.4(6)
C105 N22 Ni4 N21 12.7(4)
C105 N22 Ni4 N19 -160.0(4)
C103 N21 Ni4 N20 174.0(4)
C100 N21 Ni4 N20 6.7(4)
C103 N21 Ni4 N22 -21.2(4)
C100 N21 Ni4 N22 171.5(4)
C103 N21 Ni4 N19 121.7(8)
C100 N21 Ni4 N19 -45.7(10)
C91 N19 Ni4 N20 -174.0(5)
C94 N19 Ni4 N20 16.6(3)
C91 N19 Ni4 N22 22.0(5)
C94 N19 Ni4 N22 -147.4(3)
C91 N19 Ni4 N21 -120.8(8)
C94 N19 Ni4 N21 69.8(9)
C137 C138 C139 C140 179(3)
C138 C139 C140 C141 -169(5)
C139 C140 C141 C142 163(4)
