#------------------------------------------------------------------------------
#$Date: 2019-11-17 13:12:41 +0200 (Sun, 17 Nov 2019) $
#$Revision: 230077 $
#$URL: file:///home/coder/svn-repositories/cod/cif/7/04/50/7045051.cif $
#------------------------------------------------------------------------------
#
# This file is available in the Crystallography Open Database (COD),
# http://www.crystallography.net/
#
# All data on this site have been placed in the public domain by the
# contributors.
#
data_7045051
loop_
_publ_author_name
'Morshedi, Mahbod'
'Ward, Jas S.'
'Kruger, Paul E.'
'White, Nicholas G.'
_publ_section_title
;
 Supramolecular frameworks based on
 5,10,15,20-tetra(4-carboxyphenyl)porphyrins.
;
_journal_issue                   3
_journal_name_full
'Dalton transactions (Cambridge, England : 2003)'
_journal_page_first              783
_journal_page_last               790
_journal_paper_doi               10.1039/c7dt04162d
_journal_volume                  47
_journal_year                    2018
_chemical_formula_moiety         'C48 H24 N4 Ni O8, C29 H32 N8'
_chemical_formula_sum            'C77 H56 N12 Ni O8'
_chemical_formula_weight         1336.04
_space_group_crystal_system      tetragonal
_space_group_IT_number           79
_space_group_name_Hall           'I 4'
_space_group_name_H-M_alt        'I 4'
_symmetry_space_group_name_Hall  'I 4'
_symmetry_space_group_name_H-M   'I 4'
_atom_sites_solution_hydrogens   geom
_audit_update_record
;
2017-12-05 deposited with the CCDC.
2017-12-15 downloaded from the CCDC.
;
_cell_angle_alpha                90
_cell_angle_beta                 90
_cell_angle_gamma                90
_cell_formula_units_Z            4
_cell_length_a                   17.556(3)
_cell_length_b                   17.556(3)
_cell_length_c                   56.930(11)
_cell_measurement_reflns_used    939
_cell_measurement_temperature    100(2)
_cell_measurement_theta_max      45.2
_cell_measurement_theta_min      3.0
_cell_volume                     17547(5)
_computing_cell_refinement       'XDS (Kabsch, 1993)'
_computing_data_collection       'BluIce (McPhillips, 2002)'
_computing_data_reduction        'XDS (Kabsch, 1993)'
_computing_molecular_graphics    'Olex2 (Dolomanov et al., 2009)'
_computing_publication_material  'Olex2 (Dolomanov et al., 2009)'
_computing_structure_refinement  'ShelXL (Sheldrick, 2015)'
_computing_structure_solution    'ShelXT (Sheldrick, 2015)'
_diffrn_ambient_temperature      100(2)
_diffrn_measured_fraction_theta_full 0.740
_diffrn_measured_fraction_theta_max 0.992
_diffrn_measurement_device_type  'ADSC Quantum 210r'
_diffrn_measurement_method       '\f scans'
_diffrn_radiation_type           MoK\a
_diffrn_radiation_wavelength     0.71073
_diffrn_reflns_av_R_equivalents  0.0575
_diffrn_reflns_av_unetI/netI     0.0488
_diffrn_reflns_Laue_measured_fraction_full 0.740
_diffrn_reflns_Laue_measured_fraction_max 0.992
_diffrn_reflns_limit_h_max       17
_diffrn_reflns_limit_h_min       -19
_diffrn_reflns_limit_k_max       19
_diffrn_reflns_limit_k_min       -19
_diffrn_reflns_limit_l_max       61
_diffrn_reflns_limit_l_min       -61
_diffrn_reflns_number            42023
_diffrn_reflns_point_group_measured_fraction_full 0.740
_diffrn_reflns_point_group_measured_fraction_max 0.992
_diffrn_reflns_theta_full        25.242
_diffrn_reflns_theta_max         22.746
_diffrn_reflns_theta_min         0.715
_exptl_absorpt_coefficient_mu    0.136
_exptl_absorpt_correction_type   none
_exptl_crystal_colour            red
_exptl_crystal_colour_primary    red
_exptl_crystal_density_diffrn    0.506
_exptl_crystal_description       block
_exptl_crystal_F_000             2776
_exptl_crystal_size_max          0.1
_exptl_crystal_size_mid          0.1
_exptl_crystal_size_min          0.05
_refine_diff_density_max         0.186
_refine_diff_density_min         -0.313
_refine_diff_density_rms         0.014
_refine_ls_abs_structure_details
;
 Refined as an inversion twin.
;
_refine_ls_abs_structure_Flack   0.470(18)
_refine_ls_extinction_method     none
_refine_ls_goodness_of_fit_ref   0.973
_refine_ls_hydrogen_treatment    constr
_refine_ls_matrix_type           full
_refine_ls_number_parameters     375
_refine_ls_number_reflns         11743
_refine_ls_number_restraints     465
_refine_ls_restrained_S_all      1.166
_refine_ls_R_factor_all          0.0732
_refine_ls_R_factor_gt           0.0393
_refine_ls_shift/su_max          0.001
_refine_ls_shift/su_mean         0.000
_refine_ls_structure_factor_coef Fsqd
_refine_ls_weighting_details
'w=1/[\s^2^(Fo^2^)+(0.0573P)^2^] where P=(Fo^2^+2Fc^2^)/3'
_refine_ls_weighting_scheme      calc
_refine_ls_wR_factor_gt          0.0949
_refine_ls_wR_factor_ref         0.1106
_reflns_Friedel_coverage         0.976
_reflns_Friedel_fraction_full    0.739
_reflns_Friedel_fraction_max     0.992
_reflns_number_gt                7204
_reflns_number_total             11743
_reflns_threshold_expression     'I > 2\s(I)'
_cod_data_source_file            c7dt04162d2.cif
_cod_data_source_block           1_4
_cod_depositor_comments
'Adding full bibliography for 7045051--7045058.cif.'
_cod_original_cell_volume        17547(6)
_cod_database_code               7045051
_shelx_space_group_comment
;
The symmetry employed for this shelxl refinement is uniquely defined
by the following loop, which should always be used as a source of
symmetry information in preference to the above space-group names.
They are only intended as comments.
;
_exptl_absorpt_special_details   'XDS (Kabsch, 1993)'
_olex2_refinement_description
;
1. Twinned data refinement
 Scales: 0.530(18)
 0.470(18)
2. Fixed Uiso
 At 1.2 times of:
  All C(H) groups, All N(H,H) groups
3. Restrained distances
 C53-C53_$1
 1.42 with sigma of 0.01
 C73_$1-C73
 1.42 with sigma of 0.01
 C72-C73
 1.42 with sigma of 0.01
 O89-C87 = O88-C87
 1.3 with sigma of 0.02
 N71-C72
 1.42 with sigma of 0.01
 C66-C65
 1.3 with sigma of 0.01
 C53-C52
 1.42 with sigma of 0.01
 N51-C52
 1.42 with sigma of 0.01
 C84-C87
 1.45 with sigma of 0.02
 C81-C56
 1.4 with sigma of 0.01
 C56-C52
 1.5 with sigma of 0.01
 C97-C94
 1.5 with sigma of 0.02
 O99-C97 = O98-C97
 1.3 with sigma of 0.02
 N12-C14
 2.3 with sigma of 0.01
 N11-N12
 2.05 with sigma of 0.02
 H11A-H12A
 2.1 with sigma of 0.01
 C72_$1-C72
 2.3 with sigma of 0.02
 C52_$1-C52
 2.3 with sigma of 0.02
 O88-C84
 2.4 with sigma of 0.02
 O89-C84
 2.4 with sigma of 0.02
4. Restrained planarity
 O88_$2, O89_$2, N11_$1, H11A_$1, H11B_$1, N12_$1, H12A_$1, H12B_$1, C87_$2,
 C13_$1
 with sigma of 0.1
 N71, C73, C73_$1, C72
 with sigma of 0.1
 N61_$1, C62_$1, C64_$1, C63_$1, C65_$1
 with sigma of 0.1
 N71, N61, C62, C64, C73, C73_$1, C63, C65, C66, C72, C72_$1
 with sigma of 0.1
 N51, C52_$1, C52, C53, C53_$1
 with sigma of 0.1
 O88, O89, C83, C87, C85, C81, C84, C82, C86
 with sigma of 0.1
 O98, O99, C93, C95, C97, C96, C92, C94, C91
 with sigma of 0.1
5. Uiso/Uaniso restraints and constraints
Uanis(C13) = Uanis(N11) = Uanis(N12)
6. Rigid body (RIGU) restrains
 N1, H1A, H1B, N2, H2A, H2B, N11, H11A, H11B, N12, H12A, H12B, C5, H5, C4, C17,
  C16, H16, C9, H9, C3, C8, H8, C7, C6, H6, C10, C13, C15, H15, C14, C19, H19,
 C18, H18
 with sigma for 1-2 distances of 0.01 and sigma for 1-3 distances of 0.01
 Ni51, O88, O98, O99, O89, N71, N51, N61, C83, C93, C87, C85, C81, C95, C84,
 C97, C82, C86, C62, C96, C92, C94, C64, C73, C52, C63, C53, C65, C91, C66, C72,
  C56
 with sigma for 1-2 distances of 0.01 and sigma for 1-3 distances of 0.01
7. Others
 Fixed Uiso: H63(0.2) H64(0.2) H85(0.2) H83(0.2) H82(0.2) H86(0.2) H96(0.2)
 H92(0.2) H93(0.2) H95(0.2) H73(0.2) H53(0.2)
 Fixed Z: Ni51(0.570889)
8.a Aromatic/amide H refined with riding coordinates:
 C63(H63), C64(H64), C5(H5), C9(H9), C8(H8), C6(H6), C85(H85), C83(H83),
 C82(H82), C86(H86), C96(H96), C92(H92), C93(H93), C95(H95), C15(H15), C19(H19),
  C18(H18), C16(H16), C73(H73), C53(H53)
8.b Fitted pentagon refined as free rotating group:
 N61(C62,C63,C64,C65)
8.c Fitted hexagon refined as free rotating group:
 C5(C4,C9,C8,C7,C6), C85(C84,C83,C82,C81,C86), C96(C91,C92,C93,C94,C95),
 C15(C14,C19,C18,C17,C16)
8.d X=CH2 refined with riding coordinates:
 N1(H1A,H1B), N2(H2A,H2B), N11(H11A,H11B), N12(H12A,H12B)
;
_shelx_res_file
;
TITL 17-65_a.res in I4
REM Old TITL 17-65 in I4/m
REM SHELXT solution in I4
REM R1 0.431, Rweak 0.051, Alpha 0.169, Orientation as input
REM Flack x = 0.496 ( 0.004 ) from Parsons' quotients
REM Formula found by SHELXT: C55 N21 O17 Cl2 Br
CELL 0.71073 17.556 17.556 56.9304 90 90 90
ZERR 4 0.0025 0.0025 0.0114 0 0 0
LATT -2
SYMM -X,-Y,+Z
SYMM -Y,+X,+Z
SYMM +Y,-X,+Z
SFAC C H N Ni O
UNIT 308 224 48 4 32
EQIV $1 1-X,2-Y,+Z
EQIV $2 1-Y,+X,+Z
DFIX 1.42 0.01 C53 C53_$1
DFIX 1.42 0.01 C73_$1 C73
DFIX 1.42 0.01 C72 C73
DFIX 1.3 O89 C87 O88 C87
DFIX 1.42 0.01 N71 C72
DFIX 1.3 0.01 C66 C65
DFIX 1.42 0.01 C53 C52
DFIX 1.42 0.01 N51 C52
DFIX 1.45 C84 C87
DFIX 1.4 0.01 C81 C56
DFIX 1.5 0.01 C56 C52
DFIX 1.5 C97 C94
DFIX 1.3 O99 C97 O98 C97
DANG 2.3 0.01 N12 C14
DANG 2.05 0.02 N11 N12
DANG 2.1 0.01 H11a H12a
DANG 2.3 0.02 C72_$1 C72
DANG 2.3 0.02 C52_$1 C52
DANG 2.4 0.02 O88 C84
DANG 2.4 0.02 O89 C84
FLAT O88_$2 O89_$2 N11_$1 H11a_$1 H11b_$1 N12_$1 H12a_$1 H12b_$1 C87_$2 C13_$1
FLAT N71 C73 C73_$1 C72
FLAT N61_$1 C62_$1 C64_$1 C63_$1 C65_$1
FLAT N71 N61 C62 C64 C73 C73_$1 C63 C65 C66 C72 C72_$1
FLAT N51 C52_$1 C52 C53 C53_$1
FLAT O88 O89 C83 C87 C85 C81 C84 C82 C86
FLAT O98 O99 C93 C95 C97 C96 C92 C94 C91
RIGU 0.01 0.01 N1 H1a H1b N2 H2a H2b N11 H11a H11b N12 H12a H12b C5 H5 C4 =
 C17 C16 H16 C9 H9 C3 C8 H8 C7 C6 H6 C10 C13 C15 H15 C14 C19 H19 C18 H18
RIGU 0.01 0.01 Ni51 > N71 N51 N61 C83 C93 C87 C85 C81 C95 C84 C97 C82 C86 =
 C62 C96 C92 C94 C64 C73 C52 C63 C53 C65 C91 C66 > C56
EADP C13 N11 N12

L.S. 4 0 377
PLAN  20
TEMP -173(2)
BOND $H
list 4
ABIN
fmap 2
acta
TWIN -1 0 0 0 -1 0 0 0 -1 2
REM <olex2.extras>
REM <HklSrc "%.\\1_4.hkl">
REM </olex2.extras>

WGHT    0.057300
BASF   0.46967
FVAR       0.30132
NI51  4    0.500000    1.000000   10.570889    10.50000    0.14513    0.14109 =
         0.04137    0.00000    0.00000    0.04126
O88   5    0.783954    0.813876    0.702887    11.00000    0.23503    0.21157 =
         0.22604    0.11075   -0.07656    0.03887
O98   5    0.707126    0.698296    0.437438    11.00000    0.26994    0.31436 =
         0.22957   -0.18243    0.18277   -0.07794
O99   5    0.802762    0.788131    0.437346    11.00000    0.26044    0.28935 =
         0.21875   -0.19666    0.13894   -0.05935
O89   5    0.691578    0.708427    0.702039    11.00000    0.26942    0.26888 =
         0.20617    0.09436   -0.12791   -0.01719
N71   3    0.500000    1.000000    0.534278    10.50000    0.18975    0.20278 =
         0.05185    0.00000    0.00000    0.08626
N1    3    0.736091    0.849412    0.895384    11.00000    0.14834    0.14884 =
         0.07055    0.03954   -0.04744   -0.02109
AFIX  93
H1A   2    0.760406    0.821942    0.905917    11.00000   -1.20000
H1B   2    0.755594    0.892816    0.890526    11.00000   -1.20000
AFIX   0

N51   3    0.500000    1.000000    0.603241    10.50000    0.16109    0.15975 =
         0.02938    0.00000    0.00000    0.08106
AFIX  56
N61   3    0.578566    0.919550    0.569352    11.00000    0.21510    0.17725 =
         0.09615   -0.00692   -0.00470    0.12716
C62   1    0.611147    0.886018    0.589705    11.00000    0.24649    0.19854 =
         0.08745   -0.00589   -0.03869    0.10924
C63   1    0.667141    0.832827    0.582293    11.00000    0.30639    0.29392 =
         0.11016    0.01863   -0.01603    0.19445
AFIX  43
H63   2    0.697855    0.802181    0.592265    11.00000   10.20000
AFIX  55
C64   1    0.669165    0.833486    0.557359    11.00000    0.28818    0.25354 =
         0.13161    0.01520    0.00488    0.18091
AFIX  43
H64   2    0.701471    0.803359    0.547721    11.00000   10.20000
AFIX  55
C65   1    0.614423    0.887084    0.549361    11.00000    0.20369    0.20342 =
         0.11623    0.00458   -0.02110    0.11794
AFIX   0

N2    3    0.648750    0.760768    0.895640    11.00000    0.13807    0.14089 =
         0.09534    0.05371   -0.04969   -0.01127
AFIX  93
H2A   2    0.674953    0.735136    0.906183    11.00000   -1.20000
H2B   2    0.605139    0.742706    0.890440    11.00000   -1.20000
AFIX   0
N11   3    0.623842    1.211337    0.735131    11.00000    0.18975    0.19433 =
         0.11619    0.08516    0.06508    0.05051
AFIX  93
H11A  2    0.629531    1.216993    0.719873    11.00000   -1.20000
H11B  2    0.590064    1.238963    0.742737    11.00000   -1.20000
AFIX   0
N12   3    0.708678    1.126916    0.736414    11.00000    0.18975    0.19433 =
         0.11619    0.08516    0.06508    0.05051
AFIX  93
H12A  2    0.716423    1.130529    0.721183    11.00000   -1.20000
H12B  2    0.735403    1.094423    0.744817    11.00000   -1.20000
AFIX  66
C5    1    0.565325    0.840325    0.861417    11.00000    0.14488    0.13199 =
         0.06913    0.04163   -0.04291   -0.02407
AFIX  43
H5    2    0.548735    0.791443    0.866423    11.00000   -1.20000
AFIX  65
C4    1    0.628966    0.873614    0.871692    11.00000    0.10677    0.12995 =
         0.03952    0.01862   -0.00879   -0.00307
C9    1    0.653240    0.945136    0.864368    11.00000    0.11943    0.15130 =
         0.09237    0.04628   -0.04209   -0.02945
AFIX  43
H9    2    0.696736    0.967888    0.871391    11.00000   -1.20000
AFIX  65
C8    1    0.613872    0.983370    0.846769    11.00000    0.10375    0.14230 =
         0.09654    0.05121   -0.03284   -0.02573
AFIX  43
H8    2    0.630462    1.032252    0.841764    11.00000   -1.20000
AFIX  65
C7    1    0.550230    0.950081    0.836494    11.00000    0.08292    0.09967 =
         0.04317   -0.00328   -0.00075    0.01172
C6    1    0.525956    0.878559    0.843817    11.00000    0.12654    0.12690 =
         0.09035    0.05701   -0.04323   -0.02612
AFIX  43
H6    2    0.482460    0.855808    0.836794    11.00000   -1.20000
AFIX   0

C87   1    0.727547    0.771433    0.697871    11.00000    0.24359    0.23033 =
         0.22481    0.08554   -0.07172    0.09821
AFIX  66
C85   1    0.630327    0.767806    0.662665    11.00000    0.23764    0.28814 =
         0.14297    0.09477   -0.05578    0.03364
AFIX  43
H85   2    0.609345    0.722567    0.669144    11.00000   10.20000
AFIX  65
C84   1    0.690970    0.803764    0.673776    11.00000    0.25292    0.26846 =
         0.15572    0.05329   -0.05528    0.07796
C83   1    0.721669    0.869956    0.664297    11.00000    0.21690    0.25099 =
         0.15920    0.06670   -0.06916    0.04567
AFIX  43
H83   2    0.763116    0.894531    0.671890    11.00000   10.20000
AFIX  65
C82   1    0.691725    0.900190    0.643707    11.00000    0.24531    0.22621 =
         0.12716    0.03155   -0.04416    0.09231
AFIX  43
H82   2    0.712707    0.945429    0.637228    11.00000   10.20000
AFIX  65
C81   1    0.631082    0.864232    0.632596    11.00000    0.23611    0.21987 =
         0.10484    0.02606   -0.03660    0.13180
C86   1    0.600382    0.798041    0.642075    11.00000    0.28594    0.26678 =
         0.14449    0.06000   -0.07553    0.07924
AFIX  43
H86   2    0.558935    0.773465    0.634482    11.00000   10.20000
AFIX   0

C3    1    0.675253    0.827288    0.887505    11.00000    0.13108    0.14261 =
         0.05487    0.02196   -0.03435   -0.00068
C97   1    0.744394    0.756737    0.446546    11.00000    0.25707    0.30630 =
         0.22055   -0.16192    0.11834   -0.06539
AFIX  66
C96   1    0.712465    0.892018    0.499776    11.00000    0.22728    0.19521 =
         0.13849   -0.06423    0.03338    0.07261
AFIX  43
H96   2    0.735323    0.935428    0.506817    11.00000   10.20000
AFIX  65
C91   1    0.646022    0.861618    0.509179    11.00000    0.20267    0.24745 =
         0.07731   -0.01741   -0.00518    0.10082
C92   1    0.612577    0.798103    0.498878    11.00000    0.21219    0.25390 =
         0.13808   -0.05826    0.04167    0.07844
AFIX  43
H92   2    0.567166    0.777327    0.505305    11.00000   10.20000
AFIX  65
C93   1    0.645576    0.764987    0.479173    11.00000    0.19989    0.26888 =
         0.15456   -0.08893    0.06637   -0.01802
AFIX  43
H93   2    0.622718    0.721578    0.472132    11.00000   10.20000
AFIX  65
C94   1    0.712019    0.795386    0.469769    11.00000    0.21588    0.22987 =
         0.14255   -0.07935    0.05876    0.02557
C95   1    0.745465    0.858901    0.480071    11.00000    0.21031    0.21575 =
         0.17450   -0.09212    0.07250    0.00757
AFIX  43
H95   2    0.790876    0.879677    0.473644    11.00000   10.20000
AFIX   0

C10   1    0.500000    1.000000    0.819565    10.50000    0.08421    0.07856 =
         0.04454    0.00000    0.00000    0.00702
C13   1    0.662286    1.165786    0.745604    11.00000    0.18975    0.19433 =
         0.11619    0.08516    0.06508    0.05051
AFIX  66
C15   1    0.648163    1.051345    0.773938    11.00000    0.11930    0.14500 =
         0.10966    0.05361    0.03518    0.01620
AFIX  43
H15   2    0.690426    1.027877    0.766440    11.00000   -1.20000
AFIX  65
C14   1    0.625972    1.124395    0.767470    11.00000    0.14376    0.14166 =
         0.11174    0.05784    0.04631   -0.00334
C19   1    0.564134    1.158731    0.778441    11.00000    0.15206    0.15648 =
         0.12957    0.09078    0.04562    0.03360
AFIX  43
H19   2    0.548967    1.208658    0.774020    11.00000   -1.20000
AFIX  65
C18   1    0.524487    1.120019    0.795880    11.00000    0.14504    0.13686 =
         0.08966    0.05854    0.04942    0.03778
AFIX  43
H18   2    0.482223    1.143487    0.803379    11.00000   -1.20000
AFIX  65
C17   1    0.546677    1.046969    0.802348    11.00000    0.08393    0.10100 =
         0.04755    0.00353   -0.01602    0.00418
C16   1    0.608515    1.012631    0.791378    11.00000    0.13266    0.15233 =
         0.08822    0.04657    0.04380    0.03065
AFIX  43
H16   2    0.623681    0.962704    0.795798    11.00000   -1.20000
AFIX   0

C73   1    0.531320    0.975499    0.496309    11.00000    0.32013    0.27575 =
         0.04053   -0.02114   -0.00606    0.11337
AFIX  43
H73   2    0.557755    0.957510    0.482847    11.00000   10.20000
AFIX   0
C52   1    0.541534    0.951254    0.618690    11.00000    0.27367    0.26883 =
         0.05141    0.03384   -0.01032    0.14390
C53   1    0.524015    0.969744    0.642779    11.00000    0.20368    0.25532 =
         0.05182    0.01347   -0.02928    0.02209
AFIX  43
H53   2    0.542815    0.944052    0.656272    11.00000   10.20000
AFIX   0
C66   1    0.598298    0.907602    0.528438    11.00000    0.20812    0.21639 =
         0.07366   -0.00944   -0.00698    0.10300
C72   1    0.548494    0.957301    0.520127    11.00000    0.26436    0.28802 =
         0.04385    0.00299   -0.00082    0.14962
C56   1    0.596031    0.890178    0.611425    11.00000    0.23510    0.24079 =
         0.09011    0.01595   -0.01579    0.11694
HKLF 4

REM  17-65_a.res in I4
REM R1 =  0.0393 for    7204 Fo > 4sig(Fo)  and  0.0732 for all   11743 data
REM    375 parameters refined using    465 restraints

END

WGHT      0.0573      0.0000

REM Highest difference peak  0.186,  deepest hole -0.313,  1-sigma level  0.014
Q1    1   0.5531  0.9477  0.8007  11.00000  0.05    0.10
Q2    1   0.4636  1.0398  0.5604  11.00000  0.05    0.10
Q3    1   0.6800  1.1736  0.7489  11.00000  0.05    0.09
Q4    1   0.6690  0.6988  0.7028  11.00000  0.05    0.08
Q5    1   0.6565  0.9145  0.8608  11.00000  0.05    0.08
Q6    1   0.5339  0.9605  0.5813  11.00000  0.05    0.08
Q7    1   0.4462  0.9438  0.5239  11.00000  0.05    0.07
Q8    1   0.5384  0.9145  0.8390  11.00000  0.05    0.07
Q9    1   0.5481  1.0484  0.8379  11.00000  0.05    0.07
Q10   1   0.5689  1.0444  0.8026  11.00000  0.05    0.07
Q11   1   0.7881  0.8420  0.7085  11.00000  0.05    0.07
Q12   1   0.5000  1.0000  0.6381  10.50000  0.05    0.07
Q13   1   0.5405  1.0731  0.8031  11.00000  0.05    0.07
Q14   1   0.5863  0.9585  0.8378  11.00000  0.05    0.07
Q15   1   0.7768  1.0671  0.7492  11.00000  0.05    0.07
Q16   1   0.5083  1.0730  0.7916  11.00000  0.05    0.07
Q17   1   0.5370  0.9351  0.8369  11.00000  0.05    0.07
Q18   1   0.4546  0.9570  0.5846  11.00000  0.05    0.06
Q19   1   0.7147  1.2667  0.7388  11.00000  0.05    0.06
Q20   1   0.5520  0.7289  0.8932  11.00000  0.05    0.06
;
_shelx_res_checksum              86324
_shelx_fab_file
;
-19 -1 -2 2.8419 5.2065
-18 -6 -6 2.6188 0.5110
-18 -6 -4 0.3238 -2.9198
-18 -6 -2 0.0042 1.6717
-18 -5 -11 0.7955 -1.0746
-18 -5 -9 -2.9546 -1.5536
-18 -5 -7 -0.0436 4.4383
-18 -5 -5 -1.9381 -3.5428
-18 -5 -3 -1.0636 -0.7401
-18 -5 -1 -1.0778 -6.7300
-18 -4 -16 -1.9033 -7.3920
-18 -4 -14 1.0311 3.7466
-18 -4 -12 -1.4942 -0.7453
-18 -4 -10 -0.6941 0.0728
-18 -4 -8 -3.6417 -3.8086
-18 -4 -6 3.3506 -1.2877
-18 -4 -4 0.4897 -2.2634
-18 -4 -2 1.3977 -1.5446
-18 -3 -17 -3.0328 0.2263
-18 -3 -15 -1.1609 0.5881
-18 -3 -13 0.7209 0.2870
-18 -3 -11 -0.4984 -1.3784
-18 -3 -9 -0.4301 0.3658
-18 -3 -7 -0.5608 1.1707
-18 -3 -5 1.1623 0.5432
-18 -3 -3 2.1122 0.6309
-18 -3 -1 -0.8399 -1.1924
-18 -2 -18 -0.6513 2.3837
-18 -2 -16 -0.2286 -0.4436
-18 -2 -14 1.7976 -3.2895
-18 -2 -12 -4.2234 3.0535
-18 -2 -10 -0.7982 -0.2320
-18 -2 -8 4.1543 -2.1411
-18 -2 -6 2.2501 -3.2840
-18 -2 -4 1.4606 4.7555
-18 -2 -2 3.4023 5.6325
-18 -1 -19 -0.7367 1.0006
-18 -1 -17 1.1955 -0.5012
-18 -1 -15 5.7765 0.9886
-18 -1 -13 -1.3825 -1.3604
-18 -1 -11 -0.8682 1.7431
-18 -1 -9 -7.4831 -3.8097
-18 -1 -7 2.1448 0.4099
-18 -1 -5 1.7184 0.7545
-18 -1 -3 1.2800 7.2600
-18 -1 -1 -0.2821 0.0581
-17 -8 -11 0.6272 3.3433
-17 -8 -9 -1.5734 1.0461
-17 -8 -7 2.0277 -1.7925
-17 -8 -5 2.8419 1.0357
-17 -8 -3 1.0143 1.4167
-17 -8 -1 1.6546 -5.3403
-17 -7 -16 1.9628 -1.9981
-17 -7 -14 1.4073 -0.2330
-17 -7 -12 -2.2209 -0.7866
-17 -7 -10 -1.0474 2.9806
-17 -7 -8 -4.9264 -5.5605
-17 -7 -6 -4.0481 -2.2146
-17 -7 -4 -2.1286 -2.8728
-17 -7 -2 2.4423 0.0628
-17 -6 -19 -1.4799 -1.1647
-17 -6 -17 -1.2197 -1.9449
-17 -6 -15 3.0525 -0.2127
-17 -6 -13 0.4843 0.7786
-17 -6 -11 -0.2066 -1.7205
-17 -6 -9 1.8108 -2.9335
-17 -6 -7 5.0502 -0.5312
-17 -6 -5 0.5604 1.7158
-17 -6 -3 -0.9007 1.1238
-17 -6 -1 -0.3585 -1.3831
-17 -5 -22 -2.6786 0.5446
-17 -5 -20 -2.3819 0.6515
-17 -5 -18 -1.1481 -0.2898
-17 -5 -16 1.4185 -1.6550
-17 -5 -14 2.7443 -0.5811
-17 -5 -12 0.3884 -5.1702
-17 -5 -10 0.8811 -0.2551
-17 -5 -8 -3.7842 -3.0947
-17 -5 -6 0.6139 0.5328
-17 -5 -4 -2.6104 3.9875
-17 -5 -2 -0.8681 -0.9011
-17 -4 -23 -1.6528 5.9906
-17 -4 -21 -0.3952 0.8640
-17 -4 -19 1.5936 -0.6335
-17 -4 -17 -0.6196 -1.5302
-17 -4 -15 1.7010 -0.7578
-17 -4 -13 -0.9068 3.2159
-17 -4 -11 3.2679 -4.1149
-17 -4 -9 0.0031 0.2204
-17 -4 -7 -2.5447 0.7810
-17 -4 -5 1.9906 2.2424
-17 -4 -3 -0.9087 0.4013
-17 -4 -1 0.7063 -0.8120
-17 -3 -26 -3.0040 -3.0575
-17 -3 -24 1.3404 1.6902
-17 -3 -22 -1.5021 2.9128
-17 -3 -20 -0.1060 0.1876
-17 -3 -18 5.1523 1.8222
-17 -3 -16 0.2827 0.3403
-17 -3 -14 1.6313 -1.4448
-17 -3 -12 6.4592 -0.9385
-17 -3 -10 -0.8643 4.7655
-17 -3 -8 0.4093 -1.8726
-17 -3 -6 1.7680 1.1164
-17 -3 -4 2.7386 4.8942
-17 -3 -2 -1.0646 -0.7027
-17 -2 -27 2.8313 -0.7682
-17 -2 -25 -3.2550 -2.7240
-17 -2 -23 2.4901 2.3907
-17 -2 -21 -2.7784 6.0378
-17 -2 -19 -0.3087 -1.3152
-17 -2 -17 1.7325 4.1964
-17 -2 -15 0.1409 0.3225
-17 -2 -13 -1.9095 -0.2776
-17 -2 -11 1.0760 1.0764
-17 -2 -9 -0.1384 0.9040
-17 -2 -7 0.9720 -0.0813
-17 -2 -5 2.4735 -3.0886
-17 -2 -3 -0.4294 0.5815
-17 -2 -1 -0.4845 0.5806
-17 -1 -26 0.8702 2.6946
-17 -1 -24 -0.0532 0.7902
-17 -1 -22 -4.4828 2.1504
-17 -1 -20 4.9970 0.4134
-17 -1 -18 6.1798 1.4980
-17 -1 -16 1.3500 -1.2738
-17 -1 -14 -3.5148 -5.9185
-17 -1 -12 -5.0997 1.0132
-17 -1 -10 0.6798 -5.7028
-17 -1 -8 -0.2785 3.1913
-17 -1 -6 0.4029 -0.0936
-17 -1 -4 1.4918 1.0695
-17 -1 -2 3.1678 -1.2745
-16 -10 -8 -0.0529 -2.5662
-16 -10 -6 0.4351 -1.4119
-16 -10 -4 -1.9757 0.4209
-16 -10 -2 -1.6484 -1.2258
-16 -9 -17 2.3986 0.4474
-16 -9 -15 -5.1025 5.2936
-16 -9 -13 -0.8899 0.2757
-16 -9 -11 4.4533 -3.2603
-16 -9 -9 1.5901 -1.2303
-16 -9 -7 2.5448 1.7580
-16 -9 -5 1.5976 3.1251
-16 -9 -3 -0.1658 -2.7753
-16 -9 -1 -2.6436 -1.8078
-16 -8 -20 -3.1570 5.1649
-16 -8 -18 2.4745 -1.4967
-16 -8 -16 -2.5907 1.7255
-16 -8 -14 4.9269 0.4563
-16 -8 -12 0.3408 -2.2887
-16 -8 -10 -10.5909 -4.5127
-16 -8 -8 -0.7062 -1.7394
-16 -8 -6 -1.6982 -2.1774
-16 -8 -4 -0.8729 -0.1433
-16 -8 -2 0.5313 0.2050
-16 -7 -23 2.3811 1.8329
-16 -7 -21 0.8981 2.2277
-16 -7 -19 0.8301 -1.8973
-16 -7 -17 0.2802 1.6083
-16 -7 -15 4.1272 -0.9941
-16 -7 -13 0.9397 -1.4256
-16 -7 -11 1.7109 1.8425
-16 -7 -9 -0.0266 0.4079
-16 -7 -7 10.6518 -3.7772
-16 -7 -5 -1.1507 3.8421
-16 -7 -3 1.5225 -1.5054
-16 -7 -1 -3.5198 -3.2107
-16 -6 -26 0.6770 3.6247
-16 -6 -24 -6.8653 -3.4974
-16 -6 -22 2.7924 1.7430
-16 -6 -20 -3.4118 1.4032
-16 -6 -18 0.5154 0.7044
-16 -6 -16 3.3074 4.9263
-16 -6 -14 -1.6791 -9.1379
-16 -6 -12 -1.1195 -1.8858
-16 -6 -10 0.1133 2.9067
-16 -6 -8 1.2937 -1.0194
-16 -6 -6 -0.7032 1.3710
-16 -6 -4 -0.6336 -2.7656
-16 -6 -2 -0.2806 -3.9185
-16 -5 -29 -2.1729 5.7107
-16 -5 -27 -2.0789 1.0128
-16 -5 -25 0.1503 -5.6203
-16 -5 -23 -0.4337 3.0272
-16 -5 -21 0.1280 -0.8895
-16 -5 -19 0.1503 3.4515
-16 -5 -17 0.5751 1.3043
-16 -5 -15 2.9719 1.3580
-16 -5 -13 2.1195 0.9800
-16 -5 -11 5.2520 1.1973
-16 -5 -9 1.5193 -1.1144
-16 -5 -7 1.8784 2.5129
-16 -5 -5 -1.8414 4.7787
-16 -5 -3 0.0647 0.6145
-16 -5 -1 -0.7928 -0.6960
-16 -4 -30 0.1659 -0.2209
-16 -4 -28 -2.4755 -1.5538
-16 -4 -26 -1.6975 -0.6305
-16 -4 -24 -3.6691 3.7519
-16 -4 -22 1.8784 -0.1973
-16 -4 -20 0.5998 1.8047
-16 -4 -18 3.0603 -5.0885
-16 -4 -16 -0.4030 0.7573
-16 -4 -14 4.8425 -3.1639
-16 -4 -12 4.2203 -5.0696
-16 -4 -10 0.3808 5.2859
-16 -4 -8 -0.8543 1.7290
-16 -4 -6 1.5120 1.9213
-16 -4 -4 -4.7149 -1.6526
-16 -4 -2 1.7018 0.1527
-16 -3 -31 -3.7358 0.8719
-16 -3 -29 2.7510 -1.0129
-16 -3 -27 -1.1515 -0.4263
-16 -3 -25 -1.4124 3.2808
-16 -3 -23 2.4226 1.3431
-16 -3 -21 0.3445 -0.8315
-16 -3 -19 -7.7436 -0.9006
-16 -3 -17 -0.0555 -1.6282
-16 -3 -15 2.4459 3.1502
-16 -3 -13 3.2775 -5.6108
-16 -3 -11 -1.9009 -1.5951
-16 -3 -9 5.6368 0.8416
-16 -3 -7 1.6983 -1.8833
-16 -3 -5 -2.8000 -2.7895
-16 -3 -3 -0.2986 -0.2164
-16 -3 -1 4.5551 -0.3466
-16 -2 -32 6.4105 -1.7197
-16 -2 -30 -1.3811 2.1106
-16 -2 -28 1.6009 -1.6812
-16 -2 -26 -0.8192 -3.7367
-16 -2 -24 -0.7950 -2.4711
-16 -2 -22 -2.1353 -2.3195
-16 -2 -20 0.1780 -0.2811
-16 -2 -18 1.6671 1.5250
-16 -2 -16 -5.7212 8.6611
-16 -2 -14 -3.6466 -5.1772
-16 -2 -12 1.6892 1.0190
-16 -2 -10 6.1295 2.2684
-16 -2 -8 1.8661 -0.1081
-16 -2 -6 -0.2967 1.0136
-16 -2 -4 -1.1092 4.7850
-16 -2 -2 0.4796 -2.3495
-16 -1 -33 -0.6394 -2.0607
-16 -1 -31 -0.0054 -5.0319
-16 -1 -29 -3.2191 -2.9917
-16 -1 -27 0.3808 -1.1206
-16 -1 -25 -0.9021 -0.8544
-16 -1 -23 -2.2424 6.8612
-16 -1 -21 1.4495 3.6365
-16 -1 -19 1.9081 1.6720
-16 -1 -17 1.9261 -6.3879
-16 -1 -15 3.0824 -0.2699
-16 -1 -13 -1.3201 -0.1903
-16 -1 -11 0.2235 2.2864
-16 -1 -9 -0.5790 1.2714
-16 -1 -7 -0.1828 -1.1351
-16 -1 -5 0.6477 0.2391
-16 -1 -3 -0.7691 -0.0155
-16 -1 -1 0.9268 1.8290
-15 -11 -12 -3.2516 5.4532
-15 -11 -10 1.9975 1.7796
-15 -11 -8 1.6623 5.1756
-15 -11 -6 -2.2599 -0.3313
-15 -11 -4 -5.7929 -2.9364
-15 -11 -2 -0.6076 -2.9476
-15 -10 -19 -1.3908 -1.0670
-15 -10 -17 4.5073 -0.5519
-15 -10 -15 0.0983 -2.1257
-15 -10 -13 1.4949 1.2304
-15 -10 -11 -2.9451 -0.1654
-15 -10 -9 2.9577 -3.6961
-15 -10 -7 3.3625 -7.5271
-15 -10 -5 1.8680 -0.3615
-15 -10 -3 1.3354 -4.1295
-15 -10 -1 3.0362 2.0078
-15 -9 -24 -0.8350 -1.0703
-15 -9 -22 4.9823 -0.2565
-15 -9 -20 -0.4284 4.0969
-15 -9 -18 -0.2488 -2.1491
-15 -9 -16 -3.3967 4.4753
-15 -9 -14 -0.4905 3.8078
-15 -9 -12 -2.2725 1.5226
-15 -9 -10 -3.2563 -2.6270
-15 -9 -8 0.7623 1.8036
-15 -9 -6 1.3718 2.5153
-15 -9 -4 -1.6475 -0.6286
-15 -9 -2 -5.2185 2.0072
-15 -8 -27 -1.5201 2.5238
-15 -8 -25 -5.3561 -1.1954
-15 -8 -23 -1.9862 -3.6010
-15 -8 -21 2.7343 2.7091
-15 -8 -19 -0.5533 -4.0900
-15 -8 -17 -1.5748 1.5883
-15 -8 -15 -0.8843 5.2114
-15 -8 -13 0.3105 2.1003
-15 -8 -11 0.1836 -4.7329
-15 -8 -9 2.1294 -1.9198
-15 -8 -7 4.6756 0.2216
-15 -8 -5 -1.8373 1.2650
-15 -8 -3 6.1246 4.0397
-15 -8 -1 -1.7692 -1.4017
-15 -7 -30 -3.4119 2.0129
-15 -7 -28 -5.5900 -0.2304
-15 -7 -26 4.7469 2.3643
-15 -7 -24 -2.0899 -1.3378
-15 -7 -22 1.4486 0.0437
-15 -7 -20 4.1733 -2.0481
-15 -7 -18 0.9113 2.7787
-15 -7 -16 -1.5924 2.0466
-15 -7 -14 4.6392 -1.5423
-15 -7 -12 4.2077 0.7960
-15 -7 -10 -9.1798 -0.4727
-15 -7 -8 -1.3223 3.1777
-15 -7 -6 0.5597 -1.4589
-15 -7 -4 0.5495 4.3072
-15 -7 -2 1.7958 -2.7757
-15 -6 -31 1.1051 1.7660
-15 -6 -29 1.1393 5.6374
-15 -6 -27 4.4050 1.5526
-15 -6 -25 3.8608 -0.5499
-15 -6 -23 1.1361 2.3318
-15 -6 -21 2.7606 0.7239
-15 -6 -19 -2.8516 3.5663
-15 -6 -17 -0.3543 3.9958
-15 -6 -15 -3.0082 2.6959
-15 -6 -13 -1.3763 4.3421
-15 -6 -11 -4.7389 0.8158
-15 -6 -9 5.5338 -3.7272
-15 -6 -7 0.9187 4.4657
-15 -6 -5 -0.7458 -2.9885
-15 -6 -3 1.4336 -1.7747
-15 -6 -1 1.3931 -1.6748
-15 -5 -34 -2.0082 -2.3006
-15 -5 -32 -2.4567 -0.7836
-15 -5 -30 1.0404 0.4659
-15 -5 -28 0.8238 -3.9997
-15 -5 -26 1.1062 2.1016
-15 -5 -24 -3.8006 0.7755
-15 -5 -22 0.4841 -1.8228
-15 -5 -20 1.3018 -3.6284
-15 -5 -18 -10.6799 -10.4812
-15 -5 -16 1.3022 -8.3420
-15 -5 -14 -1.5281 -1.3269
-15 -5 -12 0.9758 -0.3484
-15 -5 -10 2.9162 -3.0926
-15 -5 -8 -4.3126 -0.9640
-15 -5 -6 -0.0889 1.7361
-15 -5 -4 -1.7493 -7.7097
-15 -5 -2 -5.7037 -0.0564
-15 -4 -35 0.5502 -1.2689
-15 -4 -33 -0.8458 1.2587
-15 -4 -31 3.1519 1.1607
-15 -4 -29 3.1197 1.8638
-15 -4 -27 0.3765 -1.9035
-15 -4 -25 -0.9942 -4.6774
-15 -4 -23 -1.6559 0.5224
-15 -4 -21 -2.3910 5.7339
-15 -4 -19 -3.6688 3.9597
-15 -4 -17 -7.0562 -5.5118
-15 -4 -15 -0.4786 -1.3112
-15 -4 -13 0.9523 -0.2397
-15 -4 -11 -0.9116 6.0162
-15 -4 -9 3.9698 -0.5902
-15 -4 -7 -3.4086 0.3582
-15 -4 -5 1.0079 1.5432
-15 -4 -3 0.3789 -0.7301
-15 -4 -1 1.1925 -2.8334
-15 -3 -36 1.5152 3.3958
-15 -3 -34 -1.7755 -5.6768
-15 -3 -32 5.2493 -0.1924
-15 -3 -30 -2.1862 -4.1479
-15 -3 -28 -1.4107 -1.2912
-15 -3 -26 4.9230 2.8013
-15 -3 -24 -3.9647 2.4671
-15 -3 -22 1.8951 -2.2922
-15 -3 -20 0.9816 2.1975
-15 -3 -18 -0.5924 -7.3730
-15 -3 -16 4.1577 2.6756
-15 -3 -14 2.7466 -0.2719
-15 -3 -12 4.5609 -1.1343
-15 -3 -10 -2.6833 1.5925
-15 -3 -8 -0.4385 1.2458
-15 -3 -6 1.3654 2.8751
-15 -3 -4 0.5961 -2.9796
-15 -3 -2 3.6009 3.1294
-15 -2 -37 1.0733 1.2110
-15 -2 -35 0.0811 1.9236
-15 -2 -33 0.5374 0.2501
-15 -2 -31 1.2550 -1.1865
-15 -2 -29 -0.2968 -2.9573
-15 -2 -27 -1.5241 0.2298
-15 -2 -25 -1.7265 -1.1404
-15 -2 -23 5.3644 -1.3971
-15 -2 -21 -2.3191 6.3403
-15 -2 -19 0.2298 -1.6814
-15 -2 -17 3.7923 -0.0672
-15 -2 -15 -5.1883 2.6444
-15 -2 -13 2.8644 -0.9142
-15 -2 -11 0.1789 0.6319
-15 -2 -9 0.1438 4.4018
-15 -2 -7 4.0252 -1.1420
-15 -2 -5 -1.5580 2.3066
-15 -2 -3 1.3604 -1.9195
-15 -2 -1 -0.8098 2.5121
-15 -1 -38 -4.6545 -5.0013
-15 -1 -36 -0.5159 -3.2235
-15 -1 -34 -2.8146 -1.5958
-15 -1 -32 0.2416 -2.0149
-15 -1 -30 -1.8157 0.8195
-15 -1 -28 -3.3545 0.4261
-15 -1 -26 -0.7103 1.2106
-15 -1 -24 -0.4731 7.2869
-15 -1 -22 3.1732 0.9187
-15 -1 -20 2.2325 0.7015
-15 -1 -18 -1.5592 -0.3654
-15 -1 -16 -3.3821 0.7207
-15 -1 -14 1.5495 1.7648
-15 -1 -12 -3.9885 -0.3688
-15 -1 -10 -1.9047 -5.1660
-15 -1 -8 -4.0073 2.8720
-15 -1 -6 -1.9272 3.2271
-15 -1 -4 5.2274 2.1132
-15 -1 -2 7.8798 0.9331
-14 -12 -14 0.3210 0.1996
-14 -12 -12 1.7161 -0.3053
-14 -12 -10 -1.9642 0.2219
-14 -12 -8 3.2638 6.7355
-14 -12 -6 1.6761 -0.1227
-14 -12 -4 4.3641 -3.5393
-14 -12 -2 -0.1826 0.6328
-14 -11 -21 2.2346 0.2120
-14 -11 -19 0.8015 1.6393
-14 -11 -17 3.6829 -0.4997
-14 -11 -15 -0.0639 2.4837
-14 -11 -13 -7.5291 3.1398
-14 -11 -11 -1.3797 4.4113
-14 -11 -9 1.1789 -0.1146
-14 -11 -7 -1.2223 2.5672
-14 -11 -5 0.5964 3.1243
-14 -11 -3 -2.9454 -4.9326
-14 -11 -1 -3.4628 1.5574
-14 -10 -26 -9.1687 -0.1643
-14 -10 -24 0.2704 1.5904
-14 -10 -22 -0.9786 -0.8964
-14 -10 -20 2.2099 1.4703
-14 -10 -18 -2.9563 -0.2898
-14 -10 -16 4.7698 -1.4237
-14 -10 -14 2.0011 3.2831
-14 -10 -12 4.0701 3.6098
-14 -10 -10 -2.2774 -4.5102
-14 -10 -8 -1.1982 -4.9326
-14 -10 -6 -1.4251 0.2512
-14 -10 -4 -1.5874 2.5802
-14 -10 -2 6.1692 -4.0820
-14 -9 -29 0.8219 -1.9021
-14 -9 -27 -0.2146 4.6391
-14 -9 -25 -0.7298 -0.7098
-14 -9 -23 -0.0284 4.2855
-14 -9 -21 7.0120 -1.8146
-14 -9 -19 -0.6585 -4.4562
-14 -9 -17 -1.3976 3.7645
-14 -9 -15 -0.9950 3.8032
-14 -9 -13 -4.8638 -2.7834
-14 -9 -11 1.3286 -2.2836
-14 -9 -9 -0.4687 1.7279
-14 -9 -7 -3.3041 -2.8081
-14 -9 -5 0.4537 -3.0160
-14 -9 -3 4.0352 0.6263
-14 -9 -1 -0.6343 2.8000
-14 -8 -32 5.3500 2.2220
-14 -8 -30 -2.3779 -5.5818
-14 -8 -28 -5.4736 -2.8377
-14 -8 -26 3.7888 -5.6221
-14 -8 -24 -0.6947 1.8544
-14 -8 -22 -0.2038 0.5386
-14 -8 -20 -1.2265 0.8321
-14 -8 -18 -0.3283 2.7430
-14 -8 -16 4.9621 0.3581
-14 -8 -14 0.6118 1.2608
-14 -8 -12 -1.1138 4.6145
-14 -8 -10 1.0291 0.1052
-14 -8 -8 -0.2051 0.9499
-14 -8 -6 5.0943 -0.6406
-14 -8 -4 -7.9695 6.1739
-14 -8 -2 -3.5071 5.0963
-14 -7 -35 0.9269 -0.3402
-14 -7 -33 -3.9530 -4.9937
-14 -7 -31 -2.0832 0.0063
-14 -7 -29 3.0234 -2.6136
-14 -7 -27 -0.5511 1.8522
-14 -7 -25 1.9920 2.4606
-14 -7 -23 1.4422 1.5518
-14 -7 -21 -3.3626 -3.9886
-14 -7 -19 0.3288 2.4403
-14 -7 -17 -2.0658 -1.3291
-14 -7 -15 3.0763 -0.7592
-14 -7 -13 -2.6963 1.5874
-14 -7 -11 -11.5227 -3.0595
-14 -7 -9 0.8713 -1.6570
-14 -7 -7 -2.6883 -1.0002
-14 -7 -5 0.3856 -3.3438
-14 -7 -3 -2.0574 -1.2824
-14 -7 -1 -1.0226 2.9998
-14 -6 -36 -1.3874 -0.5007
-14 -6 -34 -4.0944 3.5451
-14 -6 -32 -4.4180 -1.9507
-14 -6 -30 3.5788 -2.1896
-14 -6 -28 -0.4987 2.7390
-14 -6 -26 0.5282 3.0200
-14 -6 -24 5.8921 -1.1050
-14 -6 -22 -0.3766 5.4972
-14 -6 -20 -0.8525 -3.9704
-14 -6 -18 -5.6696 0.7890
-14 -6 -16 -1.0508 3.9552
-14 -6 -14 -1.0942 -4.3961
-14 -6 -12 1.4827 -0.6573
-14 -6 -10 2.2173 3.2277
-14 -6 -8 2.3536 3.7751
-14 -6 -6 2.3889 -1.4974
-14 -6 -4 0.2062 3.8880
-14 -6 -2 -6.0970 -3.0751
-14 -5 -37 -0.3313 -6.0948
-14 -5 -35 -1.7280 0.8864
-14 -5 -33 -4.8194 0.5716
-14 -5 -31 2.8810 -1.7011
-14 -5 -29 1.8472 -0.3461
-14 -5 -27 3.1781 4.8281
-14 -5 -25 -4.8108 0.3556
-14 -5 -23 -3.3132 2.1741
-14 -5 -21 0.9287 4.1499
-14 -5 -19 -1.1424 -4.2646
-14 -5 -17 -4.1772 1.9065
-14 -5 -15 4.0573 -2.2509
-14 -5 -13 -4.0656 -0.5446
-14 -5 -11 3.5569 -2.8959
-14 -5 -9 3.9109 -4.3687
-14 -5 -7 -2.6598 1.4264
-14 -5 -5 3.6809 1.8081
-14 -5 -3 -8.0132 -2.0697
-14 -5 -1 2.1926 -5.0421
-14 -4 -38 -3.9415 -0.8030
-14 -4 -36 2.6977 1.8913
-14 -4 -34 -1.5684 -0.4424
-14 -4 -32 -5.4857 3.1154
-14 -4 -30 -1.6316 -1.2139
-14 -4 -28 -3.3768 -3.9542
-14 -4 -26 -4.6215 -3.2466
-14 -4 -24 0.2946 -2.2329
-14 -4 -22 0.3274 6.0000
-14 -4 -20 6.0477 1.4638
-14 -4 -18 -4.9393 -4.0648
-14 -4 -16 2.4636 -0.8053
-14 -4 -14 -2.3525 -1.7644
-14 -4 -12 -2.5580 5.8422
-14 -4 -10 -0.9667 3.3757
-14 -4 -8 -1.4820 0.9989
-14 -4 -6 -1.5201 -2.7057
-14 -4 -4 -1.9363 -6.7547
-14 -4 -2 5.2700 4.7659
-14 -3 -39 1.9034 -5.2271
-14 -3 -37 -1.8361 -0.7535
-14 -3 -35 0.1480 -0.7156
-14 -3 -33 1.2494 -2.4692
-14 -3 -31 2.5010 1.8561
-14 -3 -29 -0.0151 3.7758
-14 -3 -27 -0.1780 -2.6587
-14 -3 -25 2.1897 4.8355
-14 -3 -23 -5.7532 2.1832
-14 -3 -21 -10.8071 15.2637
-14 -3 -19 -4.0507 7.0949
-14 -3 -17 0.7535 1.4689
-14 -3 -15 -0.3134 -3.2629
-14 -3 -13 6.0828 -2.8113
-14 -3 -11 3.0462 2.7471
-14 -3 -9 0.6189 0.0070
-14 -3 -7 -3.7802 4.2655
-14 -3 -5 1.5595 -1.0913
-14 -3 -3 5.1634 0.2819
-14 -3 -1 0.2152 0.2930
-14 -2 -40 5.3144 2.7996
-14 -2 -38 -4.1491 1.6428
-14 -2 -36 2.9924 -0.4958
-14 -2 -34 8.6229 -0.7753
-14 -2 -32 3.4915 -3.5625
-14 -2 -30 -0.3098 1.9353
-14 -2 -28 0.0309 1.4861
-14 -2 -26 -2.0229 2.1195
-14 -2 -24 -10.6634 -4.1130
-14 -2 -22 0.2591 -4.7693
-14 -2 -20 -9.0927 0.1141
-14 -2 -18 -3.1721 1.9575
-14 -2 -16 -0.3018 -2.0145
-14 -2 -14 -8.3191 0.5278
-14 -2 -12 1.1326 7.0722
-14 -2 -10 4.1290 -2.5110
-14 -2 -8 -1.5074 2.8526
-14 -2 -6 3.2191 -5.9214
-14 -2 -4 -1.9327 3.0600
-14 -2 -2 5.7980 1.6507
-14 -1 -41 1.8198 5.4114
-14 -1 -39 -0.8533 -0.6017
-14 -1 -37 0.4228 1.8139
-14 -1 -35 -3.2492 2.2755
-14 -1 -33 5.0917 4.2815
-14 -1 -31 0.6020 -6.2497
-14 -1 -29 -5.7559 -3.0434
-14 -1 -27 -5.8359 -0.6107
-14 -1 -25 -11.6989 -0.2385
-14 -1 -23 0.1209 2.0780
-14 -1 -21 0.6782 -8.9056
-14 -1 -19 2.7049 4.2729
-14 -1 -17 2.4206 -1.4408
-14 -1 -15 -3.7563 4.7168
-14 -1 -13 -4.1291 0.3578
-14 -1 -11 -1.6640 -3.0935
-14 -1 -9 -5.3746 0.5712
-14 -1 -7 1.1338 1.4986
-14 -1 -5 6.5137 -0.9532
-14 -1 -3 1.4160 1.2383
-14 -1 -1 -0.9433 -1.8420
-13 -13 -16 -3.0789 1.6655
-13 -13 -14 0.6477 1.3298
-13 -13 -12 12.6308 4.1205
-13 -13 -10 3.7230 5.5057
-13 -13 -8 1.4890 1.6867
-13 -13 -6 -2.5745 -2.1027
-13 -13 -4 -7.2162 1.2340
-13 -13 -2 -5.1247 2.0778
-13 -12 -23 -2.5152 0.0595
-13 -12 -21 -1.5454 0.8317
-13 -12 -19 -1.0423 -2.1313
-13 -12 -17 -0.9004 2.0914
-13 -12 -15 3.3358 -0.5258
-13 -12 -13 -1.9582 1.9278
-13 -12 -11 2.3190 -2.7931
-13 -12 -9 0.4552 -4.4365
-13 -12 -7 0.5454 -0.7349
-13 -12 -5 5.0208 -1.3118
-13 -12 -3 2.7190 0.9632
-13 -12 -1 5.2140 4.2794
-13 -11 -26 4.0697 1.6201
-13 -11 -24 0.1521 -0.3851
-13 -11 -22 -2.0948 11.0509
-13 -11 -20 4.0528 -4.0130
-13 -11 -18 5.4726 0.2191
-13 -11 -16 -2.8504 4.1446
-13 -11 -14 -4.3916 -4.0706
-13 -11 -12 -6.2314 -2.2803
-13 -11 -10 3.8102 8.6933
-13 -11 -8 1.2291 -1.2758
-13 -11 -6 -5.7320 -0.9650
-13 -11 -4 0.7256 1.1184
-13 -11 -2 -2.5626 3.0639
-13 -10 -31 1.5328 0.9572
-13 -10 -29 0.7012 -3.4210
-13 -10 -27 9.0068 -5.6601
-13 -10 -25 -0.8864 0.4392
-13 -10 -23 0.9318 -5.1568
-13 -10 -21 -6.6531 -0.5111
-13 -10 -19 0.1989 -0.0624
-13 -10 -17 3.0799 2.2404
-13 -10 -15 2.2870 5.4438
-13 -10 -13 10.1963 -1.7543
-13 -10 -11 0.2637 -1.8542
-13 -10 -9 -3.9990 -1.6493
-13 -10 -7 -1.1419 -0.9056
-13 -10 -5 -1.1153 -0.8846
-13 -10 -3 -1.8027 1.9839
-13 -10 -1 1.5084 -5.8791
-13 -9 -34 -6.8218 1.0488
-13 -9 -32 -1.1105 0.2505
-13 -9 -30 2.9173 3.0426
-13 -9 -28 0.0596 -4.3557
-13 -9 -26 3.9521 -2.3350
-13 -9 -24 3.2059 -3.4874
-13 -9 -22 0.5208 2.1325
-13 -9 -20 -0.0108 1.9207
-13 -9 -18 5.5160 -5.2549
-13 -9 -16 -0.8106 -0.9909
-13 -9 -14 -6.2565 -2.4321
-13 -9 -12 16.5531 -0.6072
-13 -9 -10 -1.1574 2.5213
-13 -9 -8 4.3298 3.7881
-13 -9 -6 -3.4336 3.6680
-13 -9 -4 7.1749 1.2472
-13 -9 -2 4.5765 -6.5950
-13 -8 -37 -5.5656 3.9741
-13 -8 -35 -0.1645 -0.7409
-13 -8 -33 1.7775 -1.4665
-13 -8 -31 1.3027 -1.2867
-13 -8 -29 9.4786 0.2489
-13 -8 -27 0.0028 8.8442
-13 -8 -25 -3.3385 -2.2312
-13 -8 -23 2.7414 1.9973
-13 -8 -21 3.9819 6.8593
-13 -8 -19 -4.0431 -2.5185
-13 -8 -17 -5.2667 -1.9463
-13 -8 -15 -0.6504 3.0780
-13 -8 -13 -2.6356 -5.3882
-13 -8 -11 -0.8804 -2.6608
-13 -8 -9 2.8673 -4.1583
-13 -8 -7 -17.1622 4.5408
-13 -8 -5 -0.8063 6.0177
-13 -8 -3 3.4740 -3.7678
-13 -8 -1 5.1759 1.7220
-13 -7 -38 2.5275 3.5531
-13 -7 -36 -2.0962 0.8296
-13 -7 -34 -7.9683 6.5730
-13 -7 -32 -4.5396 -0.7630
-13 -7 -30 -4.7421 0.5422
-13 -7 -28 -2.6868 -2.7027
-13 -7 -26 -3.0486 -0.7951
-13 -7 -24 -8.5576 -1.6067
-13 -7 -22 -3.4803 -4.1612
-13 -7 -20 4.7241 0.1005
-13 -7 -18 3.8756 -2.9898
-13 -7 -16 6.4432 4.6779
-13 -7 -14 3.4750 -7.1147
-13 -7 -12 -0.5754 -0.7270
-13 -7 -10 -6.6657 2.8206
-13 -7 -8 1.7818 -4.6484
-13 -7 -6 4.9595 -2.7020
-13 -7 -4 2.7325 4.1691
-13 -7 -2 -3.6074 0.1770
-13 -6 -39 -3.2273 -1.0725
-13 -6 -37 3.3139 1.2195
-13 -6 -35 -2.1561 -1.6943
-13 -6 -33 0.8811 1.3613
-13 -6 -31 -3.7774 0.4710
-13 -6 -29 4.0944 -0.5212
-13 -6 -27 -3.2180 -4.2680
-13 -6 -25 1.7574 -2.6962
-13 -6 -23 -1.7236 4.4246
-13 -6 -21 1.5729 0.2555
-13 -6 -19 1.4383 6.7891
-13 -6 -17 -0.0921 -0.0145
-13 -6 -15 -4.9702 -1.4879
-13 -6 -13 -1.9527 2.6128
-13 -6 -11 2.6393 -7.0056
-13 -6 -9 7.9376 -1.6132
-13 -6 -7 2.0255 3.9377
-13 -6 -5 -0.1019 4.3645
-13 -6 -3 -2.3801 4.2290
-13 -6 -1 -1.3204 6.6129
-13 -5 -42 1.5956 -1.9226
-13 -5 -40 0.5902 -4.4323
-13 -5 -38 -3.7881 -0.2058
-13 -5 -36 3.4385 4.6318
-13 -5 -34 -6.6427 2.7900
-13 -5 -32 2.8824 -0.5611
-13 -5 -30 -2.2612 0.2465
-13 -5 -28 -3.2980 -4.4953
-13 -5 -26 -2.4041 -0.0437
-13 -5 -24 2.9372 2.9339
-13 -5 -22 -10.7114 11.4312
-13 -5 -20 4.2412 -0.0684
-13 -5 -18 -8.9869 2.8190
-13 -5 -16 3.4399 -0.6794
-13 -5 -14 -6.1933 2.6865
-13 -5 -12 2.3033 -2.8307
-13 -5 -10 0.7387 -3.7552
-13 -5 -8 -2.7355 -8.1190
-13 -5 -6 0.1858 0.4718
-13 -5 -4 2.1587 -3.3023
-13 -5 -2 8.1774 -4.8540
-13 -4 -43 3.1111 0.9631
-13 -4 -41 -4.1463 3.8579
-13 -4 -39 4.6730 0.7306
-13 -4 -37 0.3011 1.2355
-13 -4 -35 2.0266 6.7425
-13 -4 -33 1.2365 5.6998
-13 -4 -31 0.1920 0.4839
-13 -4 -29 -3.6047 -6.2951
-13 -4 -27 -7.7045 1.3744
-13 -4 -25 -0.9665 5.4649
-13 -4 -23 -10.1142 -4.4018
-13 -4 -21 -0.0980 5.2846
-13 -4 -19 -0.0206 -7.2639
-13 -4 -17 -10.0714 -2.5361
-13 -4 -15 -0.6823 -2.4844
-13 -4 -13 2.5477 0.0195
-13 -4 -11 2.0600 -1.9849
-13 -4 -9 -4.8129 4.0393
-13 -4 -7 -0.8499 -0.1939
-13 -4 -5 -4.1266 -0.3851
-13 -4 -3 -6.2576 -5.2171
-13 -4 -1 -4.8706 0.6191
-13 -3 -44 -4.5900 -11.3331
-13 -3 -42 4.5251 -0.3648
-13 -3 -40 8.1714 8.4320
-13 -3 -38 0.7906 -3.1898
-13 -3 -36 1.1455 7.0471
-13 -3 -34 5.4706 -5.0272
-13 -3 -32 -2.5416 1.9300
-13 -3 -30 0.0682 -4.0281
-13 -3 -28 -1.1690 -3.6394
-13 -3 -26 -6.8644 6.2597
-13 -3 -24 -3.7096 -3.5393
-13 -3 -22 0.9550 7.0072
-13 -3 -20 -6.7489 7.7315
-13 -3 -18 -5.8709 3.5050
-13 -3 -16 -4.4051 4.9949
-13 -3 -14 -0.1915 5.7754
-13 -3 -12 1.7689 -1.5965
-13 -3 -10 5.0711 3.2719
-13 -3 -8 -5.4072 -2.3402
-13 -3 -6 -12.7597 -1.6152
-13 -3 -4 1.7423 0.0790
-13 -3 -2 8.5606 0.9006
-13 -2 -43 1.5295 -0.1373
-13 -2 -41 2.0709 -1.7544
-13 -2 -39 2.4738 0.0747
-13 -2 -37 -1.8561 1.1384
-13 -2 -35 -3.5795 -5.9859
-13 -2 -33 6.9447 -7.5031
-13 -2 -31 -1.1923 0.3420
-13 -2 -29 0.9437 4.5158
-13 -2 -27 -1.6735 -10.3315
-13 -2 -25 -8.8193 2.1856
-13 -2 -23 2.9655 16.7784
-13 -2 -21 1.0100 1.2764
-13 -2 -19 4.5625 -2.8699
-13 -2 -17 3.0408 -2.5253
-13 -2 -15 -4.5227 -2.9931
-13 -2 -13 -0.3724 7.0635
-13 -2 -11 2.4189 0.7631
-13 -2 -9 4.5964 0.4613
-13 -2 -7 -4.1131 -2.9202
-13 -2 -5 0.9158 8.8184
-13 -2 -3 1.3572 -3.5126
-13 -2 -1 -5.3007 1.5352
-13 -1 -44 -0.5570 4.2026
-13 -1 -42 1.0240 2.3205
-13 -1 -40 8.1445 -0.0586
-13 -1 -38 4.8978 3.8662
-13 -1 -36 -1.4250 -5.4469
-13 -1 -34 3.4075 -7.5453
-13 -1 -32 -13.0192 -0.1896
-13 -1 -30 -3.3128 -6.4785
-13 -1 -28 -2.4010 1.8006
-13 -1 -26 3.1770 -2.5711
-13 -1 -24 -3.8025 -2.3450
-13 -1 -22 -1.6668 0.9012
-13 -1 -20 1.5655 -1.1767
-13 -1 -18 6.1529 3.9740
-13 -1 -16 1.0750 4.7833
-13 -1 -14 7.9668 -7.7546
-13 -1 -12 -14.3591 7.8550
-13 -1 -10 1.0270 0.6195
-13 -1 -8 -7.8590 1.9069
-13 -1 -6 -0.3422 1.2703
-13 -1 -4 1.1227 1.7336
-13 -1 -2 -2.8967 3.1083
-12 -14 -14 -2.7361 -5.3291
-12 -14 -12 1.7336 4.3764
-12 -14 -10 -1.0539 -1.0059
-12 -14 -8 -4.6336 -5.0622
-12 -14 -6 1.5284 -4.0252
-12 -14 -4 2.6018 -2.1532
-12 -14 -2 -0.5527 1.5962
-12 -13 -23 -4.9235 1.1989
-12 -13 -21 0.0088 -0.0809
-12 -13 -19 -2.4080 -5.2287
-12 -13 -17 0.2302 -2.6310
-12 -13 -15 -6.4995 5.1256
-12 -13 -13 -0.8485 -4.9476
-12 -13 -11 -0.5095 -1.6573
-12 -13 -9 5.1317 5.4558
-12 -13 -7 0.3081 0.1936
-12 -13 -5 -3.3572 -0.5238
-12 -13 -3 -4.1170 -0.7756
-12 -13 -1 -1.0225 -2.9859
-12 -12 -28 -0.9264 0.1280
-12 -12 -26 4.9278 -1.3572
-12 -12 -24 -3.1498 1.1238
-12 -12 -22 -0.6034 6.9847
-12 -12 -20 0.0094 1.1891
-12 -12 -18 -3.4209 -3.2124
-12 -12 -16 -0.4627 -4.4611
-12 -12 -14 4.9452 -4.3801
-12 -12 -12 4.4100 1.9585
-12 -12 -10 -1.5270 5.3258
-12 -12 -8 8.7406 3.1339
-12 -12 -6 -4.9323 -3.0905
-12 -12 -4 12.6014 4.9799
-12 -12 -2 1.4142 -3.5933
-12 -11 -31 -4.2801 -3.7021
-12 -11 -29 -2.6332 -3.1210
-12 -11 -27 -4.9697 -7.1698
-12 -11 -25 1.9913 -0.6976
-12 -11 -23 0.3871 5.7756
-12 -11 -21 0.4265 -2.8575
-12 -11 -19 6.8743 -4.1140
-12 -11 -17 -1.2887 -0.9599
-12 -11 -15 -9.2871 -2.5485
-12 -11 -13 -3.2793 3.8145
-12 -11 -11 2.0980 4.4535
-12 -11 -9 1.6019 4.4373
-12 -11 -7 -2.2518 0.8136
-12 -11 -5 8.0549 -5.6105
-12 -11 -3 0.9304 -1.3309
-12 -11 -1 0.2190 13.8481
-12 -10 -34 -2.7690 -2.4963
-12 -10 -32 7.0275 1.0210
-12 -10 -30 7.5303 7.1829
-12 -10 -28 1.2405 -0.5655
-12 -10 -26 -1.1777 5.0402
-12 -10 -24 -1.5904 -0.2901
-12 -10 -22 5.8729 11.1570
-12 -10 -20 7.3746 -3.9497
-12 -10 -18 0.3113 -1.2346
-12 -10 -16 -2.5253 1.1854
-12 -10 -14 6.1498 0.5876
-12 -10 -12 2.6988 4.9908
-12 -10 -10 -2.0137 -0.4042
-12 -10 -8 1.3815 -14.1945
-12 -10 -6 1.1503 -0.9264
-12 -10 -4 7.8271 -6.1903
-12 -10 -2 4.3492 3.0126
-12 -9 -37 -5.6762 3.3663
-12 -9 -35 1.8138 1.1225
-12 -9 -33 -4.0732 4.0996
-12 -9 -31 -1.9688 -3.2967
-12 -9 -29 3.8905 -1.8809
-12 -9 -27 -11.3079 6.1301
-12 -9 -25 -3.7823 3.8098
-12 -9 -23 -1.8240 -3.7834
-12 -9 -21 -8.4205 0.4315
-12 -9 -19 5.8485 1.7761
-12 -9 -17 -4.1428 -2.0969
-12 -9 -15 -1.5137 -1.6320
-12 -9 -13 0.2024 2.8495
-12 -9 -11 4.6422 0.7602
-12 -9 -9 3.3558 3.9103
-12 -9 -7 -3.5906 -2.0000
-12 -9 -5 -3.8151 -4.8062
-12 -9 -3 2.8396 3.1830
-12 -9 -1 8.2479 5.2426
-12 -8 -40 1.9575 -0.4820
-12 -8 -38 0.1782 3.0125
-12 -8 -36 -1.4507 -5.8365
-12 -8 -34 -2.9891 6.3674
-12 -8 -32 6.7461 -0.2946
-12 -8 -30 5.3194 0.8877
-12 -8 -28 -1.0312 -5.4430
-12 -8 -26 0.4753 2.0001
-12 -8 -24 -1.1730 -11.6787
-12 -8 -22 -2.2893 0.0349
-12 -8 -20 0.2304 0.9918
-12 -8 -18 2.8011 -1.4807
-12 -8 -16 3.9835 -2.0530
-12 -8 -14 -3.8523 -5.4488
-12 -8 -12 5.5142 -1.9879
-12 -8 -10 2.6938 -4.4114
-12 -8 -8 5.9827 13.7994
-12 -8 -6 -4.2655 -10.9198
-12 -8 -4 0.6537 0.8641
-12 -8 -2 7.7813 4.1633
-12 -7 -41 3.0165 1.1237
-12 -7 -39 0.4323 1.3924
-12 -7 -37 -0.3252 3.9804
-12 -7 -35 -2.5581 -0.5645
-12 -7 -33 -1.6494 2.8379
-12 -7 -31 -3.2603 -2.3301
-12 -7 -29 -0.4308 1.2106
-12 -7 -27 -3.5993 -5.6410
-12 -7 -25 1.4790 3.3807
-12 -7 -23 -2.2820 0.7882
-12 -7 -21 -5.0188 -2.9682
-12 -7 -19 -4.8706 -2.4190
-12 -7 -17 -4.4341 -5.7525
-12 -7 -15 -0.2137 -2.7909
-12 -7 -13 1.5233 0.5339
-12 -7 -11 -9.4243 4.7185
-12 -7 -9 -1.1276 -2.3235
-12 -7 -7 -0.8003 -16.9903
-12 -7 -5 6.5022 4.5915
-12 -7 -3 8.4247 0.3752
-12 -7 -1 0.6026 -4.9806
-12 -6 -42 -4.1750 2.0950
-12 -6 -40 4.9621 -10.6578
-12 -6 -38 -0.2625 4.5902
-12 -6 -36 -1.4660 4.0454
-12 -6 -34 0.7981 8.5446
-12 -6 -32 -6.0083 1.0536
-12 -6 -30 0.9895 2.7927
-12 -6 -28 2.6440 -1.1969
-12 -6 -26 -5.0771 -0.4292
-12 -6 -24 2.8469 3.1977
-12 -6 -22 -4.1442 5.5028
-12 -6 -20 4.5211 0.4222
-12 -6 -18 3.6802 -0.7245
-12 -6 -16 -14.7071 -1.5089
-12 -6 -14 10.3740 0.0387
-12 -6 -12 -23.4361 2.5285
-12 -6 -10 -3.7081 -0.2622
-12 -6 -8 -2.5916 -3.4001
-12 -6 -6 -4.4922 -4.4140
-12 -6 -4 -3.3631 4.3552
-12 -6 -2 -1.7198 -3.2563
-12 -5 -45 -0.5395 4.7295
-12 -5 -43 1.0311 -5.7428
-12 -5 -41 3.3945 -2.1999
-12 -5 -39 0.3214 2.9936
-12 -5 -37 4.5375 -2.9535
-12 -5 -35 2.6624 1.3139
-12 -5 -33 2.5181 1.4577
-12 -5 -31 3.8090 -1.0140
-12 -5 -29 3.7577 -0.6069
-12 -5 -27 2.1304 -1.6184
-12 -5 -25 -12.5295 0.1886
-12 -5 -23 2.9650 2.5960
-12 -5 -21 -9.1763 12.4954
-12 -5 -19 6.4801 -4.2368
-12 -5 -17 3.2920 -2.7352
-12 -5 -15 -4.9904 4.0368
-12 -5 -13 1.1981 4.0173
-12 -5 -11 7.7785 -7.4401
-12 -5 -9 6.4956 11.2791
-12 -5 -7 9.2519 -4.5989
-12 -5 -5 -6.6657 -7.1146
-12 -5 -3 -0.3316 -0.4390
-12 -5 -1 -3.1805 6.0238
-12 -4 -46 0.5654 0.5381
-12 -4 -44 4.1330 -4.5026
-12 -4 -42 3.1570 -3.2593
-12 -4 -40 -10.5124 0.5047
-12 -4 -38 -5.6365 -3.5456
-12 -4 -36 -2.8202 8.9775
-12 -4 -34 1.9798 -2.9687
-12 -4 -32 -1.0717 7.0809
-12 -4 -30 -3.2494 -4.6342
-12 -4 -28 -0.8300 2.9797
-12 -4 -26 -8.1083 10.8491
-12 -4 -24 8.3137 -3.8341
-12 -4 -22 -0.5258 3.0832
-12 -4 -20 3.7411 -3.1430
-12 -4 -18 5.3276 -4.7568
-12 -4 -16 5.3218 -5.5765
-12 -4 -14 -4.3550 2.6635
-12 -4 -12 2.5936 7.5132
-12 -4 -10 -9.7899 -2.7463
-12 -4 -8 2.6836 -2.6594
-12 -4 -6 3.0796 -1.8942
-12 -4 -4 -5.1040 -2.8042
-12 -4 -2 -1.1651 5.6341
-12 -3 -45 1.0343 -2.1479
-12 -3 -43 1.5657 -0.9647
-12 -3 -41 2.7071 -1.8946
-12 -3 -39 -3.0460 -1.9173
-12 -3 -37 -7.1547 4.3687
-12 -3 -35 -1.6748 3.3677
-12 -3 -33 -2.1435 -5.5407
-12 -3 -31 -0.1941 -1.6190
-12 -3 -29 -3.3480 -4.3675
-12 -3 -27 9.9682 -2.4066
-12 -3 -25 13.5643 3.0916
-12 -3 -23 5.1353 -5.0218
-12 -3 -21 0.1816 6.3874
-12 -3 -19 -5.0688 5.2737
-12 -3 -17 7.8491 0.8102
-12 -3 -15 1.2694 1.6057
-12 -3 -13 4.2420 -0.4442
-12 -3 -11 -7.2233 -0.8488
-12 -3 -9 -6.2303 8.9461
-12 -3 -7 -3.4488 4.4719
-12 -3 -5 -0.5592 -1.8808
-12 -3 -3 1.6075 -4.9306
-12 -3 -1 0.9641 1.6294
-12 -2 -46 10.7919 -3.3626
-12 -2 -44 -6.0895 -7.8638
-12 -2 -42 0.6480 -4.7783
-12 -2 -40 -0.9392 -8.4891
-12 -2 -38 -5.1600 -3.7325
-12 -2 -36 -2.3843 -8.9298
-12 -2 -34 2.3774 -2.6656
-12 -2 -32 11.4704 0.4766
-12 -2 -30 -0.5800 -9.4428
-12 -2 -28 -2.5097 -7.8470
-12 -2 -26 13.8868 8.1852
-12 -2 -24 14.0517 2.5725
-12 -2 -22 0.3035 5.4889
-12 -2 -20 -9.1785 2.6258
-12 -2 -18 5.4231 -2.1944
-12 -2 -16 5.4809 15.0658
-12 -2 -14 5.0140 -6.0395
-12 -2 -12 0.2542 -4.5357
-12 -2 -10 3.1627 3.9885
-12 -2 -8 -0.5822 -7.9405
-12 -2 -6 -7.7243 5.1192
-12 -2 -4 -1.5958 -2.6430
-12 -2 -2 -6.5053 4.6558
-12 -1 -47 3.6974 -2.2204
-12 -1 -45 -2.2816 0.4981
-12 -1 -43 -4.7689 2.4262
-12 -1 -41 3.9733 -1.1949
-12 -1 -39 1.6240 1.6522
-12 -1 -37 3.5690 -10.4734
-12 -1 -35 -1.7099 0.4748
-12 -1 -33 12.2045 3.4449
-12 -1 -31 5.7005 -4.6995
-12 -1 -29 -4.1402 5.8213
-12 -1 -27 3.5274 1.5548
-12 -1 -25 0.1449 1.0930
-12 -1 -23 3.8907 3.5227
-12 -1 -21 4.8688 -7.2814
-12 -1 -19 3.5939 -4.7085
-12 -1 -17 -7.1215 -6.7970
-12 -1 -15 -0.5499 1.7341
-12 -1 -13 -7.1266 5.1104
-12 -1 -11 -6.4741 2.3532
-12 -1 -9 -1.8404 10.7975
-12 -1 -7 -4.3272 -0.9903
-12 -1 -5 1.8028 -1.3202
-12 -1 -3 5.2885 10.3659
-12 -1 -1 5.2192 -9.2976
-11 -15 -12 -4.6097 4.1160
-11 -15 -10 1.1764 0.8473
-11 -15 -8 -2.2069 -6.0424
-11 -15 -6 -1.3419 -0.3538
-11 -15 -4 2.7572 2.5657
-11 -15 -2 1.6665 -3.1145
-11 -14 -21 -2.4829 2.0280
-11 -14 -19 3.9378 0.7150
-11 -14 -17 -0.1809 -1.2392
-11 -14 -15 2.6330 0.7200
-11 -14 -13 -3.1054 1.3295
-11 -14 -11 -3.5829 -3.9364
-11 -14 -9 1.1965 -0.5318
-11 -14 -7 2.0405 -3.6118
-11 -14 -5 2.6840 1.8692
-11 -14 -3 1.7951 3.4214
-11 -14 -1 4.3625 -1.4302
-11 -13 -26 2.1188 -2.7094
-11 -13 -24 1.7653 1.5839
-11 -13 -22 -9.9642 8.2170
-11 -13 -20 2.2591 -2.5476
-11 -13 -18 -1.9921 0.5072
-11 -13 -16 -6.9184 -4.0114
-11 -13 -14 1.9761 6.4295
-11 -13 -12 0.2884 -5.1604
-11 -13 -10 7.3963 9.8470
-11 -13 -8 -8.5036 -8.4533
-11 -13 -6 -3.1515 0.7607
-11 -13 -4 4.8255 -1.4494
-11 -13 -2 -1.1557 1.2692
-11 -12 -31 -2.8309 2.0955
-11 -12 -29 0.2738 2.7466
-11 -12 -27 -5.2590 2.9137
-11 -12 -25 -0.7460 0.7015
-11 -12 -23 1.8031 -4.1260
-11 -12 -21 -2.6883 1.4185
-11 -12 -19 -5.4857 6.2738
-11 -12 -17 0.3936 2.3887
-11 -12 -15 7.1009 -2.4637
-11 -12 -13 2.8685 1.0937
-11 -12 -11 -3.4594 -2.7406
-11 -12 -9 4.7928 6.6160
-11 -12 -7 8.5207 -3.1841
-11 -12 -5 5.6180 -8.3244
-11 -12 -3 3.4771 1.1978
-11 -12 -1 -3.8575 -6.4638
-11 -11 -34 -1.2446 3.5856
-11 -11 -32 -2.2969 -0.2029
-11 -11 -30 -1.8841 5.3981
-11 -11 -28 -0.6250 0.0682
-11 -11 -26 -5.1680 -6.4269
-11 -11 -24 -5.0629 -0.5275
-11 -11 -22 -0.4603 12.1723
-11 -11 -20 2.0951 -2.6065
-11 -11 -18 -0.0856 3.1511
-11 -11 -16 -1.7201 -0.3596
-11 -11 -14 4.1444 7.1552
-11 -11 -12 -6.0503 -1.4527
-11 -11 -10 -5.0918 -5.1847
-11 -11 -8 -7.3617 -0.1077
-11 -11 -6 -1.4575 -0.6336
-11 -11 -4 3.0544 6.1255
-11 -11 -2 13.0041 1.7788
-11 -10 -37 -0.9531 8.0403
-11 -10 -35 4.2358 -4.2175
-11 -10 -33 2.0159 -0.2077
-11 -10 -31 3.4261 3.7292
-11 -10 -29 3.9233 1.7721
-11 -10 -27 -3.2968 9.7189
-11 -10 -25 -7.1111 4.0284
-11 -10 -23 -3.9284 -8.8894
-11 -10 -21 -1.2084 9.8887
-11 -10 -19 -0.1457 -11.5987
-11 -10 -17 -0.4109 4.4206
-11 -10 -15 -0.9291 -1.2605
-11 -10 -13 3.1724 3.5477
-11 -10 -11 -1.0684 8.2628
-11 -10 -9 -10.0974 -10.2786
-11 -10 -7 -12.5190 -1.8883
-11 -10 -5 20.6208 -10.5306
-11 -10 -3 2.4434 -7.7269
-11 -10 -1 -9.5777 -2.3957
-11 -9 -40 3.5661 -4.2177
-11 -9 -38 2.8311 -1.9494
-11 -9 -36 -1.2096 3.2134
-11 -9 -34 -0.5225 -9.5597
-11 -9 -32 -0.2394 0.5724
-11 -9 -30 -1.6000 4.5494
-11 -9 -28 -0.6352 2.8505
-11 -9 -26 5.1773 -4.5008
-11 -9 -24 -1.2888 -1.8553
-11 -9 -22 1.3771 0.8433
-11 -9 -20 1.9536 -4.0139
-11 -9 -18 -4.6049 -1.9717
-11 -9 -16 -3.0271 5.5819
-11 -9 -14 -4.5380 -0.7529
-11 -9 -12 9.7008 2.4435
-11 -9 -10 6.0117 5.8675
-11 -9 -8 1.7428 -9.8362
-11 -9 -6 13.1558 -2.7102
-11 -9 -4 5.1234 0.7014
-11 -9 -2 7.6609 -1.5324
-11 -8 -43 -1.0987 -0.2904
-11 -8 -41 -7.4550 0.4584
-11 -8 -39 -0.9526 0.1749
-11 -8 -37 0.0447 1.9811
-11 -8 -35 -0.2662 3.4108
-11 -8 -33 1.3264 5.1609
-11 -8 -31 -7.2683 -3.6653
-11 -8 -29 0.6417 -3.5626
-11 -8 -27 -5.8387 -4.1779
-11 -8 -25 -2.6854 5.7603
-11 -8 -23 6.4638 4.3531
-11 -8 -21 -4.2742 -5.7500
-11 -8 -19 -3.5870 -8.1836
-11 -8 -17 4.1311 0.0612
-11 -8 -15 -6.5506 -1.7931
-11 -8 -13 1.8398 -4.4324
-11 -8 -11 3.6748 -5.9008
-11 -8 -9 1.7561 6.2962
-11 -8 -7 -10.2461 9.5023
-11 -8 -5 -0.4833 -5.1249
-11 -8 -3 -2.3675 14.4317
-11 -8 -1 1.5572 2.0955
-11 -7 -44 -2.0082 0.3925
-11 -7 -42 -3.4232 5.0417
-11 -7 -40 3.8726 -3.1070
-11 -7 -38 0.4155 -4.2212
-11 -7 -36 0.1880 -6.4297
-11 -7 -34 -5.7009 0.8904
-11 -7 -32 1.5463 3.4738
-11 -7 -30 4.9521 -2.6078
-11 -7 -28 0.0441 9.3198
-11 -7 -26 -1.8924 -1.3229
-11 -7 -24 -5.4193 -1.3721
-11 -7 -22 1.2308 0.0096
-11 -7 -20 -4.1332 3.2593
-11 -7 -18 -7.5701 5.0784
-11 -7 -16 7.0273 -0.0425
-11 -7 -14 4.0739 2.7698
-11 -7 -12 -7.2160 -2.8473
-11 -7 -10 2.8909 -7.0168
-11 -7 -8 0.7408 4.8170
-11 -7 -6 0.8179 0.3880
-11 -7 -4 -14.1040 -0.3590
-11 -7 -2 8.3771 6.9114
-11 -6 -45 -5.5646 -4.2471
-11 -6 -43 1.4960 1.4975
-11 -6 -41 0.7691 -0.1471
-11 -6 -39 -0.5668 2.8646
-11 -6 -37 0.3890 -4.1280
-11 -6 -35 -0.0595 6.6725
-11 -6 -33 -3.4442 0.4406
-11 -6 -31 -6.0501 3.5320
-11 -6 -29 -0.7159 0.7966
-11 -6 -27 -5.6882 -1.4922
-11 -6 -25 -2.4009 -3.8168
-11 -6 -23 -3.9850 -7.9549
-11 -6 -21 -1.9930 -0.9246
-11 -6 -19 -1.1384 3.5220
-11 -6 -17 5.8802 2.5767
-11 -6 -15 -1.3173 7.6460
-11 -6 -13 5.6699 11.2893
-11 -6 -11 -1.5127 5.4016
-11 -6 -9 -5.9315 2.9518
-11 -6 -7 -11.9875 -26.3937
-11 -6 -5 3.4012 1.7588
-11 -6 -3 8.9161 -5.0180
-11 -6 -1 -5.4812 -9.2833
-11 -5 -46 -0.3623 1.8372
-11 -5 -44 1.3777 3.5331
-11 -5 -42 3.3928 -4.2561
-11 -5 -40 8.1294 -1.8534
-11 -5 -38 -3.2631 -4.0617
-11 -5 -36 -5.8807 -4.6474
-11 -5 -34 4.6135 -0.7552
-11 -5 -32 2.3568 3.8248
-11 -5 -30 20.5622 -2.1442
-11 -5 -28 4.4709 -6.9747
-11 -5 -26 -6.9911 -0.5231
-11 -5 -24 -11.5321 4.1916
-11 -5 -22 -7.1831 0.4090
-11 -5 -20 -0.3103 15.3175
-11 -5 -18 -2.2617 -6.5690
-11 -5 -16 -2.5250 -0.3612
-11 -5 -14 15.8219 1.0528
-11 -5 -12 -9.4047 1.9719
-11 -5 -10 -8.0162 -4.6077
-11 -5 -8 14.6753 -1.5636
-11 -5 -6 1.1335 8.6042
-11 -5 -4 -9.1009 6.5915
-11 -5 -2 5.9370 -4.0854
-11 -4 -47 -1.9824 0.7784
-11 -4 -45 -6.0727 -5.2247
-11 -4 -43 1.5116 -0.0468
-11 -4 -41 -2.5670 1.7116
-11 -4 -39 0.9856 4.1453
-11 -4 -37 3.0599 -0.0030
-11 -4 -35 -0.7928 -4.3381
-11 -4 -33 0.7691 0.6371
-11 -4 -31 4.1792 3.8886
-11 -4 -29 -5.8430 -2.8205
-11 -4 -27 -4.9862 -3.8790
-11 -4 -25 -5.3705 3.1910
-11 -4 -23 0.7427 0.2626
-11 -4 -21 5.7855 3.8449
-11 -4 -19 7.7310 -11.4904
-11 -4 -17 12.5463 6.4183
-11 -4 -15 -4.2575 8.7916
-11 -4 -13 7.7988 -4.6604
-11 -4 -11 -1.6585 -8.3066
-11 -4 -9 4.1815 -2.8245
-11 -4 -7 10.6824 -1.6276
-11 -4 -5 -3.1241 -9.5398
-11 -4 -3 -1.2698 11.8053
-11 -4 -1 3.6476 -1.3465
-11 -3 -48 -2.8231 6.8913
-11 -3 -46 6.6270 2.3392
-11 -3 -44 -5.1345 -4.2435
-11 -3 -42 4.2872 3.8867
-11 -3 -40 -10.1186 1.1161
-11 -3 -38 0.4899 1.5304
-11 -3 -36 4.3954 -1.2587
-11 -3 -34 -2.6638 -0.0580
-11 -3 -32 -6.4267 6.0073
-11 -3 -30 -2.4294 8.7274
-11 -3 -28 7.6599 -9.3789
-11 -3 -26 1.4281 -0.4374
-11 -3 -24 2.5413 -4.7379
-11 -3 -22 -0.9193 -1.8829
-11 -3 -20 6.0352 -7.3543
-11 -3 -18 1.2868 4.0177
-11 -3 -16 8.4604 -3.2838
-11 -3 -14 -8.0593 14.4394
-11 -3 -12 10.2186 3.4254
-11 -3 -10 0.0025 -0.0688
-11 -3 -8 -1.0349 1.8257
-11 -3 -6 12.7160 6.0914
-11 -3 -4 -0.7835 -0.5645
-11 -3 -2 -10.6031 2.7816
-11 -2 -49 -3.4568 -3.9096
-11 -2 -47 2.0039 -0.6274
-11 -2 -45 0.8794 -0.0575
-11 -2 -43 2.0483 -0.7921
-11 -2 -41 7.5671 -2.0750
-11 -2 -39 4.9433 -0.7623
-11 -2 -37 4.8462 4.0339
-11 -2 -35 3.7707 5.1594
-11 -2 -33 6.4082 10.1737
-11 -2 -31 -15.3839 -10.2503
-11 -2 -29 1.8541 -9.0328
-11 -2 -27 0.0007 10.5058
-11 -2 -25 -4.9251 -0.8903
-11 -2 -23 -4.6897 1.7333
-11 -2 -21 -6.3299 -0.5609
-11 -2 -19 -7.7548 9.2773
-11 -2 -17 5.3574 -4.5344
-11 -2 -15 -1.4167 6.0812
-11 -2 -13 9.7267 7.2373
-11 -2 -11 -2.4829 -10.3274
-11 -2 -9 7.2723 9.9673
-11 -2 -7 -5.2932 6.5035
-11 -2 -5 7.1372 -4.9327
-11 -2 -3 3.5696 2.9687
-11 -2 -1 -1.0586 2.6233
-11 -1 -50 -0.6881 11.0658
-11 -1 -48 1.4636 -8.7142
-11 -1 -46 7.7136 -3.1774
-11 -1 -44 -0.5095 3.1947
-11 -1 -42 8.8497 10.3118
-11 -1 -40 -3.5725 1.2975
-11 -1 -38 -5.6266 0.2546
-11 -1 -36 -5.8028 -19.5550
-11 -1 -34 4.0991 5.8981
-11 -1 -32 1.0668 6.3527
-11 -1 -30 -0.5638 -2.7901
-11 -1 -28 -9.7569 3.1382
-11 -1 -26 6.9514 -3.0648
-11 -1 -24 -2.1293 -4.5808
-11 -1 -22 -2.8351 -6.7786
-11 -1 -20 6.8708 1.7237
-11 -1 -18 6.1909 0.2510
-11 -1 -16 -7.7816 -1.9443
-11 -1 -14 -4.0872 8.3281
-11 -1 -12 -10.3710 4.9856
-11 -1 -10 -11.2781 -2.4858
-11 -1 -8 10.0176 1.1022
-11 -1 -6 -8.5418 9.6139
-11 -1 -4 5.9926 -16.6954
-11 -1 -2 -4.8679 8.1776
-10 -16 -8 2.2011 -2.0917
-10 -16 -6 2.6850 0.9961
-10 -16 -4 0.3121 3.3186
-10 -16 -2 -1.2901 2.1476
-10 -15 -19 -0.8054 1.2485
-10 -15 -17 2.2283 -1.5434
-10 -15 -15 -4.2650 4.1701
-10 -15 -13 -1.4830 -1.3772
-10 -15 -11 -7.3434 -2.9868
-10 -15 -9 -2.4698 1.8899
-10 -15 -7 -0.6498 7.4669
-10 -15 -5 2.1400 0.2761
-10 -15 -3 -0.9731 -2.4449
-10 -15 -1 -3.4081 -2.8159
-10 -14 -26 4.8643 -8.0358
-10 -14 -24 -0.1465 2.7812
-10 -14 -22 -0.1638 1.7415
-10 -14 -20 -1.5434 0.4381
-10 -14 -18 -1.5193 -1.9549
-10 -14 -16 4.3347 7.0714
-10 -14 -14 5.3188 1.1449
-10 -14 -12 1.0095 8.8557
-10 -14 -10 -0.2045 -9.1823
-10 -14 -8 -0.0098 -8.3336
-10 -14 -6 -3.2250 1.1256
-10 -14 -4 5.7535 3.2455
-10 -14 -2 7.7965 -0.0429
-10 -13 -31 -4.1411 -4.9540
-10 -13 -29 -1.4559 1.1641
-10 -13 -27 0.9442 -8.8918
-10 -13 -25 0.9381 0.8768
-10 -13 -23 1.3267 5.3270
-10 -13 -21 6.2768 0.3796
-10 -13 -19 4.0142 0.3169
-10 -13 -17 -4.9851 0.5123
-10 -13 -15 -3.2155 -1.3633
-10 -13 -13 -8.4832 -3.4487
-10 -13 -11 1.8326 2.4536
-10 -13 -9 3.7374 -2.6076
-10 -13 -7 2.8320 0.6457
-10 -13 -5 0.3300 1.4483
-10 -13 -3 -4.3487 1.1619
-10 -13 -1 -6.3254 -7.2407
-10 -12 -34 -2.8810 -0.7501
-10 -12 -32 -4.1735 2.5290
-10 -12 -30 9.6459 14.1289
-10 -12 -28 -0.3613 -0.2568
-10 -12 -26 6.3357 4.1354
-10 -12 -24 0.6208 -1.2583
-10 -12 -22 -5.1806 3.0510
-10 -12 -20 -2.7066 1.5971
-10 -12 -18 5.9520 -3.6014
-10 -12 -16 -4.3615 -5.7372
-10 -12 -14 7.3748 0.0154
-10 -12 -12 1.3400 -0.0946
-10 -12 -10 -2.3649 -4.1110
-10 -12 -8 -2.7212 -1.4091
-10 -12 -6 -2.7515 -3.9584
-10 -12 -4 -0.9114 -5.3140
-10 -12 -2 8.6702 5.4441
-10 -11 -37 1.2708 -8.3076
-10 -11 -35 -3.1078 0.4959
-10 -11 -33 1.4359 0.4441
-10 -11 -31 0.0897 -2.7456
-10 -11 -29 2.4860 -2.6313
-10 -11 -27 -15.2568 3.0672
-10 -11 -25 4.0311 -3.7840
-10 -11 -23 2.3845 5.2897
-10 -11 -21 9.3537 -5.4177
-10 -11 -19 2.3653 4.5373
-10 -11 -17 -4.4681 0.0334
-10 -11 -15 -5.3083 4.2195
-10 -11 -13 -3.5376 -1.0749
-10 -11 -11 -6.5523 -4.0227
-10 -11 -9 -0.2414 11.2301
-10 -11 -7 9.9993 8.3258
-10 -11 -5 -7.6188 -9.7517
-10 -11 -3 3.1709 9.7348
-10 -11 -1 -13.1737 -11.7658
-10 -10 -40 -2.3256 4.3586
-10 -10 -38 -0.7529 4.3450
-10 -10 -36 0.0034 0.3117
-10 -10 -34 -7.4472 6.1026
-10 -10 -32 4.3724 -4.2848
-10 -10 -30 1.2625 -3.5457
-10 -10 -28 -0.3160 1.1521
-10 -10 -26 2.9516 -13.2225
-10 -10 -24 -5.3160 -2.5888
-10 -10 -22 -3.5644 2.0679
-10 -10 -20 5.5745 -3.9134
-10 -10 -18 7.4696 -0.7888
-10 -10 -16 2.2758 -0.2657
-10 -10 -14 2.0659 -2.8077
-10 -10 -12 -2.0351 -0.9160
-10 -10 -10 -0.4205 0.8727
-10 -10 -8 -5.5480 1.2418
-10 -10 -6 -7.3568 6.4340
-10 -10 -4 -13.5573 -5.2131
-10 -10 -2 9.6735 15.1400
-10 -9 -43 3.1089 3.4928
-10 -9 -41 -12.3828 -6.5989
-10 -9 -39 3.5610 -0.0139
-10 -9 -37 -3.9891 3.2990
-10 -9 -35 0.0062 -2.6320
-10 -9 -33 -1.4931 -1.6252
-10 -9 -31 4.3412 2.2084
-10 -9 -29 0.7218 6.5106
-10 -9 -27 -3.8327 8.5374
-10 -9 -25 2.0834 2.3932
-10 -9 -23 -4.5242 -0.7096
-10 -9 -21 -1.1120 0.7693
-10 -9 -19 -2.6294 2.3324
-10 -9 -17 -4.4672 8.5204
-10 -9 -15 1.4311 -4.8724
-10 -9 -13 -1.1642 5.0661
-10 -9 -11 2.1178 7.1192
-10 -9 -9 0.2952 -12.5574
-10 -9 -7 1.6643 -5.2885
-10 -9 -5 24.1436 -0.1596
-10 -9 -3 5.6360 -4.3462
-10 -9 -1 -1.7439 11.8071
-10 -8 -44 -7.8235 -5.6520
-10 -8 -42 4.3191 2.6292
-10 -8 -40 -4.8768 -2.4206
-10 -8 -38 1.5963 1.0402
-10 -8 -36 -1.7264 3.4502
-10 -8 -34 6.8578 2.9710
-10 -8 -32 -9.1973 7.3184
-10 -8 -30 3.8799 0.2265
-10 -8 -28 -11.3662 -11.4106
-10 -8 -26 2.5142 -13.9406
-10 -8 -24 -4.6581 0.2389
-10 -8 -22 -1.7960 -5.0710
-10 -8 -20 -2.4830 -1.5666
-10 -8 -18 -6.2684 -1.4113
-10 -8 -16 6.0614 -2.1985
-10 -8 -14 6.9350 -6.9912
-10 -8 -12 -3.4314 -8.8458
-10 -8 -10 10.0301 8.3642
-10 -8 -8 13.4062 16.5089
-10 -8 -6 -11.1584 2.0969
-10 -8 -4 -10.3837 12.5461
-10 -8 -2 8.4034 -3.9311
-10 -7 -47 -5.2250 0.3700
-10 -7 -45 -2.0136 -3.9664
-10 -7 -43 -0.1720 0.9600
-10 -7 -41 0.1802 4.1833
-10 -7 -39 -6.4091 0.6416
-10 -7 -37 -4.7730 -0.1438
-10 -7 -35 -1.7783 2.5069
-10 -7 -33 7.7209 -1.5781
-10 -7 -31 -10.1877 -1.9410
-10 -7 -29 -7.3956 -0.7033
-10 -7 -27 0.5095 5.2785
-10 -7 -25 1.7466 1.4709
-10 -7 -23 -3.6270 4.2386
-10 -7 -21 2.8533 -10.8957
-10 -7 -19 -7.9467 -3.8592
-10 -7 -17 4.5993 2.4320
-10 -7 -15 5.0251 -5.5677
-10 -7 -13 -13.2503 -0.8662
-10 -7 -11 -2.7101 5.0082
-10 -7 -9 -3.4879 -2.6113
-10 -7 -7 -1.9820 -14.4219
-10 -7 -5 -8.3437 -9.0296
-10 -7 -3 6.3203 4.4276
-10 -7 -1 6.4872 0.3981
-10 -6 -48 -9.4495 6.4517
-10 -6 -46 -8.5403 -0.5305
-10 -6 -44 -1.9954 -1.9646
-10 -6 -42 1.2573 2.4909
-10 -6 -40 0.8261 1.1106
-10 -6 -38 -5.7717 2.0544
-10 -6 -36 2.1310 1.4439
-10 -6 -34 -5.2355 -0.2416
-10 -6 -32 -5.0198 -1.5989
-10 -6 -30 1.7237 -7.8611
-10 -6 -28 0.8889 -0.1346
-10 -6 -26 0.4789 -2.1647
-10 -6 -24 -0.8353 0.8337
-10 -6 -22 6.9465 0.5379
-10 -6 -20 1.1162 -3.4723
-10 -6 -18 -13.5910 16.3065
-10 -6 -16 -4.2899 -5.9141
-10 -6 -14 9.9630 3.1771
-10 -6 -12 -23.9464 0.3218
-10 -6 -10 -1.5596 7.2545
-10 -6 -8 -8.6655 3.3675
-10 -6 -6 0.9932 -6.8758
-10 -6 -4 -26.7114 26.3581
-10 -6 -2 -5.8291 -3.8778
-10 -5 -49 -2.3306 3.2934
-10 -5 -47 -2.6455 3.3132
-10 -5 -45 -7.3822 -2.8824
-10 -5 -43 0.7322 3.0451
-10 -5 -41 10.6599 -0.2874
-10 -5 -39 12.7400 2.6538
-10 -5 -37 1.3581 -0.5440
-10 -5 -35 1.7469 6.7265
-10 -5 -33 18.0294 -2.8093
-10 -5 -31 6.8611 6.0251
-10 -5 -29 1.7914 -9.6109
-10 -5 -27 -18.7534 8.6365
-10 -5 -25 -3.4333 9.1068
-10 -5 -23 2.8814 -3.0785
-10 -5 -21 6.5706 3.9199
-10 -5 -19 -2.1970 4.7388
-10 -5 -17 -4.4517 0.9690
-10 -5 -15 3.0034 -6.4739
-10 -5 -13 -3.5322 7.4121
-10 -5 -11 0.4699 -8.7159
-10 -5 -9 5.9087 -18.7956
-10 -5 -7 -0.7540 -6.1910
-10 -5 -5 -7.7142 -5.7841
-10 -5 -3 -9.6629 10.0013
-10 -5 -1 2.2888 -1.8696
-10 -4 -50 -5.5272 2.0954
-10 -4 -48 -0.1724 10.4814
-10 -4 -46 -3.3026 4.6030
-10 -4 -44 -0.8494 -5.0537
-10 -4 -42 2.0205 5.3439
-10 -4 -40 5.9146 6.1844
-10 -4 -38 2.2995 7.6278
-10 -4 -36 0.9488 7.3030
-10 -4 -34 -4.5048 4.5366
-10 -4 -32 3.1588 -1.6886
-10 -4 -30 -16.2962 -15.5255
-10 -4 -28 7.1104 -0.7159
-10 -4 -26 -9.7052 6.3651
-10 -4 -24 -3.7998 7.4088
-10 -4 -22 -0.9610 -22.9769
-10 -4 -20 -0.3838 3.8773
-10 -4 -18 8.2376 -1.2890
-10 -4 -16 1.3029 -2.9663
-10 -4 -14 0.9275 3.4138
-10 -4 -12 -3.9487 4.6436
-10 -4 -10 12.6153 -10.6638
-10 -4 -8 18.0690 5.2377
-10 -4 -6 5.4297 3.8454
-10 -4 -4 15.2463 13.2058
-10 -4 -2 -3.1371 5.8502
-10 -3 -51 0.4972 -0.4281
-10 -3 -49 -1.5252 1.7261
-10 -3 -47 -3.2260 1.4112
-10 -3 -45 -1.7836 -1.7963
-10 -3 -43 6.5378 2.9676
-10 -3 -41 -3.7279 12.4558
-10 -3 -39 -5.9186 4.7847
-10 -3 -37 -2.8234 3.8008
-10 -3 -35 -2.1474 -5.9786
-10 -3 -33 -7.9829 14.9107
-10 -3 -31 3.7755 -5.5132
-10 -3 -29 -0.3734 4.7629
-10 -3 -27 2.9297 2.3148
-10 -3 -25 16.3705 1.8298
-10 -3 -23 -0.2202 -16.6498
-10 -3 -21 16.3684 -2.9253
-10 -3 -19 -1.0080 10.5823
-10 -3 -17 1.8332 8.4387
-10 -3 -15 -0.1152 -0.6892
-10 -3 -13 -7.0538 0.5994
-10 -3 -11 -6.2561 -7.4605
-10 -3 -9 19.3679 12.2052
-10 -3 -7 1.6668 0.3112
-10 -3 -5 1.6383 -5.4327
-10 -3 -3 14.1232 7.7461
-10 -3 -1 4.8919 4.7865
-10 -2 -52 -3.0849 -2.3285
-10 -2 -50 -0.4773 12.1769
-10 -2 -48 -3.5667 3.8234
-10 -2 -46 -1.9961 -1.6334
-10 -2 -44 2.1999 -3.1043
-10 -2 -42 -8.6055 1.9004
-10 -2 -40 4.2036 -0.6285
-10 -2 -38 -10.3235 -5.3816
-10 -2 -36 -6.7213 -6.2854
-10 -2 -34 -6.6381 6.7022
-10 -2 -32 5.1451 -0.3599
-10 -2 -30 -1.8462 2.6472
-10 -2 -28 6.5736 -32.3954
-10 -2 -26 13.9888 5.8245
-10 -2 -24 7.6827 -1.9953
-10 -2 -22 16.7787 4.3409
-10 -2 -20 -2.1525 5.4532
-10 -2 -18 -1.9814 -14.3872
-10 -2 -16 13.7293 10.8831
-10 -2 -14 3.0119 -8.3264
-10 -2 -12 11.9090 0.2138
-10 -2 -10 -7.8704 -0.3655
-10 -2 -8 -6.4432 -11.2751
-10 -2 -6 3.9581 -16.6148
-10 -2 -4 -0.3575 -0.1721
-10 -2 -2 -7.3608 1.3973
-10 -1 -51 0.7330 0.9420
-10 -1 -49 -0.6132 -3.0132
-10 -1 -47 -4.4645 -0.8064
-10 -1 -45 3.7325 2.3251
-10 -1 -43 -2.6134 -2.2813
-10 -1 -41 0.4434 -12.5267
-10 -1 -39 2.2673 8.3330
-10 -1 -37 7.3692 -19.0545
-10 -1 -35 -0.2232 -4.0904
-10 -1 -33 -3.9430 5.6975
-10 -1 -31 -4.6153 -5.6299
-10 -1 -29 0.8744 6.0068
-10 -1 -27 7.2008 -8.4690
-10 -1 -25 16.4687 -24.0379
-10 -1 -23 -6.6054 8.4175
-10 -1 -21 -10.4848 -11.9791
-10 -1 -19 11.1674 3.0986
-10 -1 -17 11.7249 3.4402
-10 -1 -15 2.9017 -3.5949
-10 -1 -13 -6.8834 5.2744
-10 -1 -11 1.7098 1.3637
-10 -1 -9 2.4583 -7.8246
-10 -1 -7 0.6329 -3.6122
-10 -1 -5 16.6811 10.5518
-10 -1 -3 -7.5714 5.7545
-10 -1 -1 -4.7379 10.0226
-9 -16 -15 -2.7934 3.9045
-9 -16 -13 2.5291 0.0613
-9 -16 -11 5.1345 -1.3211
-9 -16 -9 -0.7004 0.3901
-9 -16 -7 0.3409 -2.2883
-9 -16 -5 -2.0938 -0.8102
-9 -16 -3 -3.9160 2.7744
-9 -16 -1 2.8085 -1.4716
-9 -15 -24 4.3505 0.7665
-9 -15 -22 0.5804 -0.1968
-9 -15 -20 0.0235 2.8461
-9 -15 -18 -1.1135 -0.3442
-9 -15 -16 -2.6612 2.9071
-9 -15 -14 -2.0322 4.7054
-9 -15 -12 -2.9171 0.0049
-9 -15 -10 4.4467 -3.4240
-9 -15 -8 -3.7006 -4.0171
-9 -15 -6 2.2029 1.0756
-9 -15 -4 -4.4593 -1.3311
-9 -15 -2 0.3387 5.7086
-9 -14 -29 -2.7098 -1.0601
-9 -14 -27 4.7840 -6.2343
-9 -14 -25 -0.8701 0.6770
-9 -14 -23 4.6454 2.8726
-9 -14 -21 2.7343 1.0776
-9 -14 -19 -3.0084 3.3839
-9 -14 -17 4.7404 -2.4720
-9 -14 -15 4.2186 0.9085
-9 -14 -13 -2.4229 6.0082
-9 -14 -11 -1.7435 -4.1424
-9 -14 -9 -0.7809 -0.4691
-9 -14 -7 2.9958 2.3535
-9 -14 -5 1.6271 1.6698
-9 -14 -3 -0.2766 1.1702
-9 -14 -1 5.9814 -6.8139
-9 -13 -34 -0.7424 -8.5380
-9 -13 -32 -7.8882 -1.2403
-9 -13 -30 -1.2450 4.5398
-9 -13 -28 3.8894 -5.5471
-9 -13 -26 2.9213 -6.6322
-9 -13 -24 0.0375 -3.8035
-9 -13 -22 -0.6515 -1.0560
-9 -13 -20 4.6634 -2.9750
-9 -13 -18 -4.3301 0.4932
-9 -13 -16 3.2739 2.5813
-9 -13 -14 -3.5077 3.3898
-9 -13 -12 8.6201 -2.6218
-9 -13 -10 1.4048 0.9189
-9 -13 -8 1.0332 10.4270
-9 -13 -6 -1.8758 2.7483
-9 -13 -4 3.0292 1.2827
-9 -13 -2 4.2026 -6.9711
-9 -12 -37 5.6074 6.7438
-9 -12 -35 -1.8283 -0.2585
-9 -12 -33 3.0428 -7.9479
-9 -12 -31 -1.9741 1.9681
-9 -12 -29 -3.2935 0.8165
-9 -12 -27 13.2403 -7.5786
-9 -12 -25 2.2824 -1.4430
-9 -12 -23 -1.0820 1.2178
-9 -12 -21 8.8791 0.4908
-9 -12 -19 2.8028 -5.7730
-9 -12 -17 2.8782 -5.9161
-9 -12 -15 1.4586 1.9680
-9 -12 -13 2.3945 -4.3875
-9 -12 -11 -1.8317 1.4538
-9 -12 -9 2.0990 -5.4048
-9 -12 -7 4.3080 1.2582
-9 -12 -5 2.4219 -2.9906
-9 -12 -3 2.7480 1.3383
-9 -12 -1 0.6532 -2.5325
-9 -11 -40 -8.4628 1.4973
-9 -11 -38 1.2954 -3.5985
-9 -11 -36 -1.9581 1.9779
-9 -11 -34 1.2985 -8.2409
-9 -11 -32 -0.7250 -3.1963
-9 -11 -30 6.6866 8.4709
-9 -11 -28 -2.0918 -3.1105
-9 -11 -26 -1.8213 -3.0284
-9 -11 -24 -7.6034 -0.6993
-9 -11 -22 1.6143 1.1861
-9 -11 -20 2.3892 -1.8864
-9 -11 -18 -1.8331 -1.0152
-9 -11 -16 -9.0859 -3.0276
-9 -11 -14 -1.2365 4.9741
-9 -11 -12 0.0602 5.1568
-9 -11 -10 8.6476 0.7756
-9 -11 -8 2.7052 -5.1285
-9 -11 -6 3.0932 -4.1479
-9 -11 -4 4.3574 0.1050
-9 -11 -2 7.9774 0.5349
-9 -10 -43 -3.0603 -2.9510
-9 -10 -41 1.1806 -2.7504
-9 -10 -39 -5.0366 5.1303
-9 -10 -37 3.8816 -6.4161
-9 -10 -35 -4.7011 4.8158
-9 -10 -33 5.8227 0.3856
-9 -10 -31 -2.0188 -2.7437
-9 -10 -29 2.4415 -5.0488
-9 -10 -27 0.5131 -2.7435
-9 -10 -25 -4.3847 0.1009
-9 -10 -23 -3.2297 -1.6664
-9 -10 -21 -0.1422 2.3722
-9 -10 -19 1.3638 -7.2653
-9 -10 -17 2.2991 -6.7865
-9 -10 -15 -1.9569 3.5688
-9 -10 -13 1.2977 -6.6464
-9 -10 -11 -4.2205 -1.5733
-9 -10 -9 0.5236 8.5668
-9 -10 -7 2.4162 10.6061
-9 -10 -5 -26.7912 -1.6341
-9 -10 -3 -1.3721 8.6003
-9 -10 -1 -1.1826 -8.7777
-9 -9 -44 -3.9102 1.6381
-9 -9 -42 -0.5473 -2.3466
-9 -9 -40 9.2467 2.1949
-9 -9 -38 3.2223 0.1415
-9 -9 -36 -1.6354 0.2447
-9 -9 -34 -8.4530 -9.8647
-9 -9 -32 0.6683 5.2697
-9 -9 -30 -5.2243 -15.0423
-9 -9 -28 -7.3971 5.7408
-9 -9 -26 -8.7562 6.5331
-9 -9 -24 7.2553 -0.3506
-9 -9 -22 -5.0332 8.1209
-9 -9 -20 3.1979 -3.0257
-9 -9 -18 -14.3420 -12.5109
-9 -9 -16 1.5606 1.6164
-9 -9 -14 2.0174 6.7885
-9 -9 -12 8.6168 4.8389
-9 -9 -10 -4.3259 -5.6981
-9 -9 -8 2.3933 19.1253
-9 -9 -6 16.7757 -4.5693
-9 -9 -4 -3.2163 -20.8225
-9 -9 -2 -21.4914 21.6598
-9 -8 -47 -1.2849 1.7402
-9 -8 -45 -0.9211 -12.8806
-9 -8 -43 -0.3111 3.0323
-9 -8 -41 -4.3492 0.2805
-9 -8 -39 8.2825 4.2065
-9 -8 -37 0.8319 3.4852
-9 -8 -35 3.9916 -3.1318
-9 -8 -33 -4.1758 2.8666
-9 -8 -31 4.3751 0.4565
-9 -8 -29 -2.1212 -5.9473
-9 -8 -27 8.0242 -13.5692
-9 -8 -25 6.5530 -0.5617
-9 -8 -23 -4.9229 -3.3175
-9 -8 -21 5.6724 2.8965
-9 -8 -19 -3.2943 -1.1455
-9 -8 -17 -1.7824 3.2682
-9 -8 -15 -11.5986 -1.6094
-9 -8 -13 -4.1022 3.0036
-9 -8 -11 7.7791 -2.7212
-9 -8 -9 -25.1734 -7.0990
-9 -8 -7 -11.7594 -5.3199
-9 -8 -5 4.4167 10.3530
-9 -8 -3 -9.0611 8.4090
-9 -8 -1 14.6289 1.6201
-9 -7 -48 4.9143 4.0895
-9 -7 -46 -10.0594 0.3204
-9 -7 -44 -4.9698 -4.7294
-9 -7 -42 -0.8130 -1.7895
-9 -7 -40 -1.1144 2.5710
-9 -7 -38 2.9095 2.1460
-9 -7 -36 5.2574 -1.5908
-9 -7 -34 -1.0252 5.7468
-9 -7 -32 -3.7813 3.1387
-9 -7 -30 -9.7668 6.6623
-9 -7 -28 5.3830 -6.8409
-9 -7 -26 1.3336 -4.6611
-9 -7 -24 6.3221 11.6824
-9 -7 -22 -0.3379 -0.0616
-9 -7 -20 -8.1979 7.4447
-9 -7 -18 -14.2336 3.7219
-9 -7 -16 -0.2937 -18.8286
-9 -7 -14 24.9291 0.0975
-9 -7 -12 -2.4946 -4.4474
-9 -7 -10 -7.0476 -9.3540
-9 -7 -8 11.8615 -2.0358
-9 -7 -6 -15.3226 -11.2814
-9 -7 -4 -3.8772 18.2448
-9 -7 -2 26.8105 -21.4257
-9 -6 -49 3.3300 0.0165
-9 -6 -47 -4.7550 1.4823
-9 -6 -45 -2.0979 4.3646
-9 -6 -43 4.5099 6.6121
-9 -6 -41 -10.0945 5.8431
-9 -6 -39 -5.6227 -5.7912
-9 -6 -37 -8.9663 -1.6199
-9 -6 -35 -3.7184 -10.3680
-9 -6 -33 -8.6560 14.0844
-9 -6 -31 -5.4294 -5.5095
-9 -6 -29 6.9865 12.3327
-9 -6 -27 -3.0550 -2.9044
-9 -6 -25 13.5642 -9.2648
-9 -6 -23 -0.6855 4.4466
-9 -6 -21 3.3270 10.0394
-9 -6 -19 -5.5405 -3.7457
-9 -6 -17 -5.0126 4.2782
-9 -6 -15 -11.1467 19.7617
-9 -6 -13 -6.4737 -14.2109
-9 -6 -11 -13.8278 24.1937
-9 -6 -9 12.1377 -10.3823
-9 -6 -7 -5.6921 16.5321
-9 -6 -5 -4.9961 7.0510
-9 -6 -3 3.3313 2.6562
-9 -6 -1 -10.8869 0.4566
-9 -5 -50 -3.7867 9.5760
-9 -5 -48 0.4228 5.3286
-9 -5 -46 -3.4954 -2.9349
-9 -5 -44 -3.3370 -1.7621
-9 -5 -42 -4.4974 1.7573
-9 -5 -40 0.7534 1.0785
-9 -5 -38 -13.4892 -3.6217
-9 -5 -36 5.9580 5.3338
-9 -5 -34 -1.8005 7.6280
-9 -5 -32 12.6426 -3.5403
-9 -5 -30 -2.1076 -28.0306
-9 -5 -28 21.6062 -27.7200
-9 -5 -26 -0.9482 0.3748
-9 -5 -24 3.6013 1.6952
-9 -5 -22 3.1303 -2.8146
-9 -5 -20 1.5949 16.8352
-9 -5 -18 3.7974 6.2464
-9 -5 -16 -3.1126 3.5235
-9 -5 -14 3.8511 -7.5459
-9 -5 -12 -15.2084 8.3780
-9 -5 -10 -21.9930 10.0773
-9 -5 -8 22.0747 -2.4519
-9 -5 -6 -13.1802 -3.7716
-9 -5 -4 19.7376 -15.9472
-9 -5 -2 -11.5792 9.3497
-9 -4 -51 0.6637 -8.2486
-9 -4 -49 -3.2423 6.7722
-9 -4 -47 0.5384 4.2536
-9 -4 -45 2.9211 -2.7666
-9 -4 -43 -5.0566 -2.5418
-9 -4 -41 1.5008 -10.5028
-9 -4 -39 7.8077 -0.2981
-9 -4 -37 -10.2714 -2.8060
-9 -4 -35 5.5582 6.0324
-9 -4 -33 -0.3453 3.3566
-9 -4 -31 2.2070 6.7019
-9 -4 -29 15.6016 4.7341
-9 -4 -27 -4.0397 15.4902
-9 -4 -25 -6.5292 2.6530
-9 -4 -23 20.1003 6.9824
-9 -4 -21 -0.3920 -9.8277
-9 -4 -19 1.7021 1.0723
-9 -4 -17 -8.3200 -3.6547
-9 -4 -15 -2.7198 -13.8686
-9 -4 -13 0.8123 -4.2516
-9 -4 -11 10.8237 -11.1980
-9 -4 -9 -19.8576 -15.3664
-9 -4 -7 16.8471 17.1574
-9 -4 -5 -10.8879 12.6537
-9 -4 -3 6.0240 6.7346
-9 -4 -1 14.7926 -5.4638
-9 -3 -52 -2.1104 -1.9069
-9 -3 -50 -0.4094 12.7372
-9 -3 -48 -0.6631 2.8970
-9 -3 -46 -4.6883 -1.5035
-9 -3 -44 -11.8277 -10.3717
-9 -3 -42 -8.4244 -4.3218
-9 -3 -40 -5.1732 -2.0112
-9 -3 -38 5.1911 -2.4672
-9 -3 -36 -16.5423 -11.4896
-9 -3 -34 1.0363 4.3216
-9 -3 -32 -7.0900 4.8599
-9 -3 -30 -9.9254 -10.2876
-9 -3 -28 -4.5767 11.5197
-9 -3 -26 7.4534 0.3906
-9 -3 -24 15.4148 -3.5179
-9 -3 -22 19.5075 -8.9068
-9 -3 -20 -5.9162 -19.4147
-9 -3 -18 11.4913 1.5028
-9 -3 -16 -6.1842 6.9060
-9 -3 -14 18.2915 -1.3061
-9 -3 -12 -2.1085 11.1328
-9 -3 -10 14.3864 0.9010
-9 -3 -8 -21.8702 -0.9985
-9 -3 -6 5.7912 17.6964
-9 -3 -4 20.1610 6.9685
-9 -3 -2 3.2938 1.7540
-9 -2 -53 -6.0737 -3.6826
-9 -2 -51 2.4204 0.1340
-9 -2 -49 -0.5398 3.2060
-9 -2 -47 5.4676 -6.6273
-9 -2 -45 -10.1897 -1.4292
-9 -2 -43 -1.4672 -3.5927
-9 -2 -41 -2.6871 -8.6607
-9 -2 -39 -7.4204 -6.7416
-9 -2 -37 5.8546 -3.3844
-9 -2 -35 -3.9878 -9.9922
-9 -2 -33 0.3874 6.4628
-9 -2 -31 13.4077 -4.9473
-9 -2 -29 7.4362 -11.4550
-9 -2 -27 4.8830 20.1742
-9 -2 -25 26.6543 -6.5438
-9 -2 -23 -3.4883 6.2437
-9 -2 -21 -2.2950 2.1412
-9 -2 -19 8.4788 -7.5174
-9 -2 -17 12.5560 -5.4022
-9 -2 -15 4.9118 3.1774
-9 -2 -13 4.7766 -6.0240
-9 -2 -11 22.9473 1.2752
-9 -2 -9 -1.2973 -11.7103
-9 -2 -7 4.3723 10.3808
-9 -2 -5 44.8796 -5.7584
-9 -2 -3 7.9867 -12.3389
-9 -2 -1 23.4576 -20.2609
-9 -1 -54 -1.6068 -3.1414
-9 -1 -52 -0.4984 -2.5821
-9 -1 -50 2.3093 2.3026
-9 -1 -48 2.2377 -13.4997
-9 -1 -46 7.7689 2.0337
-9 -1 -44 -7.4034 -3.5210
-9 -1 -42 -1.3684 -12.2882
-9 -1 -40 0.0969 1.8782
-9 -1 -38 4.1126 -5.3209
-9 -1 -36 8.0249 10.7064
-9 -1 -34 6.3824 5.6527
-9 -1 -32 -25.0409 -1.4223
-9 -1 -30 -2.9111 3.7516
-9 -1 -28 2.0949 1.4614
-9 -1 -26 -6.5786 8.2012
-9 -1 -24 -5.7512 -2.0208
-9 -1 -22 -6.5279 -9.4135
-9 -1 -20 -1.0024 2.7877
-9 -1 -18 6.6495 -22.6646
-9 -1 -16 3.7575 -6.9089
-9 -1 -14 26.5416 -13.4891
-9 -1 -12 14.1225 18.5024
-9 -1 -10 8.5969 -4.7728
-9 -1 -8 10.5182 0.5466
-9 -1 -6 -9.4197 16.2459
-9 -1 -4 -8.5044 1.0754
-9 -1 -2 26.6678 -15.5387
-8 -17 -9 -0.3383 -2.1535
-8 -17 -7 1.8476 0.9658
-8 -17 -5 1.3537 -0.4722
-8 -17 -3 -0.2637 2.2233
-8 -17 -1 -1.9110 0.6372
-8 -16 -20 -2.5686 9.7352
-8 -16 -18 -0.6231 0.2408
-8 -16 -16 1.8138 -3.0628
-8 -16 -14 4.3770 4.1111
-8 -16 -12 -0.7350 -2.2881
-8 -16 -10 -5.1567 -0.5769
-8 -16 -8 -3.2472 3.4178
-8 -16 -6 3.3521 -3.8120
-8 -16 -4 0.6217 -0.3647
-8 -16 -2 2.3176 0.1577
-8 -15 -27 0.6964 -1.6849
-8 -15 -25 0.5794 -1.3158
-8 -15 -23 1.9622 -1.6529
-8 -15 -21 3.1802 -0.3801
-8 -15 -19 -0.3846 -2.3149
-8 -15 -17 2.9311 -1.1251
-8 -15 -15 -3.7536 7.4085
-8 -15 -13 -0.7742 2.2559
-8 -15 -11 -0.4745 0.6585
-8 -15 -9 -2.8057 3.2715
-8 -15 -7 -0.2765 0.0970
-8 -15 -5 -2.4084 -0.1954
-8 -15 -3 -1.5606 -0.1792
-8 -15 -1 0.6368 -1.5049
-8 -14 -32 0.1478 0.5441
-8 -14 -30 1.6327 6.0315
-8 -14 -28 -3.1170 -0.6212
-8 -14 -26 2.8639 -0.5786
-8 -14 -24 2.9016 3.5036
-8 -14 -22 0.5215 -2.6135
-8 -14 -20 -2.7323 4.9558
-8 -14 -18 -1.3567 -1.2358
-8 -14 -16 5.6176 2.9150
-8 -14 -14 1.6435 2.4455
-8 -14 -12 -2.0501 2.1590
-8 -14 -10 -0.1761 -2.8023
-8 -14 -8 -4.6341 0.1627
-8 -14 -6 0.2026 -3.6592
-8 -14 -4 5.8809 -1.0459
-8 -14 -2 3.7656 5.8501
-8 -13 -35 0.4293 0.9214
-8 -13 -33 0.1932 -2.6093
-8 -13 -31 1.3357 1.0236
-8 -13 -29 -6.0042 -2.3177
-8 -13 -27 -2.9322 -10.4556
-8 -13 -25 3.4559 -2.6105
-8 -13 -23 -3.2105 -0.3426
-8 -13 -21 -1.0768 -3.4527
-8 -13 -19 1.3427 5.5976
-8 -13 -17 1.7110 -4.2562
-8 -13 -15 5.0508 0.6471
-8 -13 -13 1.9494 8.1550
-8 -13 -11 3.3206 2.3963
-8 -13 -9 -0.8591 3.7770
-8 -13 -7 16.1279 -3.6829
-8 -13 -5 -2.8778 -4.5383
-8 -13 -3 0.2759 4.8240
-8 -13 -1 2.6653 1.1664
-8 -12 -40 4.1474 -4.3028
-8 -12 -38 0.7254 2.1375
-8 -12 -36 -0.7409 -5.8749
-8 -12 -34 -1.7672 1.0565
-8 -12 -32 -3.9867 -1.0611
-8 -12 -30 -2.2409 11.4544
-8 -12 -28 3.9413 -0.3413
-8 -12 -26 3.4095 4.1794
-8 -12 -24 -1.7293 -1.6102
-8 -12 -22 -4.1409 -4.0511
-8 -12 -20 -0.4796 -0.7944
-8 -12 -18 -7.0088 -3.6988
-8 -12 -16 2.4259 -3.3480
-8 -12 -14 -3.0467 -6.7802
-8 -12 -12 8.2249 -9.1095
-8 -12 -10 -10.8321 -7.7861
-8 -12 -8 6.5774 12.6775
-8 -12 -6 -0.3587 -5.9140
-8 -12 -4 8.6411 2.1312
-8 -12 -2 -5.6919 -6.4205
-8 -11 -43 1.3718 0.0665
-8 -11 -41 5.1372 -8.2006
-8 -11 -39 4.6673 -2.6582
-8 -11 -37 4.6671 -1.8588
-8 -11 -35 0.3324 -5.5443
-8 -11 -33 -4.1678 -4.7970
-8 -11 -31 -1.3099 -4.0244
-8 -11 -29 3.1047 5.0248
-8 -11 -27 5.0545 1.1289
-8 -11 -25 6.2807 -7.0891
-8 -11 -23 -4.1534 -0.4501
-8 -11 -21 4.7299 -0.7859
-8 -11 -19 6.5083 -3.3420
-8 -11 -17 9.1836 0.5800
-8 -11 -15 5.0431 -1.5610
-8 -11 -13 -1.3462 -3.3550
-8 -11 -11 -4.8117 5.6724
-8 -11 -9 5.3999 -8.3432
-8 -11 -7 14.8656 -3.5407
-8 -11 -5 5.8986 1.7327
-8 -11 -3 -0.1312 -15.2796
-8 -11 -1 -2.0199 -2.8072
-8 -10 -44 1.6242 -5.6714
-8 -10 -42 1.5240 0.7586
-8 -10 -40 -2.8916 -1.9612
-8 -10 -38 1.0619 -2.0034
-8 -10 -36 6.8705 -3.5657
-8 -10 -34 1.8728 -3.9442
-8 -10 -32 -7.9939 -3.7008
-8 -10 -30 9.5631 6.8325
-8 -10 -28 2.8788 -8.1642
-8 -10 -26 -9.9678 -1.3659
-8 -10 -24 -6.0940 -0.4800
-8 -10 -22 -1.3053 -4.8630
-8 -10 -20 -3.7863 3.9613
-8 -10 -18 -8.8793 1.6630
-8 -10 -16 0.5715 -3.7183
-8 -10 -14 -17.5968 -16.2495
-8 -10 -12 -5.0997 0.2139
-8 -10 -10 9.8610 11.9786
-8 -10 -8 -3.7667 1.9688
-8 -10 -6 -14.3393 2.8908
-8 -10 -4 -18.1611 17.2600
-8 -10 -2 -4.5727 -4.8017
-8 -9 -47 2.5133 -1.8069
-8 -9 -45 6.0497 2.4910
-8 -9 -43 -3.7778 -2.3507
-8 -9 -41 5.3810 -3.1298
-8 -9 -39 -3.3418 -2.2249
-8 -9 -37 4.5744 1.8465
-8 -9 -35 -4.6155 -3.7465
-8 -9 -33 0.8157 -3.0510
-8 -9 -31 -4.2841 -4.1381
-8 -9 -29 1.8327 7.5741
-8 -9 -27 -1.0945 9.0575
-8 -9 -25 -4.6118 6.8625
-8 -9 -23 8.4249 1.1209
-8 -9 -21 -7.5696 9.2600
-8 -9 -19 -5.5602 -2.1275
-8 -9 -17 0.1679 -0.7284
-8 -9 -15 7.4901 -2.2664
-8 -9 -13 4.5921 0.2120
-8 -9 -11 -11.8067 -1.8826
-8 -9 -9 5.5721 11.8759
-8 -9 -7 11.7005 1.2105
-8 -9 -5 -9.1784 -4.5452
-8 -9 -3 7.1777 -9.5937
-8 -9 -1 -17.0423 7.0139
-8 -8 -48 3.8071 12.3549
-8 -8 -46 5.9205 -7.6963
-8 -8 -44 -1.2303 -1.5863
-8 -8 -42 -1.4506 8.6751
-8 -8 -40 4.3038 -2.1818
-8 -8 -38 7.1516 -10.2925
-8 -8 -36 -4.3309 -1.9324
-8 -8 -34 -1.8166 -1.3201
-8 -8 -32 -1.5334 2.4243
-8 -8 -30 -14.7867 -20.9304
-8 -8 -28 -4.9201 1.1841
-8 -8 -26 7.8654 -0.3988
-8 -8 -24 20.9596 -7.5118
-8 -8 -22 17.3722 15.5738
-8 -8 -20 -1.2592 -4.3898
-8 -8 -18 -10.7156 2.5995
-8 -8 -16 -6.9550 -5.5229
-8 -8 -14 -16.8910 5.1945
-8 -8 -12 13.6118 -7.5550
-8 -8 -10 -8.1192 13.3703
-8 -8 -8 8.6225 31.8386
-8 -8 -6 15.7629 3.9571
-8 -8 -4 -30.1052 -17.7882
-8 -8 -2 -10.0985 40.5494
-8 -7 -51 -1.5288 -5.0177
-8 -7 -49 0.3313 10.7443
-8 -7 -47 -9.2210 2.2260
-8 -7 -45 -5.3062 -2.7163
-8 -7 -43 -1.5861 5.1131
-8 -7 -41 4.2402 -4.8074
-8 -7 -39 -9.8127 -0.8103
-8 -7 -37 5.0220 -4.2954
-8 -7 -35 -4.9788 3.7554
-8 -7 -33 5.0514 -0.2725
-8 -7 -31 -6.0783 8.7735
-8 -7 -29 -13.7370 -8.6110
-8 -7 -27 8.1512 0.6626
-8 -7 -25 0.8270 9.8846
-8 -7 -23 3.2412 -3.0787
-8 -7 -21 -10.6880 3.6964
-8 -7 -19 22.0706 -4.0169
-8 -7 -17 -3.4632 -10.8583
-8 -7 -15 13.0621 -1.9350
-8 -7 -13 1.9241 19.4884
-8 -7 -11 -13.7038 -7.0827
-8 -7 -9 -12.2573 -7.0392
-8 -7 -7 0.4297 -6.6674
-8 -7 -5 3.2417 -5.3802
-8 -7 -3 -8.2635 -7.6481
-8 -7 -1 21.2436 -3.1242
-8 -6 -52 -4.3571 4.5374
-8 -6 -50 3.9708 12.0229
-8 -6 -48 11.5821 -11.4347
-8 -6 -46 -7.9618 0.2588
-8 -6 -44 8.1422 13.8061
-8 -6 -42 -12.2890 3.7781
-8 -6 -40 -2.4422 1.4781
-8 -6 -38 5.6705 2.8529
-8 -6 -36 -2.4233 -26.8899
-8 -6 -34 -8.0684 20.9570
-8 -6 -32 -9.8551 2.5644
-8 -6 -30 -0.2828 -7.4344
-8 -6 -28 2.6047 7.8341
-8 -6 -26 19.0105 -4.1106
-8 -6 -24 11.1228 7.2987
-8 -6 -22 -6.9761 4.3615
-8 -6 -20 -15.1188 7.8338
-8 -6 -18 -3.8037 0.2116
-8 -6 -16 -28.0116 -5.2739
-8 -6 -14 -3.4193 3.4309
-8 -6 -12 11.5538 6.1622
-8 -6 -10 1.6505 9.9641
-8 -6 -8 -13.0559 -14.2866
-8 -6 -6 -8.1973 -6.2639
-8 -6 -4 -3.3211 17.4340
-8 -6 -2 26.1730 -19.4549
-8 -5 -53 1.8949 -10.9554
-8 -5 -51 -3.6348 -1.6941
-8 -5 -49 1.4533 -3.0489
-8 -5 -47 -5.3897 -0.9591
-8 -5 -45 -0.7980 0.3000
-8 -5 -43 -7.2215 14.7875
-8 -5 -41 -1.0140 0.9467
-8 -5 -39 -1.1624 2.2538
-8 -5 -37 0.7361 -7.9147
-8 -5 -35 -0.4855 -2.0860
-8 -5 -33 -1.7458 1.6595
-8 -5 -31 -17.9795 5.8589
-8 -5 -29 10.7506 -10.2535
-8 -5 -27 -11.6333 9.0100
-8 -5 -25 -16.4540 -15.3797
-8 -5 -23 14.1775 16.5438
-8 -5 -21 3.6442 9.2769
-8 -5 -19 12.4936 -0.6720
-8 -5 -17 16.7454 4.1139
-8 -5 -15 7.9766 9.1059
-8 -5 -13 -19.4086 11.1254
-8 -5 -11 -14.9173 7.5467
-8 -5 -9 -5.7349 1.7801
-8 -5 -7 -38.0675 34.4702
-8 -5 -5 27.3602 49.5256
-8 -5 -3 -45.9819 -0.9187
-8 -5 -1 -11.4686 -14.1904
-8 -4 -54 -1.2179 -0.4201
-8 -4 -52 15.2023 -0.3346
-8 -4 -50 -2.7102 3.7817
-8 -4 -48 -4.1863 1.3124
-8 -4 -46 2.4074 -5.8342
-8 -4 -44 -6.3006 -7.9843
-8 -4 -42 -0.9140 -4.2011
-8 -4 -40 8.2197 -2.2816
-8 -4 -38 17.1244 8.9662
-8 -4 -36 -8.0456 2.8175
-8 -4 -34 27.1327 -14.4194
-8 -4 -32 -9.8608 -7.1411
-8 -4 -30 9.5653 -3.3307
-8 -4 -28 2.4557 3.3244
-8 -4 -26 -1.5305 4.8751
-8 -4 -24 -9.1794 18.0872
-8 -4 -22 -6.1593 -24.0152
-8 -4 -20 0.5857 17.2337
-8 -4 -18 -19.6236 0.1788
-8 -4 -16 -2.8403 -14.1189
-8 -4 -14 4.4607 -18.3559
-8 -4 -12 -45.7291 -5.0540
-8 -4 -10 21.7785 3.1299
-8 -4 -8 5.2837 -4.0293
-8 -4 -6 29.1679 -6.8446
-8 -4 -4 -14.3139 7.2689
-8 -4 -2 2.0431 19.4422
-8 -3 -55 1.4638 -3.5723
-8 -3 -53 -0.6590 -4.3585
-8 -3 -51 -0.3810 -8.0081
-8 -3 -49 3.8445 -1.7283
-8 -3 -47 6.5850 -3.4971
-8 -3 -45 -9.3362 -7.5455
-8 -3 -43 1.4862 5.9743
-8 -3 -41 1.0635 10.8553
-8 -3 -39 9.5994 3.3392
-8 -3 -37 1.2629 -0.5351
-8 -3 -35 -4.8760 5.1302
-8 -3 -33 -7.2456 8.8559
-8 -3 -31 8.1196 -1.9061
-8 -3 -29 -12.1813 12.4002
-8 -3 -27 -19.0949 13.0375
-8 -3 -25 -12.5418 5.7229
-8 -3 -23 -1.7006 -16.1621
-8 -3 -21 -6.1238 -2.6564
-8 -3 -19 16.5002 20.2194
-8 -3 -17 -2.3476 -4.0909
-8 -3 -15 -9.4628 9.2150
-8 -3 -13 32.9239 0.6324
-8 -3 -11 -1.6436 -34.9441
-8 -3 -9 21.8793 27.4132
-8 -3 -7 37.9666 18.6891
-8 -3 -5 -5.0314 -3.9101
-8 -3 -3 8.2117 20.2889
-8 -3 -1 8.7434 -2.0500
-8 -2 -54 -1.0259 2.7004
-8 -2 -52 -7.7353 -6.0053
-8 -2 -50 -1.5285 -0.5578
-8 -2 -48 -0.0897 10.0817
-8 -2 -46 -1.3972 0.8312
-8 -2 -44 0.8372 3.8979
-8 -2 -42 5.0603 7.0427
-8 -2 -40 3.4713 -0.3778
-8 -2 -38 -4.5707 -0.5275
-8 -2 -36 1.7535 11.6121
-8 -2 -34 -6.7751 -6.7103
-8 -2 -32 31.8832 24.2388
-8 -2 -30 -10.9164 -8.8531
-8 -2 -28 4.6979 8.4715
-8 -2 -26 8.6179 6.6349
-8 -2 -24 -17.1747 -4.3317
-8 -2 -22 21.6362 -25.2255
-8 -2 -20 -9.6764 15.2968
-8 -2 -18 -2.1914 -1.1851
-8 -2 -16 -5.1894 5.9486
-8 -2 -14 19.1097 1.6879
-8 -2 -12 -11.4886 -1.7992
-8 -2 -10 6.5713 7.9103
-8 -2 -8 -37.2999 13.5345
-8 -2 -6 -9.0516 15.5237
-8 -2 -4 18.1771 1.8440
-8 -2 -2 12.4390 -6.9288
-8 -1 -55 4.0157 -5.9069
-8 -1 -53 -3.6258 -5.2367
-8 -1 -51 2.0636 -0.3419
-8 -1 -49 1.1749 1.2227
-8 -1 -47 1.6063 3.4985
-8 -1 -45 1.5956 -0.2319
-8 -1 -43 0.0927 4.7156
-8 -1 -41 -1.1139 8.9482
-8 -1 -39 -9.5930 -3.4824
-8 -1 -37 -4.7970 -5.1477
-8 -1 -35 -4.8252 14.2312
-8 -1 -33 -8.4365 12.0316
-8 -1 -31 -0.7703 -5.7012
-8 -1 -29 3.9473 14.8391
-8 -1 -27 -8.1806 -20.2359
-8 -1 -25 -2.4103 -1.1883
-8 -1 -23 -11.1282 -8.1418
-8 -1 -21 -6.5331 -16.1139
-8 -1 -19 -1.3006 20.2375
-8 -1 -17 26.8392 16.5992
-8 -1 -15 0.5255 7.0846
-8 -1 -13 -7.1627 -14.4936
-8 -1 -11 20.8391 12.3392
-8 -1 -9 -14.6307 -24.2228
-8 -1 -7 -1.2942 -0.7749
-8 -1 -5 54.3643 11.2041
-8 -1 -3 -27.5999 -41.0697
-8 -1 -1 -8.5782 12.4291
-7 -17 -16 4.5687 -1.0567
-7 -17 -14 -2.5010 0.8082
-7 -17 -12 2.0053 0.3022
-7 -17 -10 -9.0950 2.2324
-7 -17 -8 -0.9884 0.0374
-7 -17 -6 -4.6098 3.3662
-7 -17 -4 -1.9170 4.4851
-7 -17 -2 1.0931 -0.7805
-7 -16 -23 1.4340 2.6875
-7 -16 -21 0.3392 0.5966
-7 -16 -19 -1.2814 -2.5441
-7 -16 -17 -3.4492 2.3545
-7 -16 -15 -1.7887 -2.5238
-7 -16 -13 -1.9583 -0.6813
-7 -16 -11 -2.1430 -1.1696
-7 -16 -9 1.2482 -1.4990
-7 -16 -7 -3.5324 -7.8410
-7 -16 -5 3.5552 -3.0011
-7 -16 -3 2.6917 3.8311
-7 -16 -1 1.3680 4.3533
-7 -15 -30 -0.8858 1.8058
-7 -15 -28 -1.6452 1.1641
-7 -15 -26 -1.1415 -2.3836
-7 -15 -24 2.0592 -3.8708
-7 -15 -22 0.5815 -0.3492
-7 -15 -20 3.0012 -4.8097
-7 -15 -18 -1.0023 -0.2415
-7 -15 -16 -3.2481 2.6634
-7 -15 -14 2.5220 8.2523
-7 -15 -12 2.0989 2.5493
-7 -15 -10 -5.8204 4.3069
-7 -15 -8 -4.6979 -3.1411
-7 -15 -6 -1.8653 4.5923
-7 -15 -4 -1.0460 3.3961
-7 -15 -2 -0.9406 2.8500
-7 -14 -35 0.1086 0.8710
-7 -14 -33 1.0897 4.0303
-7 -14 -31 -0.5455 -0.0355
-7 -14 -29 -2.2831 8.3227
-7 -14 -27 -0.4123 0.5924
-7 -14 -25 0.5670 -1.8236
-7 -14 -23 -1.1678 2.0018
-7 -14 -21 -1.8270 0.8582
-7 -14 -19 -0.1260 -0.6642
-7 -14 -17 -0.4857 1.9650
-7 -14 -15 -0.4422 -0.8670
-7 -14 -13 -0.9407 -1.0950
-7 -14 -11 -2.2972 -2.8595
-7 -14 -9 -0.6435 0.6887
-7 -14 -7 -0.9057 0.7800
-7 -14 -5 1.9932 -0.0930
-7 -14 -3 -0.1511 -3.0621
-7 -14 -1 2.0623 -1.3916
-7 -13 -38 -0.7853 -1.4007
-7 -13 -36 5.2663 -0.1847
-7 -13 -34 -4.3537 1.9990
-7 -13 -32 -1.1724 -6.1162
-7 -13 -30 -1.3002 3.5532
-7 -13 -28 -3.5890 -1.0197
-7 -13 -26 -1.4960 2.1453
-7 -13 -24 4.0149 -1.1890
-7 -13 -22 0.5803 6.3033
-7 -13 -20 4.0055 -0.5796
-7 -13 -18 1.8076 0.4676
-7 -13 -16 -7.1056 -3.9280
-7 -13 -14 1.6611 2.7307
-7 -13 -12 6.4789 -4.9737
-7 -13 -10 -6.1354 -0.9030
-7 -13 -8 3.6645 1.8027
-7 -13 -6 5.0158 5.1676
-7 -13 -4 -1.3586 0.1685
-7 -13 -2 -4.6630 -3.0559
-7 -12 -41 0.8449 3.2727
-7 -12 -39 1.9855 -1.2407
-7 -12 -37 2.5440 -1.6544
-7 -12 -35 2.0367 2.6814
-7 -12 -33 -0.9026 3.3738
-7 -12 -31 -2.5291 1.6946
-7 -12 -29 0.9755 -1.8376
-7 -12 -27 -0.9675 -0.4861
-7 -12 -25 0.8112 1.0304
-7 -12 -23 -1.3201 -7.5403
-7 -12 -21 5.2258 -4.7188
-7 -12 -19 2.0235 -2.3091
-7 -12 -17 -1.8556 7.8305
-7 -12 -15 -2.0645 -1.5445
-7 -12 -13 1.1338 -2.7364
-7 -12 -11 -3.7701 -5.9909
-7 -12 -9 -2.1125 -0.0868
-7 -12 -7 10.7068 -7.2030
-7 -12 -5 -8.0094 -1.1048
-7 -12 -3 5.0850 6.5427
-7 -12 -1 -1.2306 1.9633
-7 -11 -44 -2.7343 4.9965
-7 -11 -42 -1.0631 1.0746
-7 -11 -40 0.0662 -4.9001
-7 -11 -38 -5.4926 -2.7790
-7 -11 -36 2.6605 -0.0354
-7 -11 -34 0.4924 1.8453
-7 -11 -32 11.9879 -9.5172
-7 -11 -30 -1.3824 0.9706
-7 -11 -28 -2.5658 2.1591
-7 -11 -26 -5.2472 3.9523
-7 -11 -24 1.6796 1.2371
-7 -11 -22 2.5885 -3.1708
-7 -11 -20 -2.6758 -3.8624
-7 -11 -18 4.5365 3.9988
-7 -11 -16 9.1254 -13.0475
-7 -11 -14 -4.3884 3.4131
-7 -11 -12 -2.1096 -4.8809
-7 -11 -10 -4.9375 -8.6254
-7 -11 -8 -3.4315 -2.5583
-7 -11 -6 1.4664 2.5200
-7 -11 -4 -1.6534 1.5813
-7 -11 -2 -10.2677 -1.0207
-7 -10 -47 1.5487 2.3891
-7 -10 -45 -1.0005 4.8501
-7 -10 -43 10.0038 6.2179
-7 -10 -41 -0.9377 -3.0268
-7 -10 -39 1.3196 0.6789
-7 -10 -37 0.6787 -6.2409
-7 -10 -35 1.0753 -1.5630
-7 -10 -33 -7.2662 0.6397
-7 -10 -31 12.9005 -3.5431
-7 -10 -29 6.7886 3.0618
-7 -10 -27 3.3318 -7.3495
-7 -10 -25 1.5435 -4.4179
-7 -10 -23 1.7680 -7.9665
-7 -10 -21 9.9630 -5.3116
-7 -10 -19 3.5381 -2.1950
-7 -10 -17 2.2088 -1.1235
-7 -10 -15 -6.9611 1.1769
-7 -10 -13 12.3645 4.8919
-7 -10 -11 7.5642 -4.8902
-7 -10 -9 -0.7063 4.1781
-7 -10 -7 1.4510 12.3184
-7 -10 -5 10.5305 6.4995
-7 -10 -3 -14.4405 -17.5843
-7 -10 -1 -11.3556 -10.5479
-7 -9 -48 -13.5416 6.7181
-7 -9 -46 -6.8905 1.7257
-7 -9 -44 -3.4715 -5.9909
-7 -9 -42 -2.0500 -5.2427
-7 -9 -40 3.1154 -2.0561
-7 -9 -38 -6.2157 0.0945
-7 -9 -36 1.2424 -10.5798
-7 -9 -34 -2.7480 5.1683
-7 -9 -32 -14.8470 -3.6193
-7 -9 -30 -7.7161 9.5294
-7 -9 -28 7.2585 2.9674
-7 -9 -26 -6.8050 -2.6403
-7 -9 -24 5.1762 22.9123
-7 -9 -22 -1.3262 -2.3925
-7 -9 -20 -9.5805 8.1139
-7 -9 -18 -3.8033 7.3530
-7 -9 -16 -4.6927 4.6572
-7 -9 -14 18.9046 -9.1031
-7 -9 -12 -0.8749 -5.3338
-7 -9 -10 -7.2702 -8.7702
-7 -9 -8 11.0897 22.7076
-7 -9 -6 -10.2327 4.7542
-7 -9 -4 -2.4788 20.7838
-7 -9 -2 17.3411 -25.1478
-7 -8 -51 -4.5093 1.8983
-7 -8 -49 -10.4650 6.2601
-7 -8 -47 9.7265 -2.8605
-7 -8 -45 4.0683 0.8169
-7 -8 -43 0.1714 -0.6808
-7 -8 -41 1.1332 1.7349
-7 -8 -39 11.2475 7.4307
-7 -8 -37 1.0790 5.8086
-7 -8 -35 4.2324 -7.4105
-7 -8 -33 -8.1148 0.1265
-7 -8 -31 6.3479 -6.0686
-7 -8 -29 -1.7497 3.6199
-7 -8 -27 -6.2922 -0.7934
-7 -8 -25 11.5755 -5.1612
-7 -8 -23 3.5005 -0.2839
-7 -8 -21 10.7484 -5.9281
-7 -8 -19 -15.9118 -4.8350
-7 -8 -17 5.8064 10.6772
-7 -8 -15 -11.5899 5.1708
-7 -8 -13 -7.8366 -10.5599
-7 -8 -11 7.5035 1.0169
-7 -8 -9 14.0771 5.1612
-7 -8 -7 -15.6395 18.0738
-7 -8 -5 -3.6972 10.1552
-7 -8 -3 8.0030 5.6126
-7 -8 -1 -18.0926 1.3791
-7 -7 -52 0.7827 -7.7774
-7 -7 -50 2.8666 5.5387
-7 -7 -48 -0.4585 -4.0119
-7 -7 -46 0.0178 0.8969
-7 -7 -44 2.4257 2.2290
-7 -7 -42 10.6157 -4.6557
-7 -7 -40 -6.1153 2.6440
-7 -7 -38 -7.8056 -11.1856
-7 -7 -36 -1.9428 9.3739
-7 -7 -34 -4.1786 14.3786
-7 -7 -32 7.5380 0.7566
-7 -7 -30 -17.4826 -25.2065
-7 -7 -28 -12.2284 7.4756
-7 -7 -26 66.7283 18.7103
-7 -7 -24 -2.1136 -14.3676
-7 -7 -22 11.2423 -11.5713
-7 -7 -20 15.9149 -16.4060
-7 -7 -18 -24.3640 -0.4162
-7 -7 -16 22.1881 14.9731
-7 -7 -14 8.8666 5.2348
-7 -7 -12 42.9086 -9.7217
-7 -7 -10 -4.6498 10.5006
-7 -7 -8 -7.1650 -16.0403
-7 -7 -6 13.8694 14.3024
-7 -7 -4 -42.8052 -55.4671
-7 -7 -2 -9.2436 -34.1691
-7 -6 -53 2.2531 -5.2455
-7 -6 -51 -1.2630 -7.4153
-7 -6 -49 -2.0477 0.7329
-7 -6 -47 0.2787 3.6723
-7 -6 -45 2.8613 2.6139
-7 -6 -43 1.4393 13.8340
-7 -6 -41 4.8101 -8.7703
-7 -6 -39 -6.0957 6.2337
-7 -6 -37 -4.3124 5.3326
-7 -6 -35 -8.5249 20.7585
-7 -6 -33 5.8841 1.5691
-7 -6 -31 8.2700 2.1271
-7 -6 -29 -5.7835 -4.4828
-7 -6 -27 -15.0119 4.9837
-7 -6 -25 -12.4157 31.7308
-7 -6 -23 8.4455 11.4587
-7 -6 -21 -29.7966 4.4519
-7 -6 -19 -1.2607 1.4864
-7 -6 -17 -19.9364 -3.6690
-7 -6 -15 -5.4570 17.2934
-7 -6 -13 4.7296 25.2678
-7 -6 -11 -28.6788 27.2653
-7 -6 -9 -1.7095 -37.8096
-7 -6 -7 24.7255 22.9507
-7 -6 -5 0.7064 -17.6106
-7 -6 -3 5.4362 8.1970
-7 -6 -1 5.3185 3.5496
-7 -5 -54 5.0549 -2.4893
-7 -5 -52 12.0559 7.9484
-7 -5 -50 -7.4618 -3.0148
-7 -5 -48 8.9506 -11.5399
-7 -5 -46 -4.2750 3.0632
-7 -5 -44 20.8626 6.3609
-7 -5 -42 -0.5735 1.1020
-7 -5 -40 -1.0843 -2.7133
-7 -5 -38 -19.2500 -4.2730
-7 -5 -36 6.9610 -7.6429
-7 -5 -34 0.1941 12.5372
-7 -5 -32 37.1700 -10.4012
-7 -5 -30 -3.3919 12.3220
-7 -5 -28 4.7029 -17.4578
-7 -5 -26 -6.3478 5.0647
-7 -5 -24 14.8780 1.2992
-7 -5 -22 16.5028 3.5406
-7 -5 -20 -25.9903 -15.0459
-7 -5 -18 5.6252 16.4364
-7 -5 -16 -1.4093 -10.6629
-7 -5 -14 -1.9239 -28.1294
-7 -5 -12 20.7840 -26.7230
-7 -5 -10 12.4159 9.1374
-7 -5 -8 8.8214 -6.3973
-7 -5 -6 14.9890 29.2522
-7 -5 -4 -30.1644 -4.3144
-7 -5 -2 -2.1875 5.5417
-7 -4 -55 0.4068 -2.6877
-7 -4 -53 -4.1916 0.5133
-7 -4 -51 -0.9291 0.2176
-7 -4 -49 -1.7018 1.2368
-7 -4 -47 -13.3835 4.6363
-7 -4 -45 -9.7629 -0.7212
-7 -4 -43 11.7907 -2.2013
-7 -4 -41 -7.4366 1.6727
-7 -4 -39 1.0532 -1.7870
-7 -4 -37 0.1699 9.6873
-7 -4 -35 11.4260 -4.6602
-7 -4 -33 9.8206 1.0227
-7 -4 -31 16.7882 7.1567
-7 -4 -29 -8.8780 9.1491
-7 -4 -27 7.3308 -23.2931
-7 -4 -25 -8.7830 -4.2156
-7 -4 -23 -8.6657 8.7690
-7 -4 -21 21.7223 7.9407
-7 -4 -19 11.2857 7.8128
-7 -4 -17 -7.7518 -0.4712
-7 -4 -15 -4.6117 38.9094
-7 -4 -13 11.9794 38.6047
-7 -4 -11 10.6570 -21.9978
-7 -4 -9 -10.1143 -39.2867
-7 -4 -7 -38.6548 -7.1748
-7 -4 -5 42.9001 7.5526
-7 -4 -3 12.9987 7.4299
-7 -4 -1 -4.5766 18.5295
-7 -3 -56 0.3929 2.0035
-7 -3 -54 3.6597 -3.5648
-7 -3 -52 1.7386 2.2043
-7 -3 -50 0.9163 -1.8930
-7 -3 -48 0.2169 6.2203
-7 -3 -46 -12.1602 -1.2784
-7 -3 -44 0.7215 2.1593
-7 -3 -42 1.3631 4.9505
-7 -3 -40 17.9298 -15.1873
-7 -3 -38 -8.0082 0.0244
-7 -3 -36 0.8069 5.3024
-7 -3 -34 1.8832 -7.5517
-7 -3 -32 -6.1425 10.4122
-7 -3 -30 1.0059 14.1584
-7 -3 -28 1.6629 41.9447
-7 -3 -26 3.6907 -13.9041
-7 -3 -24 12.3622 -3.9671
-7 -3 -22 -6.0586 -12.7619
-7 -3 -20 11.0473 -3.1812
-7 -3 -18 -2.0142 29.7059
-7 -3 -16 -25.5931 21.3020
-7 -3 -14 28.8828 -23.9395
-7 -3 -12 -22.4864 -58.5192
-7 -3 -10 -24.3094 -4.7515
-7 -3 -8 -38.6371 49.7531
-7 -3 -6 -20.6453 29.5144
-7 -3 -4 -28.1986 25.2821
-7 -3 -2 -12.3891 -18.9246
-7 -2 -57 0.0281 0.4312
-7 -2 -55 0.4460 1.7240
-7 -2 -53 1.3708 3.1248
-7 -2 -51 -6.8614 4.7321
-7 -2 -49 0.9739 3.1686
-7 -2 -47 -7.6328 6.5082
-7 -2 -45 1.5646 -12.3679
-7 -2 -43 -2.3704 -0.0111
-7 -2 -41 -4.9509 1.1278
-7 -2 -39 -12.8272 -3.9809
-7 -2 -37 -5.3801 -2.9836
-7 -2 -35 -2.4384 7.1848
-7 -2 -33 15.8846 -4.1105
-7 -2 -31 -1.1653 -3.9778
-7 -2 -29 4.1341 13.9646
-7 -2 -27 -1.1371 16.2910
-7 -2 -25 -13.4386 -2.7892
-7 -2 -23 5.7167 -7.1754
-7 -2 -21 0.0380 0.7255
-7 -2 -19 25.6302 31.6534
-7 -2 -17 17.9105 -10.9279
-7 -2 -15 16.7342 28.0867
-7 -2 -13 49.9588 -8.3615
-7 -2 -11 -5.6569 10.8843
-7 -2 -9 19.4767 49.4959
-7 -2 -7 14.7698 11.8163
-7 -2 -5 15.8951 9.6354
-7 -2 -3 7.8647 10.9811
-7 -2 -1 3.3505 -20.8474
-7 -1 -56 -3.9340 6.6051
-7 -1 -54 -3.0812 1.7017
-7 -1 -52 5.0519 -3.0391
-7 -1 -50 0.2528 -11.0824
-7 -1 -48 -0.6939 -1.1157
-7 -1 -46 -2.9974 -0.2871
-7 -1 -44 1.5633 1.9839
-7 -1 -42 -6.7815 -0.1377
-7 -1 -40 -6.1039 -3.8907
-7 -1 -38 9.6377 5.9823
-7 -1 -36 1.4274 -2.2594
-7 -1 -34 2.6156 -1.5285
-7 -1 -32 -3.2714 -0.8736
-7 -1 -30 -3.9937 -21.4651
-7 -1 -28 -8.9036 15.9257
-7 -1 -26 2.2645 2.3599
-7 -1 -24 -10.1167 1.0300
-7 -1 -22 3.0309 5.9061
-7 -1 -20 -4.0765 -16.2009
-7 -1 -18 18.3913 5.4877
-7 -1 -16 40.2280 -9.1872
-7 -1 -14 18.3441 13.2135
-7 -1 -12 30.6607 -25.4954
-7 -1 -10 -48.5510 10.3978
-7 -1 -8 13.2117 14.3358
-7 -1 -6 3.0680 10.8819
-7 -1 -4 8.1101 -27.9611
-7 -1 -2 -26.3825 -1.7106
-6 -18 -4 1.9301 2.2230
-6 -18 -2 -1.7734 3.0906
-6 -17 -19 1.2424 1.5959
-6 -17 -17 0.9409 1.9029
-6 -17 -15 2.0642 -1.7117
-6 -17 -13 0.2211 -1.0802
-6 -17 -11 -5.4625 0.8544
-6 -17 -9 -2.0278 2.8354
-6 -17 -7 -2.2776 0.1745
-6 -17 -5 2.4477 0.7670
-6 -17 -3 -2.4856 -2.1303
-6 -17 -1 1.5654 -0.9639
-6 -16 -26 2.7983 -1.9039
-6 -16 -24 -1.5074 1.5110
-6 -16 -22 -0.0510 -1.9233
-6 -16 -20 -1.6882 -0.1187
-6 -16 -18 -0.4598 -0.5006
-6 -16 -16 -5.0487 -2.1044
-6 -16 -14 -2.9198 -0.9550
-6 -16 -12 -5.0774 1.2876
-6 -16 -10 0.5832 2.6333
-6 -16 -8 0.0308 3.3257
-6 -16 -6 0.9596 2.1176
-6 -16 -4 -5.9086 1.6184
-6 -16 -2 -1.1087 -1.0515
-6 -15 -31 -0.5778 -2.2777
-6 -15 -29 1.7993 -5.2496
-6 -15 -27 -1.4210 -0.0955
-6 -15 -25 -3.2075 1.9467
-6 -15 -23 -1.4562 -1.9581
-6 -15 -21 -4.5867 -1.9640
-6 -15 -19 -1.4659 -0.4048
-6 -15 -17 0.4744 -3.7760
-6 -15 -15 3.4826 1.1964
-6 -15 -13 0.2669 -2.2013
-6 -15 -11 -4.1080 3.7950
-6 -15 -9 2.2118 0.6775
-6 -15 -7 0.8051 -1.6183
-6 -15 -5 0.5823 -0.7346
-6 -15 -3 -1.1723 1.6973
-6 -15 -1 -3.2945 0.0222
-6 -14 -36 -2.0140 -0.8364
-6 -14 -34 -4.3034 2.1539
-6 -14 -32 -1.2192 2.1233
-6 -14 -30 3.0189 -0.2584
-6 -14 -28 -4.3694 0.3647
-6 -14 -26 4.2470 -3.1002
-6 -14 -24 3.9368 -0.3534
-6 -14 -22 2.9408 -0.7430
-6 -14 -20 5.5979 -5.9350
-6 -14 -18 1.8209 -0.1934
-6 -14 -16 -3.8285 2.8689
-6 -14 -14 -2.3413 5.2657
-6 -14 -12 -4.1204 1.8684
-6 -14 -10 1.4505 2.5494
-6 -14 -8 3.6345 4.1288
-6 -14 -6 1.6119 -1.0267
-6 -14 -4 -0.3005 7.7282
-6 -14 -2 -0.8478 -0.6199
-6 -13 -39 -0.4156 1.9712
-6 -13 -37 -3.8824 1.2848
-6 -13 -35 2.7761 1.0492
-6 -13 -33 -0.3111 -0.3977
-6 -13 -31 3.3774 -2.2113
-6 -13 -29 -1.0862 -2.1073
-6 -13 -27 0.6210 -0.1410
-6 -13 -25 -4.9665 -3.9522
-6 -13 -23 -1.0722 3.8938
-6 -13 -21 0.6202 -3.2519
-6 -13 -19 -4.8412 -2.5929
-6 -13 -17 -0.8346 2.7726
-6 -13 -15 3.9689 -2.5385
-6 -13 -13 -2.0111 0.9466
-6 -13 -11 2.7604 7.8373
-6 -13 -9 2.1928 -2.6418
-6 -13 -7 -3.7532 -8.3807
-6 -13 -5 0.9780 1.1373
-6 -13 -3 1.4031 -3.9828
-6 -13 -1 4.1918 -2.6823
-6 -12 -42 0.9905 3.9965
-6 -12 -40 -6.9227 -4.6054
-6 -12 -38 5.9602 1.3261
-6 -12 -36 -2.1991 -2.6042
-6 -12 -34 1.2304 5.4468
-6 -12 -32 2.6345 -3.9155
-6 -12 -30 2.3728 2.2215
-6 -12 -28 0.7692 0.1158
-6 -12 -26 4.8384 -3.4267
-6 -12 -24 3.9493 1.8789
-6 -12 -22 -5.0245 -0.4714
-6 -12 -20 6.7461 1.3003
-6 -12 -18 2.8105 2.2769
-6 -12 -16 1.0995 -4.0095
-6 -12 -14 3.4085 6.4629
-6 -12 -12 -4.4994 2.8134
-6 -12 -10 1.5995 -1.2189
-6 -12 -8 -5.6418 -4.0009
-6 -12 -6 -2.8208 -7.4300
-6 -12 -4 -4.7139 5.6008
-6 -12 -2 2.3498 -2.2750
-6 -11 -45 5.7502 -0.3171
-6 -11 -43 -0.4368 1.5489
-6 -11 -41 4.5240 -5.2972
-6 -11 -39 -1.2371 3.1882
-6 -11 -37 2.1404 -3.9774
-6 -11 -35 -2.3151 -3.9033
-6 -11 -33 2.0605 3.1776
-6 -11 -31 -0.3005 -1.7162
-6 -11 -29 -0.9994 1.6387
-6 -11 -27 4.3109 3.3710
-6 -11 -25 -1.0713 1.1807
-6 -11 -23 4.4016 3.7275
-6 -11 -21 -3.7365 -3.1084
-6 -11 -19 0.4393 -1.6206
-6 -11 -17 1.2035 5.8523
-6 -11 -15 1.2615 3.6500
-6 -11 -13 -4.5435 12.2067
-6 -11 -11 -7.7881 -1.4775
-6 -11 -9 -3.5328 0.3617
-6 -11 -7 11.7189 -17.2033
-6 -11 -5 -4.2122 1.8205
-6 -11 -3 8.7328 9.0202
-6 -11 -1 6.0401 0.9972
-6 -10 -48 -9.8158 11.0221
-6 -10 -46 -5.9257 -0.5399
-6 -10 -44 -10.7805 0.6886
-6 -10 -42 3.2747 2.1037
-6 -10 -40 -1.8607 2.4672
-6 -10 -38 -2.8434 2.2312
-6 -10 -36 -3.6968 -9.8292
-6 -10 -34 -1.8344 -4.8056
-6 -10 -32 -2.3589 -1.9232
-6 -10 -30 3.2845 -7.2436
-6 -10 -28 5.1102 -12.1944
-6 -10 -26 2.0878 -21.9271
-6 -10 -24 1.4839 1.3643
-6 -10 -22 6.3641 -17.2131
-6 -10 -20 8.3893 -5.6010
-6 -10 -18 17.1490 5.7617
-6 -10 -16 -6.2332 3.0407
-6 -10 -14 6.4339 10.3283
-6 -10 -12 6.7027 -21.3347
-6 -10 -10 2.1358 8.0825
-6 -10 -8 -0.8477 7.0099
-6 -10 -6 -4.9738 9.5706
-6 -10 -4 -26.8368 33.3759
-6 -10 -2 -11.0865 5.1427
-6 -9 -49 3.9742 -2.5711
-6 -9 -47 -1.2189 -2.7331
-6 -9 -45 0.1766 1.8385
-6 -9 -43 -2.4319 -10.6158
-6 -9 -41 10.7562 -3.1360
-6 -9 -39 -0.4740 6.8341
-6 -9 -37 4.5203 1.1140
-6 -9 -35 1.7348 14.4920
-6 -9 -33 2.2813 -12.8904
-6 -9 -31 6.3499 0.0396
-6 -9 -29 -10.3375 -12.1040
-6 -9 -27 1.9590 8.7117
-6 -9 -25 10.7168 15.5101
-6 -9 -23 0.4885 0.3457
-6 -9 -21 -4.9408 -1.6992
-6 -9 -19 2.6728 8.8339
-6 -9 -17 3.1756 -2.4077
-6 -9 -15 18.8169 -21.0177
-6 -9 -13 3.6266 23.1034
-6 -9 -11 20.1166 -12.3867
-6 -9 -9 -7.9357 16.3747
-6 -9 -7 17.5902 -19.2606
-6 -9 -5 3.3597 -5.0531
-6 -9 -3 -8.0977 -6.7839
-6 -9 -1 13.0710 5.4777
-6 -8 -52 -10.8870 -3.1875
-6 -8 -50 4.4180 11.8488
-6 -8 -48 3.6423 -9.6633
-6 -8 -46 0.4680 1.8476
-6 -8 -44 6.5178 9.9459
-6 -8 -42 -7.5234 12.6642
-6 -8 -40 5.9124 -1.4298
-6 -8 -38 10.5901 2.1907
-6 -8 -36 -5.6584 -18.9362
-6 -8 -34 11.5954 -9.0347
-6 -8 -32 -17.9832 2.7598
-6 -8 -30 1.6758 -3.5337
-6 -8 -28 6.9208 3.2516
-6 -8 -26 19.7769 -6.7080
-6 -8 -24 4.1854 12.6697
-6 -8 -22 -1.8597 13.0724
-6 -8 -20 -6.3644 6.8525
-6 -8 -18 -11.4691 -3.0756
-6 -8 -16 -22.9057 9.7062
-6 -8 -14 2.2242 -12.0957
-6 -8 -12 15.6587 2.7979
-6 -8 -10 6.6034 -10.6184
-6 -8 -8 -4.7393 12.7893
-6 -8 -6 -5.7474 5.9655
-6 -8 -4 -6.5576 23.3740
-6 -8 -2 38.8676 21.0694
-6 -7 -53 -1.1015 5.2863
-6 -7 -51 -2.8413 -1.9940
-6 -7 -49 -0.6241 -0.4720
-6 -7 -47 -2.3610 -2.7994
-6 -7 -45 -2.9667 -1.1768
-6 -7 -43 5.7834 6.1338
-6 -7 -41 -6.2819 10.9433
-6 -7 -39 3.1093 5.4896
-6 -7 -37 14.1286 1.8868
-6 -7 -35 1.7364 -17.1248
-6 -7 -33 -7.6377 2.0321
-6 -7 -31 -6.3610 -4.8983
-6 -7 -29 4.6514 -1.6261
-6 -7 -27 13.4802 -5.1128
-6 -7 -25 18.8412 -8.1507
-6 -7 -23 -17.8649 -7.6922
-6 -7 -21 28.3085 -6.9883
-6 -7 -19 -2.8863 -3.8491
-6 -7 -17 13.6831 -0.9817
-6 -7 -15 -7.6805 -32.6852
-6 -7 -13 8.0149 -29.4042
-6 -7 -11 26.1243 -21.6076
-6 -7 -9 34.2930 9.6585
-6 -7 -7 -35.7643 -15.7293
-6 -7 -5 6.7069 11.1486
-6 -7 -3 0.8707 -8.9718
-6 -7 -1 -8.3129 -8.7397
-6 -6 -54 -5.8916 3.4800
-6 -6 -52 -8.7801 -3.0156
-6 -6 -50 -2.5818 10.3415
-6 -6 -48 2.4567 18.9317
-6 -6 -46 1.2149 -7.6313
-6 -6 -44 -9.7601 -11.7674
-6 -6 -42 -3.0346 15.4408
-6 -6 -40 7.4051 1.1091
-6 -6 -38 -2.0184 -28.2873
-6 -6 -36 -4.5600 -13.1214
-6 -6 -34 11.5587 -10.9797
-6 -6 -32 36.7895 6.1155
-6 -6 -30 5.2612 -4.0402
-6 -6 -28 -6.2634 6.3066
-6 -6 -26 25.3622 -11.3591
-6 -6 -24 -26.4475 7.5772
-6 -6 -22 -23.8673 -34.2292
-6 -6 -20 -38.0665 3.0913
-6 -6 -18 -17.4195 31.1477
-6 -6 -16 51.2456 23.4404
-6 -6 -14 59.4518 11.5721
-6 -6 -12 43.9397 9.3552
-6 -6 -10 24.2388 9.9421
-6 -6 -8 9.4072 -75.3356
-6 -6 -6 5.5029 -40.9503
-6 -6 -4 -16.1144 6.5459
-6 -6 -2 36.0688 -45.8386
-6 -5 -55 -0.4962 1.3134
-6 -5 -53 -5.3211 2.1045
-6 -5 -51 0.1355 4.3092
-6 -5 -49 -3.4556 2.2862
-6 -5 -47 -1.6014 -2.8172
-6 -5 -45 5.2492 5.6530
-6 -5 -43 -7.1260 8.0288
-6 -5 -41 -0.5304 6.9764
-6 -5 -39 -0.6095 -6.3648
-6 -5 -37 7.8958 7.6641
-6 -5 -35 -1.8594 -4.3736
-6 -5 -33 17.1184 8.7800
-6 -5 -31 -0.3919 -9.6537
-6 -5 -29 9.8768 17.4013
-6 -5 -27 -22.5059 -16.9518
-6 -5 -25 48.6692 -6.9023
-6 -5 -23 9.4227 27.5103
-6 -5 -21 -30.4302 3.6327
-6 -5 -19 12.3532 8.4110
-6 -5 -17 -35.2528 14.2757
-6 -5 -15 0.0058 0.2403
-6 -5 -13 -28.8929 10.5814
-6 -5 -11 -15.0493 -13.7898
-6 -5 -9 -36.5255 51.6842
-6 -5 -7 -20.7073 -8.0980
-6 -5 -5 -2.4387 35.6327
-6 -5 -3 -10.4961 2.2795
-6 -5 -1 31.8885 6.7678
-6 -4 -56 -1.9004 -2.8038
-6 -4 -54 4.5914 -2.7371
-6 -4 -52 -5.8543 -2.0733
-6 -4 -50 6.3969 10.2365
-6 -4 -48 -4.1535 -8.0460
-6 -4 -46 -2.3670 2.8815
-6 -4 -44 2.8469 -3.6883
-6 -4 -42 3.8912 -10.7372
-6 -4 -40 0.3924 -0.7767
-6 -4 -38 -3.5084 -4.0268
-6 -4 -36 6.7498 -26.5664
-6 -4 -34 1.5067 -12.0095
-6 -4 -32 7.0504 4.2946
-6 -4 -30 12.8113 -16.9086
-6 -4 -28 -12.6465 10.2949
-6 -4 -26 -0.3632 19.6631
-6 -4 -24 -16.6006 0.8279
-6 -4 -22 3.1058 -16.5712
-6 -4 -20 -14.2870 1.5611
-6 -4 -18 -12.5937 5.6654
-6 -4 -16 50.3037 22.7934
-6 -4 -14 46.8126 20.5358
-6 -4 -12 16.1657 -14.6821
-6 -4 -10 7.0721 1.4155
-6 -4 -8 -27.7611 -14.8404
-6 -4 -6 0.5092 -48.5190
-6 -4 -4 -96.4276 56.5460
-6 -4 -2 -40.4854 32.0138
-6 -3 -57 2.2973 5.6614
-6 -3 -55 -5.0537 -1.2940
-6 -3 -53 3.0990 2.3848
-6 -3 -51 2.1941 5.5663
-6 -3 -49 1.5926 -4.2272
-6 -3 -47 4.6089 -7.2194
-6 -3 -45 -6.9805 -12.1392
-6 -3 -43 -6.0311 3.9651
-6 -3 -41 5.7568 -1.0850
-6 -3 -39 -7.1208 -0.3585
-6 -3 -37 -4.1985 -13.3512
-6 -3 -35 5.1269 17.9944
-6 -3 -33 -1.6896 -19.9460
-6 -3 -31 4.9028 -3.3748
-6 -3 -29 -14.5044 2.1263
-6 -3 -27 -14.4300 23.2097
-6 -3 -25 9.8326 29.7006
-6 -3 -23 -7.4509 7.1063
-6 -3 -21 19.8647 -6.1855
-6 -3 -19 -49.2759 -2.9469
-6 -3 -17 -35.2918 2.5535
-6 -3 -15 14.2679 4.1705
-6 -3 -13 11.7165 80.2053
-6 -3 -11 -0.5514 -6.6598
-6 -3 -9 14.2487 15.5025
-6 -3 -7 -1.5323 17.2826
-6 -3 -5 -11.6773 26.7065
-6 -3 -3 6.0868 4.1178
-6 -3 -1 -23.4364 -12.5619
-6 -2 -58 -0.0084 -1.3220
-6 -2 -56 0.6028 -1.5827
-6 -2 -54 -2.6591 1.3235
-6 -2 -52 9.2051 3.2486
-6 -2 -50 0.3665 3.4137
-6 -2 -48 -7.2911 3.4964
-6 -2 -46 7.9248 2.8719
-6 -2 -44 4.2596 -1.5125
-6 -2 -42 7.4034 2.4867
-6 -2 -40 1.1507 -4.5706
-6 -2 -38 3.7303 -2.0231
-6 -2 -36 -11.3883 -0.8639
-6 -2 -34 -1.6475 -9.9044
-6 -2 -32 9.1036 -0.8336
-6 -2 -30 -24.9259 -5.9400
-6 -2 -28 4.0709 -5.7595
-6 -2 -26 -15.8111 -1.8154
-6 -2 -24 -12.6447 -10.2077
-6 -2 -22 9.4809 -11.4348
-6 -2 -20 -8.5672 2.5168
-6 -2 -18 -1.3545 -33.4392
-6 -2 -16 19.2155 31.0556
-6 -2 -14 -8.8426 15.1119
-6 -2 -12 19.0547 -21.3471
-6 -2 -10 -17.5279 -32.4836
-6 -2 -8 67.4878 31.1760
-6 -2 -6 -1.6399 2.3729
-6 -2 -4 -26.0399 72.1767
-6 -2 -2 -48.4162 -23.5470
-6 -1 -57 0.7382 3.9779
-6 -1 -55 2.1099 0.1541
-6 -1 -53 3.2679 0.3432
-6 -1 -51 -0.5095 5.8936
-6 -1 -49 -1.6706 4.3050
-6 -1 -47 0.2593 8.6832
-6 -1 -45 0.0097 -1.8323
-6 -1 -43 7.3688 -2.2725
-6 -1 -41 4.8339 -8.1837
-6 -1 -39 -11.2484 4.2455
-6 -1 -37 5.4737 9.4325
-6 -1 -35 3.9390 -5.9660
-6 -1 -33 7.4114 7.2436
-6 -1 -31 -0.9871 -15.8703
-6 -1 -29 7.0037 5.5668
-6 -1 -27 18.8185 -16.2573
-6 -1 -25 27.8733 31.9391
-6 -1 -23 -12.1099 -25.8637
-6 -1 -21 57.9193 -8.6374
-6 -1 -19 -17.6074 -5.3748
-6 -1 -17 -18.0223 4.8389
-6 -1 -15 25.3483 -0.8664
-6 -1 -13 -37.2798 -1.5583
-6 -1 -11 5.7812 54.5271
-6 -1 -9 8.3187 74.3618
-6 -1 -7 77.8222 1.3197
-6 -1 -5 40.3748 -6.7940
-6 -1 -3 -5.5779 -13.7207
-6 -1 -1 -35.5524 15.9339
-5 -18 -11 -0.1657 1.3079
-5 -18 -9 -0.1359 0.1661
-5 -18 -7 -3.6092 2.8128
-5 -18 -5 2.9789 2.1587
-5 -18 -3 1.8343 -3.6162
-5 -18 -1 -0.8442 -1.6416
-5 -17 -22 -3.6578 -0.3965
-5 -17 -20 0.9512 -1.4162
-5 -17 -18 -0.6015 -2.9862
-5 -17 -16 -1.6575 -0.1890
-5 -17 -14 1.1076 0.2818
-5 -17 -12 -2.7011 -4.4849
-5 -17 -10 0.4700 4.3232
-5 -17 -8 -1.3946 0.7592
-5 -17 -6 -0.4715 5.9121
-5 -17 -4 -2.4344 -4.7543
-5 -17 -2 1.1187 -0.4055
-5 -16 -29 -2.0692 -3.1137
-5 -16 -27 2.0945 -1.2574
-5 -16 -25 1.0227 5.0921
-5 -16 -23 1.7426 0.9133
-5 -16 -21 -0.4370 1.8144
-5 -16 -19 0.5586 -4.6106
-5 -16 -17 1.2073 -0.6518
-5 -16 -15 1.1277 1.5352
-5 -16 -13 -2.2973 -1.0031
-5 -16 -11 -1.8317 -5.4609
-5 -16 -9 -1.4278 -0.5406
-5 -16 -7 4.7061 2.7648
-5 -16 -5 -1.4363 0.4639
-5 -16 -3 0.7503 -0.0856
-5 -16 -1 0.8978 0.0307
-5 -15 -34 3.0511 -2.8995
-5 -15 -32 0.0556 -0.4188
-5 -15 -30 1.2353 -3.4017
-5 -15 -28 -2.0223 1.6470
-5 -15 -26 4.3327 -1.8535
-5 -15 -24 -4.1260 3.2982
-5 -15 -22 -3.7699 2.5943
-5 -15 -20 1.2794 -4.2552
-5 -15 -18 -11.3035 -4.1155
-5 -15 -16 -0.2928 -9.3470
-5 -15 -14 4.5594 1.7296
-5 -15 -12 1.4538 0.9658
-5 -15 -10 -0.7713 -1.6338
-5 -15 -8 0.3175 -0.7687
-5 -15 -6 -0.2616 0.1167
-5 -15 -4 0.3631 -3.9499
-5 -15 -2 -3.8891 -1.4792
-5 -14 -37 -1.3487 -1.1946
-5 -14 -35 1.1736 -0.7022
-5 -14 -33 2.9958 0.7173
-5 -14 -31 1.1039 -0.9067
-5 -14 -29 -4.5213 0.2533
-5 -14 -27 -0.9767 -1.0697
-5 -14 -25 2.4054 -0.4733
-5 -14 -23 3.2271 -5.8272
-5 -14 -21 -1.4364 -4.8422
-5 -14 -19 4.5826 2.0296
-5 -14 -17 7.5464 2.0144
-5 -14 -15 1.4225 6.9688
-5 -14 -13 2.5074 4.3881
-5 -14 -11 -0.0830 1.7037
-5 -14 -9 -1.1297 2.7701
-5 -14 -7 -1.3529 -0.6363
-5 -14 -5 -1.5448 -1.7867
-5 -14 -3 2.9623 1.8813
-5 -14 -1 -1.0459 5.6427
-5 -13 -42 2.9775 -3.2164
-5 -13 -40 -1.5630 -5.7663
-5 -13 -38 -3.2803 -2.7674
-5 -13 -36 -0.2773 1.8129
-5 -13 -34 -0.3902 1.9416
-5 -13 -32 -0.2092 -8.0291
-5 -13 -30 -1.4704 -0.3926
-5 -13 -28 -1.6006 -3.8487
-5 -13 -26 -2.3417 0.4602
-5 -13 -24 -2.4800 -1.8301
-5 -13 -22 -3.5121 13.9377
-5 -13 -20 0.4930 5.2344
-5 -13 -18 4.8956 8.3983
-5 -13 -16 1.5729 -1.3504
-5 -13 -14 -2.3124 1.7530
-5 -13 -12 1.4949 1.1529
-5 -13 -10 0.1573 0.0761
-5 -13 -8 3.1383 -0.4691
-5 -13 -6 2.5866 -6.1018
-5 -13 -4 3.3014 -4.3385
-5 -13 -2 8.2237 -4.7393
-5 -12 -45 1.3263 -3.3745
-5 -12 -43 -4.3158 0.1604
-5 -12 -41 -3.9533 8.5267
-5 -12 -39 1.8436 -2.2067
-5 -12 -37 -0.9920 2.4989
-5 -12 -35 3.2685 1.8385
-5 -12 -33 -1.4307 -3.4260
-5 -12 -31 -1.7044 -0.5944
-5 -12 -29 -3.8425 -6.4145
-5 -12 -27 -7.6174 3.6420
-5 -12 -25 10.6673 -4.3146
-5 -12 -23 0.6914 3.1667
-5 -12 -21 6.8249 -14.2020
-5 -12 -19 -0.0385 0.7857
-5 -12 -17 0.6082 8.1146
-5 -12 -15 -4.8111 2.0140
-5 -12 -13 -2.4538 -0.9485
-5 -12 -11 -5.0513 11.2168
-5 -12 -9 3.4948 -13.1479
-5 -12 -7 -13.7155 -1.6698
-5 -12 -5 0.8917 10.7424
-5 -12 -3 -0.4297 0.8793
-5 -12 -1 -0.8794 -3.1298
-5 -11 -46 -0.7947 5.0354
-5 -11 -44 -6.9071 -2.4488
-5 -11 -42 7.6984 -0.6994
-5 -11 -40 -8.4070 2.6286
-5 -11 -38 5.6771 2.1457
-5 -11 -36 -0.9720 -6.2239
-5 -11 -34 0.0004 2.4595
-5 -11 -32 3.6201 -1.8838
-5 -11 -30 -0.2622 4.5524
-5 -11 -28 5.1643 -8.7183
-5 -11 -26 10.3571 -7.4735
-5 -11 -24 -8.0008 0.6820
-5 -11 -22 -7.8679 1.9654
-5 -11 -20 0.8906 11.3402
-5 -11 -18 9.7300 -1.5604
-5 -11 -16 -3.5464 -2.0515
-5 -11 -14 10.8350 6.9468
-5 -11 -12 -9.1715 5.3561
-5 -11 -10 -3.1933 -1.7669
-5 -11 -8 6.1055 -7.5098
-5 -11 -6 0.8362 0.2226
-5 -11 -4 7.6505 4.7817
-5 -11 -2 7.9864 -4.1109
-5 -10 -49 5.6361 -2.4040
-5 -10 -47 1.9414 1.5227
-5 -10 -45 8.3223 0.6108
-5 -10 -43 -3.6796 -0.2814
-5 -10 -41 -9.6595 -1.3080
-5 -10 -39 8.1391 7.2197
-5 -10 -37 -3.3686 -1.8357
-5 -10 -35 2.3193 -10.3554
-5 -10 -33 3.7300 2.6534
-5 -10 -31 7.2058 -3.4295
-5 -10 -29 -6.8018 -0.7373
-5 -10 -27 9.8706 -15.2028
-5 -10 -25 -1.1753 -12.4446
-5 -10 -23 2.9075 3.7823
-5 -10 -21 -0.1934 -10.0237
-5 -10 -19 -4.8238 1.9359
-5 -10 -17 -1.4896 -6.8898
-5 -10 -15 -4.3281 3.7203
-5 -10 -13 3.7689 12.4565
-5 -10 -11 5.7742 8.9939
-5 -10 -9 -4.3202 17.1361
-5 -10 -7 -3.7634 0.3217
-5 -10 -5 -0.2204 2.2849
-5 -10 -3 1.9452 -0.7304
-5 -10 -1 -11.2822 -7.4217
-5 -9 -50 -1.9418 -0.3439
-5 -9 -48 -7.4163 12.8267
-5 -9 -46 -4.7621 -0.4676
-5 -9 -44 1.3954 5.9252
-5 -9 -42 -2.0680 2.0490
-5 -9 -40 -10.4433 10.3641
-5 -9 -38 -12.1336 0.6039
-5 -9 -36 0.7690 10.6258
-5 -9 -34 7.2257 -6.4750
-5 -9 -32 -1.8872 6.6385
-5 -9 -30 -9.1753 -14.5451
-5 -9 -28 21.4737 -21.8185
-5 -9 -26 -5.5291 6.0108
-5 -9 -24 1.8416 -0.2005
-5 -9 -22 -13.0945 -21.3856
-5 -9 -20 12.7805 1.5962
-5 -9 -18 8.8712 9.5562
-5 -9 -16 -16.3944 -5.1268
-5 -9 -14 16.5685 -20.7218
-5 -9 -12 10.5874 -10.1951
-5 -9 -10 -20.5666 -7.7152
-5 -9 -8 30.7630 4.9664
-5 -9 -6 14.8964 6.4106
-5 -9 -4 25.6543 -12.8604
-5 -9 -2 -3.6823 12.9891
-5 -8 -53 -12.1678 10.8875
-5 -8 -51 2.1685 4.6179
-5 -8 -49 3.2796 2.5363
-5 -8 -47 0.4655 1.4477
-5 -8 -45 1.8404 -2.8193
-5 -8 -43 2.9729 -16.5578
-5 -8 -41 -5.0180 -1.7810
-5 -8 -39 -3.4619 2.1822
-5 -8 -37 1.2105 11.7522
-5 -8 -35 10.8364 -15.0854
-5 -8 -33 -0.8619 -1.2623
-5 -8 -31 18.2634 -6.5245
-5 -8 -29 -10.8176 -1.4910
-5 -8 -27 -4.3116 -13.9593
-5 -8 -25 12.0223 14.4771
-5 -8 -23 -21.8232 -12.1207
-5 -8 -21 -0.8063 9.7691
-5 -8 -19 -13.9015 8.9533
-5 -8 -17 -4.6835 0.9264
-5 -8 -15 12.1857 2.5461
-5 -8 -13 29.2217 -2.6292
-5 -8 -11 -0.4468 1.1806
-5 -8 -9 18.4629 -1.1244
-5 -8 -7 35.9931 -1.7217
-5 -8 -5 -31.9244 -39.0975
-5 -8 -3 37.3638 42.1108
-5 -8 -1 28.2840 12.1154
-5 -7 -54 0.6065 -1.3516
-5 -7 -52 -9.3837 -7.2328
-5 -7 -50 -3.2566 -2.9906
-5 -7 -48 -3.2911 5.8620
-5 -7 -46 5.8229 0.3142
-5 -7 -44 18.1970 12.9744
-5 -7 -42 2.0997 1.3636
-5 -7 -40 -1.9424 -1.5802
-5 -7 -38 -24.8460 -3.7672
-5 -7 -36 11.1491 0.1417
-5 -7 -34 6.4637 -4.2512
-5 -7 -32 38.8255 -11.4774
-5 -7 -30 -3.6444 9.9370
-5 -7 -28 2.9193 -21.3297
-5 -7 -26 3.5508 -1.9541
-5 -7 -24 2.2768 -11.1777
-5 -7 -22 0.3002 -23.9662
-5 -7 -20 -2.5798 -20.4731
-5 -7 -18 -11.7969 20.5170
-5 -7 -16 -13.9006 -42.2579
-5 -7 -14 -3.5633 -30.3455
-5 -7 -12 4.2880 -14.4696
-5 -7 -10 5.7394 12.7824
-5 -7 -8 14.8762 7.3733
-5 -7 -6 18.5270 18.8181
-5 -7 -4 -32.7067 -17.7768
-5 -7 -2 20.6427 19.7931
-5 -6 -55 -2.3016 3.0418
-5 -6 -53 8.6755 -4.6512
-5 -6 -51 0.2945 2.5770
-5 -6 -49 6.6008 1.6745
-5 -6 -47 0.2499 3.2206
-5 -6 -45 -3.5286 -4.5675
-5 -6 -43 7.9881 -8.5703
-5 -6 -41 1.3372 -9.1895
-5 -6 -39 -5.3494 2.9564
-5 -6 -37 -12.1091 0.7102
-5 -6 -35 -0.6597 8.4827
-5 -6 -33 -19.3949 -7.7927
-5 -6 -31 -17.1331 -32.3156
-5 -6 -29 -12.9223 -22.0399
-5 -6 -27 17.1191 1.7980
-5 -6 -25 -51.9891 16.1442
-5 -6 -23 -16.8443 -0.9684
-5 -6 -21 18.6724 23.2290
-5 -6 -19 -13.9848 -2.9723
-5 -6 -17 -3.3701 10.9011
-5 -6 -15 -4.0604 -3.4736
-5 -6 -13 12.9039 -2.2267
-5 -6 -11 -8.0236 39.0934
-5 -6 -9 37.4158 -60.4180
-5 -6 -7 21.9623 -16.9323
-5 -6 -5 1.5749 -34.3120
-5 -6 -3 11.4325 -1.4521
-5 -6 -1 -5.5913 5.3791
-5 -5 -56 -4.4429 16.7602
-5 -5 -54 -1.4334 -3.3173
-5 -5 -52 2.9784 4.1873
-5 -5 -50 6.1142 1.6987
-5 -5 -48 12.1891 -25.4910
-5 -5 -46 3.7292 3.3269
-5 -5 -44 11.8829 11.3439
-5 -5 -42 -10.2651 -0.9419
-5 -5 -40 -4.5347 10.4315
-5 -5 -38 -10.3907 -3.3490
-5 -5 -36 0.8746 -6.9481
-5 -5 -34 12.7072 -7.1928
-5 -5 -32 -13.7679 -0.8278
-5 -5 -30 33.2034 -1.1762
-5 -5 -28 -0.5406 13.8473
-5 -5 -26 3.3219 -26.9202
-5 -5 -24 -52.5517 10.4279
-5 -5 -22 -40.8400 30.8816
-5 -5 -20 -20.2032 11.4791
-5 -5 -18 -5.5110 0.1294
-5 -5 -16 15.2654 -1.4473
-5 -5 -14 -9.9521 29.0968
-5 -5 -12 -40.7249 65.1961
-5 -5 -10 -70.7419 20.3084
-5 -5 -8 -9.1935 38.1227
-5 -5 -6 -68.3444 34.5327
-5 -5 -4 -12.8477 67.3441
-5 -5 -2 54.5133 -63.3363
-5 -4 -57 -1.1530 0.9006
-5 -4 -55 -0.3293 -4.7543
-5 -4 -53 5.0236 -0.7638
-5 -4 -51 2.8907 7.0034
-5 -4 -49 -1.2086 2.6211
-5 -4 -47 12.7990 -11.1450
-5 -4 -45 2.9859 -1.0767
-5 -4 -43 -3.3185 9.1017
-5 -4 -41 14.1899 2.8036
-5 -4 -39 1.5224 -2.7463
-5 -4 -37 1.7066 0.4483
-5 -4 -35 1.5705 -11.3165
-5 -4 -33 -0.8482 -9.8977
-5 -4 -31 -14.1407 -5.6558
-5 -4 -29 -11.5065 -8.4639
-5 -4 -27 -12.0747 14.3523
-5 -4 -25 30.7593 18.4099
-5 -4 -23 15.4706 -0.4848
-5 -4 -21 -0.0134 20.3273
-5 -4 -19 11.5889 -42.0525
-5 -4 -17 -11.1490 -3.9696
-5 -4 -15 1.1039 -9.0416
-5 -4 -13 -6.6361 9.5260
-5 -4 -11 2.8130 -17.4098
-5 -4 -9 -3.5053 -36.6846
-5 -4 -7 16.5630 21.2795
-5 -4 -5 -58.7446 29.5475
-5 -4 -3 -22.1024 14.8690
-5 -4 -1 -19.4669 -18.9081
-5 -3 -58 -3.1514 0.2604
-5 -3 -56 -0.7156 -1.0778
-5 -3 -54 -9.3430 1.7738
-5 -3 -52 12.7967 4.6674
-5 -3 -50 -8.7641 -9.5616
-5 -3 -48 0.9883 6.6736
-5 -3 -46 -2.9938 -2.9867
-5 -3 -44 -5.2125 6.4158
-5 -3 -42 -3.1452 -3.5858
-5 -3 -40 -6.7722 1.6994
-5 -3 -38 -13.0526 -1.4113
-5 -3 -36 -9.8719 -11.0296
-5 -3 -34 -14.1155 12.3017
-5 -3 -32 7.4816 11.2498
-5 -3 -30 13.1598 2.0355
-5 -3 -28 -7.9801 -19.0985
-5 -3 -26 -27.1465 5.5367
-5 -3 -24 14.1144 -5.0374
-5 -3 -22 -18.1260 -17.5995
-5 -3 -20 -7.2892 -8.0850
-5 -3 -18 -32.0857 24.7101
-5 -3 -16 -2.4138 -19.8991
-5 -3 -14 14.0436 19.4100
-5 -3 -12 -10.2872 -65.7526
-5 -3 -10 -33.7388 -20.9465
-5 -3 -8 -104.6479 54.1737
-5 -3 -6 9.7513 -33.4565
-5 -3 -4 38.0740 53.9183
-5 -3 -2 1.3022 76.1989
-5 -2 -59 0.5777 3.4540
-5 -2 -57 0.3500 -4.1013
-5 -2 -55 -4.3138 -6.1291
-5 -2 -53 5.8285 7.7644
-5 -2 -51 1.2393 1.5824
-5 -2 -49 -5.1247 -2.5199
-5 -2 -47 1.0107 1.4599
-5 -2 -45 10.3209 5.4320
-5 -2 -43 1.4031 8.2252
-5 -2 -41 6.7655 2.5509
-5 -2 -39 -4.9420 -4.8546
-5 -2 -37 3.9046 -11.4691
-5 -2 -35 1.3542 -8.4518
-5 -2 -33 -6.5793 6.8256
-5 -2 -31 -4.7520 12.3370
-5 -2 -29 -4.0194 -2.2696
-5 -2 -27 19.1493 2.2068
-5 -2 -25 13.2734 16.1030
-5 -2 -23 55.5954 16.8348
-5 -2 -21 52.0860 0.7129
-5 -2 -19 -22.4920 -12.8921
-5 -2 -17 -10.9887 26.4864
-5 -2 -15 -14.8417 -55.2228
-5 -2 -13 -51.8040 15.7273
-5 -2 -11 -27.8433 9.1149
-5 -2 -9 -20.5350 47.8336
-5 -2 -7 23.4970 137.9391
-5 -2 -5 -43.5624 3.9839
-5 -2 -3 5.7200 52.6620
-5 -2 -1 51.0714 -36.9917
-5 -1 -58 -2.4658 -4.4011
-5 -1 -56 0.4122 0.1605
-5 -1 -54 -1.6120 -1.1414
-5 -1 -52 -3.1716 2.9606
-5 -1 -50 -0.9741 0.8735
-5 -1 -48 3.2265 -7.2757
-5 -1 -46 -5.0423 -4.5401
-5 -1 -44 -0.4924 -2.2808
-5 -1 -42 -0.8000 -3.5330
-5 -1 -40 5.6439 -4.2057
-5 -1 -38 2.9800 0.9807
-5 -1 -36 4.6559 -5.4739
-5 -1 -34 -5.0551 2.6379
-5 -1 -32 18.9911 -8.0315
-5 -1 -30 3.0295 16.3651
-5 -1 -28 11.1587 16.8325
-5 -1 -26 3.9111 -7.0416
-5 -1 -24 14.8570 -3.1481
-5 -1 -22 7.1001 -11.2712
-5 -1 -20 3.8045 -12.7240
-5 -1 -18 -11.7121 4.4212
-5 -1 -16 39.1422 0.9176
-5 -1 -14 -52.7287 -26.5540
-5 -1 -12 11.6721 -22.1823
-5 -1 -10 37.3363 -13.3699
-5 -1 -8 14.5647 -12.4778
-5 -1 -6 33.0827 28.3183
-5 -1 -4 11.0205 48.4948
-5 -1 -2 17.8647 34.6595
-4 -18 -14 1.3441 -1.6737
-4 -18 -12 1.7480 -7.2752
-4 -18 -10 0.4935 -0.0275
-4 -18 -8 -2.3483 -1.4621
-4 -18 -6 1.5335 0.2259
-4 -18 -4 -1.4216 -0.6599
-4 -18 -2 -0.2039 -0.3642
-4 -17 -23 0.7177 2.4402
-4 -17 -21 -1.7861 3.2774
-4 -17 -19 -0.3383 1.2636
-4 -17 -17 2.5516 0.5600
-4 -17 -15 -2.6487 -6.2440
-4 -17 -13 1.9419 1.9240
-4 -17 -11 -2.2452 -2.7009
-4 -17 -9 -1.6652 -1.1859
-4 -17 -7 0.0357 1.7909
-4 -17 -5 -1.4030 -2.3006
-4 -17 -3 -0.2650 -0.6078
-4 -17 -1 0.5820 0.1697
-4 -16 -30 0.3044 1.8568
-4 -16 -28 1.3453 -1.4656
-4 -16 -26 0.9911 1.0363
-4 -16 -24 -1.1894 -1.7434
-4 -16 -22 1.1764 2.9940
-4 -16 -20 -2.1582 2.3086
-4 -16 -18 -1.5149 -0.4283
-4 -16 -16 -1.4377 8.6583
-4 -16 -14 1.6497 -8.8635
-4 -16 -12 1.5533 -5.8656
-4 -16 -10 -4.3526 1.3554
-4 -16 -8 1.7027 1.2491
-4 -16 -6 -0.4130 0.2648
-4 -16 -4 -0.3303 -1.5657
-4 -16 -2 -2.0172 -2.6360
-4 -15 -35 3.3935 -5.7439
-4 -15 -33 2.7401 3.1730
-4 -15 -31 2.0917 -1.4641
-4 -15 -29 -2.7550 -1.7727
-4 -15 -27 -0.4450 1.9024
-4 -15 -25 -4.3046 2.2981
-4 -15 -23 0.2925 0.3427
-4 -15 -21 1.3446 3.6992
-4 -15 -19 3.6815 -3.4831
-4 -15 -17 0.8867 2.2279
-4 -15 -15 3.9080 3.3443
-4 -15 -13 -1.4688 -2.5565
-4 -15 -11 -0.0404 -4.0165
-4 -15 -9 -3.9493 -0.5590
-4 -15 -7 2.8201 1.2881
-4 -15 -5 -3.0806 -3.7773
-4 -15 -3 0.9479 0.9173
-4 -15 -1 -2.8451 1.0220
-4 -14 -38 -4.0862 -1.1237
-4 -14 -36 3.3565 -0.9965
-4 -14 -34 -2.7151 1.6703
-4 -14 -32 -2.5813 -0.1398
-4 -14 -30 -4.7280 -1.8826
-4 -14 -28 -0.8709 2.2297
-4 -14 -26 -0.5780 1.2290
-4 -14 -24 0.3642 -6.8292
-4 -14 -22 5.7060 6.8243
-4 -14 -20 2.3203 -2.4693
-4 -14 -18 -1.6991 -2.3425
-4 -14 -16 -0.6279 1.2754
-4 -14 -14 1.3937 -4.0401
-4 -14 -12 0.7279 4.9121
-4 -14 -10 -4.9741 4.1881
-4 -14 -8 -1.1330 0.9676
-4 -14 -6 -2.8628 -3.5480
-4 -14 -4 -1.6573 -1.2664
-4 -14 -2 2.0986 0.5295
-4 -13 -43 -0.0202 -3.8810
-4 -13 -41 0.5202 3.5980
-4 -13 -39 1.6580 -1.1730
-4 -13 -37 0.9365 1.7954
-4 -13 -35 -3.4986 -1.5867
-4 -13 -33 0.6248 -2.6095
-4 -13 -31 -0.8632 5.6150
-4 -13 -29 1.6613 5.8826
-4 -13 -27 3.4591 -0.6170
-4 -13 -25 -0.7183 -6.1065
-4 -13 -23 1.1974 -0.8641
-4 -13 -21 -0.5985 -7.7052
-4 -13 -19 3.0878 5.5909
-4 -13 -17 8.1231 1.4931
-4 -13 -15 -4.3643 9.4827
-4 -13 -13 -5.7352 0.7387
-4 -13 -11 3.0993 -2.7466
-4 -13 -9 4.6140 -3.8685
-4 -13 -7 -1.8937 1.0966
-4 -13 -5 -1.9438 0.9496
-4 -13 -3 0.9452 -0.1281
-4 -13 -1 5.0043 -0.6792
-4 -12 -46 -4.8107 0.8013
-4 -12 -44 -4.0400 -5.4701
-4 -12 -42 -2.2495 2.6117
-4 -12 -40 -2.3817 2.4853
-4 -12 -38 -5.9356 -4.7982
-4 -12 -36 -4.1245 8.2665
-4 -12 -34 4.4993 -0.9904
-4 -12 -32 1.6731 3.4478
-4 -12 -30 -12.0386 -4.4603
-4 -12 -28 0.7988 -5.0109
-4 -12 -26 -17.5640 8.9901
-4 -12 -24 5.0277 -4.1842
-4 -12 -22 1.6756 -0.0408
-4 -12 -20 -0.8831 3.0419
-4 -12 -18 0.5835 -0.9544
-4 -12 -16 6.1923 -0.8006
-4 -12 -14 -11.3948 -6.1657
-4 -12 -12 7.3986 2.6512
-4 -12 -10 6.2483 3.5540
-4 -12 -8 1.6071 -2.9472
-4 -12 -6 4.4141 0.5813
-4 -12 -4 -11.8968 2.7380
-4 -12 -2 -13.1004 6.2251
-4 -11 -47 1.8258 2.0280
-4 -11 -45 5.2531 4.7981
-4 -11 -43 -1.4826 0.6197
-4 -11 -41 0.8696 1.0532
-4 -11 -39 0.8360 -5.3069
-4 -11 -37 -4.1685 3.2648
-4 -11 -35 -3.6584 6.4629
-4 -11 -33 3.4288 0.9290
-4 -11 -31 6.7981 14.0277
-4 -11 -29 2.3995 12.9442
-4 -11 -27 10.2663 -7.7827
-4 -11 -25 13.6077 2.7836
-4 -11 -23 -11.3358 -12.9756
-4 -11 -21 -12.2225 0.4488
-4 -11 -19 5.6872 0.1487
-4 -11 -17 -10.5075 -9.9476
-4 -11 -15 4.1423 -3.6680
-4 -11 -13 -6.5610 5.1039
-4 -11 -11 1.7703 5.6243
-4 -11 -9 -0.4200 -1.8093
-4 -11 -7 -8.8957 6.6251
-4 -11 -5 9.0333 -7.6160
-4 -11 -3 -2.2444 -9.2742
-4 -11 -1 -3.9689 2.0033
-4 -10 -50 -0.0226 10.2055
-4 -10 -48 2.4091 -2.8331
-4 -10 -46 -6.9096 -3.2237
-4 -10 -44 -2.8895 -6.3422
-4 -10 -42 0.6255 2.5663
-4 -10 -40 -9.7332 14.2180
-4 -10 -38 0.3181 1.1290
-4 -10 -36 -3.5993 -11.3110
-4 -10 -34 0.0800 -2.7060
-4 -10 -32 5.1851 -0.9193
-4 -10 -30 -8.6036 -8.4944
-4 -10 -28 7.4576 0.9914
-4 -10 -26 -14.0094 -8.2338
-4 -10 -24 -16.3065 2.2430
-4 -10 -22 -2.9812 -15.0154
-4 -10 -20 2.6139 12.6174
-4 -10 -18 -6.3344 1.9920
-4 -10 -16 9.6590 1.7266
-4 -10 -14 -0.0432 14.4914
-4 -10 -12 -1.6864 4.4336
-4 -10 -10 1.7124 -7.7385
-4 -10 -8 5.8979 0.8053
-4 -10 -6 8.4060 -7.5437
-4 -10 -4 6.1103 19.0032
-4 -10 -2 -10.2415 -3.2510
-4 -9 -51 1.0198 2.1920
-4 -9 -49 6.7086 -6.6585
-4 -9 -47 0.5746 1.6649
-4 -9 -45 -3.1006 1.5553
-4 -9 -43 -0.2984 -10.8889
-4 -9 -41 0.2801 6.2926
-4 -9 -39 -10.5076 -0.8788
-4 -9 -37 -4.8155 6.3489
-4 -9 -35 -7.8664 -2.9975
-4 -9 -33 1.1180 -3.4406
-4 -9 -31 -1.6597 -9.9556
-4 -9 -29 -14.4689 0.9893
-4 -9 -27 9.8325 -8.7942
-4 -9 -25 3.4509 2.5119
-4 -9 -23 -22.0936 -10.3170
-4 -9 -21 24.7698 -16.7257
-4 -9 -19 11.1502 2.5477
-4 -9 -17 1.7617 -6.6510
-4 -9 -15 -3.0570 -20.7726
-4 -9 -13 -9.5221 7.5004
-4 -9 -11 3.2931 15.6502
-4 -9 -9 37.5111 18.7016
-4 -9 -7 -0.5621 -18.1541
-4 -9 -5 -8.7871 -9.9264
-4 -9 -3 -1.7568 -0.6218
-4 -9 -1 -8.8132 10.6661
-4 -8 -54 -6.8034 0.1046
-4 -8 -52 3.9381 0.6202
-4 -8 -50 -0.2384 6.2164
-4 -8 -48 8.9831 -8.4870
-4 -8 -46 7.0236 -2.3733
-4 -8 -44 -18.4123 -19.4408
-4 -8 -42 -0.7682 10.4655
-4 -8 -40 2.2208 4.6371
-4 -8 -38 20.3794 6.5990
-4 -8 -36 -11.7670 -15.9918
-4 -8 -34 -6.6359 -2.0035
-4 -8 -32 -28.0959 -1.0683
-4 -8 -30 0.9575 -8.6262
-4 -8 -28 10.5310 -7.3004
-4 -8 -26 -7.4146 6.1724
-4 -8 -24 -7.3623 16.1627
-4 -8 -22 -12.2935 -21.5438
-4 -8 -20 11.7206 35.8770
-4 -8 -18 -12.0244 -8.7143
-4 -8 -16 1.9460 -10.0197
-4 -8 -14 23.3478 9.6958
-4 -8 -12 -29.4358 -1.3757
-4 -8 -10 -25.6883 -35.1081
-4 -8 -8 -1.5767 -22.8304
-4 -8 -6 48.6890 -10.1917
-4 -8 -4 45.3215 28.4217
-4 -8 -2 5.9767 20.2632
-4 -7 -55 1.0074 3.4454
-4 -7 -53 4.4491 0.0853
-4 -7 -51 -2.7736 -4.7429
-4 -7 -49 0.3328 1.1064
-4 -7 -47 8.7796 -7.7592
-4 -7 -45 5.5219 -2.7192
-4 -7 -43 -11.3224 3.3962
-4 -7 -41 8.0520 -5.3288
-4 -7 -39 -10.3686 8.4647
-4 -7 -37 -3.8283 -10.5451
-4 -7 -35 -11.2115 10.4882
-4 -7 -33 -2.5531 -6.5896
-4 -7 -31 -12.6245 -9.0084
-4 -7 -29 -8.7256 -12.6756
-4 -7 -27 6.0510 6.7918
-4 -7 -25 21.8587 -0.2221
-4 -7 -23 10.2017 -6.7041
-4 -7 -21 2.3523 11.6278
-4 -7 -19 -12.0027 -11.0496
-4 -7 -17 0.7180 9.7741
-4 -7 -15 -1.7240 -6.9262
-4 -7 -13 -32.0705 -33.7273
-4 -7 -11 -27.7247 11.1976
-4 -7 -9 7.3207 38.5434
-4 -7 -7 39.9604 -5.2853
-4 -7 -5 -40.6807 -16.1992
-4 -7 -3 -7.1815 -4.2409
-4 -7 -1 5.0462 -5.6213
-4 -6 -56 -2.0210 1.2050
-4 -6 -54 8.4535 -3.7900
-4 -6 -52 -6.2240 -2.3180
-4 -6 -50 8.6008 8.9253
-4 -6 -48 2.8120 -13.5652
-4 -6 -46 0.8191 1.1253
-4 -6 -44 0.0373 -1.5168
-4 -6 -42 7.5557 -7.9992
-4 -6 -40 -14.8318 7.0221
-4 -6 -38 7.4438 -5.8571
-4 -6 -36 -11.8864 0.3198
-4 -6 -34 -2.9688 -6.0755
-4 -6 -32 -0.0060 28.2912
-4 -6 -30 9.3944 -19.8336
-4 -6 -28 -8.8285 9.3309
-4 -6 -26 -12.8116 21.7280
-4 -6 -24 -38.9916 -11.4497
-4 -6 -22 2.8153 -27.6043
-4 -6 -20 -18.1381 9.8385
-4 -6 -18 -8.8066 3.6850
-4 -6 -16 33.9279 9.5312
-4 -6 -14 9.5563 -26.1080
-4 -6 -12 -0.3029 -9.2457
-4 -6 -10 -2.2460 3.2371
-4 -6 -8 -20.2490 -24.3190
-4 -6 -6 13.5366 -50.7522
-4 -6 -4 -82.0282 -17.3212
-4 -6 -2 -51.8488 10.4011
-4 -5 -57 2.0904 -0.0305
-4 -5 -55 -3.0966 2.9452
-4 -5 -53 -1.6523 6.7776
-4 -5 -51 -1.8472 1.2119
-4 -5 -49 3.3530 1.8501
-4 -5 -47 -7.2107 -0.9714
-4 -5 -45 -0.2313 7.0656
-4 -5 -43 -9.1165 2.5202
-4 -5 -41 -5.5500 -6.7489
-4 -5 -39 -4.6321 2.5880
-4 -5 -37 4.5596 11.4135
-4 -5 -35 0.4554 0.9642
-4 -5 -33 -20.1704 -5.7215
-4 -5 -31 8.2399 1.7324
-4 -5 -29 4.3103 14.8926
-4 -5 -27 8.9846 -14.0584
-4 -5 -25 -30.0002 -20.5439
-4 -5 -23 -10.6331 -2.1704
-4 -5 -21 -18.1209 7.5553
-4 -5 -19 -2.0785 39.1451
-4 -5 -17 5.7222 2.3688
-4 -5 -15 5.0573 9.0239
-4 -5 -13 -64.5431 -40.0679
-4 -5 -11 25.1728 -6.4568
-4 -5 -9 -20.7611 44.0260
-4 -5 -7 -19.7262 -37.0167
-4 -5 -5 65.3570 -12.3879
-4 -5 -3 2.5606 -32.9946
-4 -5 -1 16.5595 22.6001
-4 -4 -58 -4.0424 7.2777
-4 -4 -56 2.0356 1.9842
-4 -4 -54 1.6973 1.1723
-4 -4 -52 -7.2543 -3.2388
-4 -4 -50 -5.0920 -2.8576
-4 -4 -48 -1.2858 -2.6226
-4 -4 -46 -0.3317 -3.6903
-4 -4 -44 -3.2628 20.2324
-4 -4 -42 -10.4088 18.5699
-4 -4 -40 0.4597 -2.6409
-4 -4 -38 -7.2622 -9.2052
-4 -4 -36 -0.0362 -14.6160
-4 -4 -34 3.5884 -8.5927
-4 -4 -32 -14.7091 -2.1836
-4 -4 -30 11.2397 45.6648
-4 -4 -28 -3.6081 15.0399
-4 -4 -26 44.0136 -31.9884
-4 -4 -24 27.2358 17.1094
-4 -4 -22 21.4758 -28.0694
-4 -4 -20 -44.4114 -21.6640
-4 -4 -18 42.6008 -19.1827
-4 -4 -16 5.4964 15.4495
-4 -4 -14 -80.2409 -7.1299
-4 -4 -12 67.8667 58.2359
-4 -4 -10 -18.8922 -7.3574
-4 -4 -8 -112.7841 45.6320
-4 -4 -6 -148.2032 -30.5268
-4 -4 -4 5.8410 95.9313
-4 -3 -59 0.6304 -2.8722
-4 -3 -57 -2.2254 -1.5212
-4 -3 -55 -2.5149 -9.8572
-4 -3 -53 6.3739 1.2100
-4 -3 -51 1.4473 -3.0723
-4 -3 -49 4.6811 -16.1272
-4 -3 -47 5.3906 -2.6859
-4 -3 -45 -10.6045 -3.0699
-4 -3 -43 0.9867 0.4348
-4 -3 -41 7.3259 -0.0240
-4 -3 -39 -8.9443 -0.9170
-4 -3 -37 7.5179 1.9670
-4 -3 -35 2.5386 -0.6070
-4 -3 -33 -5.2111 -12.2320
-4 -3 -31 23.6166 9.5176
-4 -3 -29 -0.9214 19.1881
-4 -3 -27 14.9727 5.5800
-4 -3 -25 1.0231 33.1019
-4 -3 -23 -5.8439 -18.5839
-4 -3 -21 73.5650 14.8933
-4 -3 -19 1.8425 -8.0042
-4 -3 -17 9.7144 -34.1567
-4 -3 -15 41.3794 1.5727
-4 -3 -13 -7.0736 -19.9037
-4 -3 -11 12.7797 -0.7550
-4 -3 -9 10.6875 -5.5978
-4 -3 -7 -19.9028 22.7435
-4 -3 -5 31.4535 -19.4789
-4 -3 -3 -26.0668 18.8445
-4 -3 -1 -41.9425 -31.1227
-4 -2 -60 -0.7233 0.7414
-4 -2 -58 0.5661 2.2275
-4 -2 -56 0.5510 -3.9821
-4 -2 -54 -3.3078 3.1962
-4 -2 -52 -10.0686 -5.0446
-4 -2 -50 -0.7625 -4.7691
-4 -2 -48 0.2197 -11.3943
-4 -2 -46 0.5543 4.2519
-4 -2 -44 -6.4561 -4.5384
-4 -2 -42 -5.0297 1.0918
-4 -2 -40 -31.0122 5.9182
-4 -2 -38 15.2039 -1.0915
-4 -2 -36 -5.9984 -0.7370
-4 -2 -34 3.6345 -12.1587
-4 -2 -32 0.3387 3.6797
-4 -2 -30 20.8826 33.0064
-4 -2 -28 -40.2638 32.4298
-4 -2 -26 -24.0493 21.1965
-4 -2 -24 0.3007 -0.5884
-4 -2 -22 25.8126 -23.3508
-4 -2 -20 -29.7005 -28.7537
-4 -2 -18 -59.9567 -27.0720
-4 -2 -16 -61.7177 19.7574
-4 -2 -14 -18.8999 -18.4997
-4 -2 -12 23.7262 30.2163
-4 -2 -10 55.5021 44.8444
-4 -2 -8 40.8596 -47.6289
-4 -2 -6 -17.2782 -29.6369
-4 -2 -4 -25.8251 -60.7329
-4 -2 -2 8.5978 -0.4846
-4 -1 -59 -3.4802 0.3896
-4 -1 -57 -2.7857 -2.9269
-4 -1 -55 3.4566 -2.0451
-4 -1 -53 5.8924 0.1931
-4 -1 -51 -3.8409 4.1120
-4 -1 -49 -4.0687 6.4638
-4 -1 -47 2.8117 1.1711
-4 -1 -45 17.8136 2.8470
-4 -1 -43 7.6577 6.1950
-4 -1 -41 15.1678 -0.2876
-4 -1 -39 -12.2523 1.9296
-4 -1 -37 0.7340 -11.1093
-4 -1 -35 -0.3495 3.7768
-4 -1 -33 9.7580 4.2169
-4 -1 -31 8.4366 -2.4335
-4 -1 -29 13.7667 8.7282
-4 -1 -27 -19.3207 -0.1749
-4 -1 -25 -1.5775 15.2143
-4 -1 -23 32.0818 -20.8221
-4 -1 -21 34.8892 -12.2930
-4 -1 -19 41.6113 9.6041
-4 -1 -17 27.2459 -43.4032
-4 -1 -15 -10.7116 23.8223
-4 -1 -13 -105.4629 -10.9169
-4 -1 -11 -55.9465 7.4561
-4 -1 -7 180.6587 90.3382
-4 -1 -5 -30.2451 -28.0831
-4 -1 -3 33.0838 10.0450
-4 -1 -1 75.5835 -74.3301
-3 -18 -17 -1.4796 3.1082
-3 -18 -15 0.1209 -1.3368
-3 -18 -13 -0.9375 0.4385
-3 -18 -11 0.0632 -3.0173
-3 -18 -9 -0.1956 0.5502
-3 -18 -7 0.3495 -1.6540
-3 -18 -5 0.5283 0.6616
-3 -18 -3 -0.3265 -1.0638
-3 -18 -1 -1.2979 -4.4354
-3 -17 -26 0.9890 2.4008
-3 -17 -24 1.2274 0.9322
-3 -17 -22 2.0107 2.2821
-3 -17 -20 0.2156 0.2421
-3 -17 -18 -0.6020 5.0360
-3 -17 -16 0.8928 4.4947
-3 -17 -14 1.0308 0.9297
-3 -17 -12 1.2851 -2.7027
-3 -17 -10 -2.6486 6.2279
-3 -17 -8 0.1161 0.1835
-3 -17 -6 1.1289 0.3034
-3 -17 -4 -2.8083 -0.6674
-3 -17 -2 0.0836 2.5988
-3 -16 -31 -0.2520 -2.3942
-3 -16 -29 3.7998 2.5919
-3 -16 -27 -1.2119 -1.3031
-3 -16 -25 2.7306 0.4324
-3 -16 -23 -2.3335 1.1322
-3 -16 -21 1.2328 2.8472
-3 -16 -19 1.9050 1.3611
-3 -16 -17 -1.4529 1.1564
-3 -16 -15 -3.7272 0.9916
-3 -16 -13 -0.2665 4.2691
-3 -16 -11 -3.6097 -2.6803
-3 -16 -9 -4.2101 2.6354
-3 -16 -7 -1.4711 1.1464
-3 -16 -5 0.2007 -0.8909
-3 -16 -3 0.2283 -0.8196
-3 -16 -1 0.3820 -0.1219
-3 -15 -36 1.8712 -0.3651
-3 -15 -34 0.4239 6.5128
-3 -15 -32 0.1950 -3.6898
-3 -15 -30 -3.0965 1.5642
-3 -15 -28 1.7520 2.1902
-3 -15 -26 4.5205 3.3925
-3 -15 -24 0.8771 3.1773
-3 -15 -22 3.1699 -5.1317
-3 -15 -20 0.2729 -3.1352
-3 -15 -18 1.1568 -1.9559
-3 -15 -16 5.6861 1.6017
-3 -15 -14 -0.7876 -1.4293
-3 -15 -12 0.4516 0.8696
-3 -15 -10 1.9794 0.1938
-3 -15 -8 -1.5149 0.9578
-3 -15 -6 1.6973 -2.9762
-3 -15 -4 0.1785 -3.0534
-3 -15 -2 0.9463 3.3520
-3 -14 -39 -6.0823 0.9983
-3 -14 -37 -3.2884 -0.6693
-3 -14 -35 -0.6477 -1.4846
-3 -14 -33 -0.1358 -0.4385
-3 -14 -31 0.0118 2.2706
-3 -14 -29 -2.3855 1.2292
-3 -14 -27 -0.8442 3.6015
-3 -14 -25 -1.1443 -3.7157
-3 -14 -23 -0.0355 -3.2989
-3 -14 -21 1.9072 -7.2011
-3 -14 -19 0.8741 -7.0969
-3 -14 -17 3.6308 2.4626
-3 -14 -15 1.1529 2.3073
-3 -14 -13 -4.8186 3.6335
-3 -14 -11 1.7314 -3.0090
-3 -14 -9 -0.2616 1.3615
-3 -14 -7 6.6743 -0.2647
-3 -14 -5 -0.9471 -0.4962
-3 -14 -3 -5.8496 0.0071
-3 -14 -1 0.9941 -1.7350
-3 -13 -44 -9.0496 -7.8815
-3 -13 -42 -0.2227 -4.4380
-3 -13 -40 5.2134 -1.2234
-3 -13 -38 1.2975 -1.9710
-3 -13 -36 -1.9918 -2.2514
-3 -13 -34 -0.0849 0.5187
-3 -13 -32 -0.5847 1.8816
-3 -13 -30 3.3763 0.5839
-3 -13 -28 -2.0567 -4.7248
-3 -13 -26 -1.8573 3.6218
-3 -13 -24 12.0549 0.4769
-3 -13 -22 1.9336 7.3470
-3 -13 -20 -4.3331 0.9102
-3 -13 -18 -4.4718 0.2539
-3 -13 -16 -3.0810 3.7799
-3 -13 -14 2.3577 1.8062
-3 -13 -12 2.8926 0.5695
-3 -13 -10 7.1978 5.7022
-3 -13 -8 1.6823 -3.6178
-3 -13 -6 -5.7562 0.8238
-3 -13 -4 -2.9322 1.3796
-3 -13 -2 10.0694 4.3604
-3 -12 -45 8.2872 5.4330
-3 -12 -43 2.7238 0.7118
-3 -12 -41 2.1016 -0.7650
-3 -12 -39 -0.7017 4.4150
-3 -12 -37 4.3364 -6.7523
-3 -12 -35 -5.5105 0.8348
-3 -12 -33 -0.6351 -2.0990
-3 -12 -31 2.5501 7.6379
-3 -12 -29 -0.5378 8.1883
-3 -12 -27 -7.1440 9.3160
-3 -12 -25 -7.4203 -1.0452
-3 -12 -23 3.6387 8.9115
-3 -12 -21 -6.2550 -4.7021
-3 -12 -19 1.7115 -5.0666
-3 -12 -17 -8.3449 -3.5629
-3 -12 -15 0.1296 0.1022
-3 -12 -13 -4.4872 6.0713
-3 -12 -11 1.1296 2.9571
-3 -12 -9 9.8049 -1.3362
-3 -12 -7 1.5595 -4.1817
-3 -12 -5 -0.7587 2.1038
-3 -12 -3 -1.7481 -0.3989
-3 -12 -1 -5.1996 -1.5439
-3 -11 -48 5.9211 -5.4448
-3 -11 -46 -9.9962 -1.7705
-3 -11 -44 -7.4148 -3.7916
-3 -11 -42 -3.4115 -0.5455
-3 -11 -40 -12.7297 6.3347
-3 -11 -38 -1.7220 -3.4501
-3 -11 -36 0.2774 -18.7932
-3 -11 -34 -6.4659 -1.8853
-3 -11 -32 -13.4058 4.2347
-3 -11 -30 3.5326 14.8019
-3 -11 -28 8.3041 3.1009
-3 -11 -26 3.4655 0.5672
-3 -11 -24 3.7118 -4.1691
-3 -11 -22 -1.3149 -3.8323
-3 -11 -20 9.9768 -25.8274
-3 -11 -18 -1.0470 9.7303
-3 -11 -16 8.7060 -2.9545
-3 -11 -14 -7.2910 7.5533
-3 -11 -12 1.9851 6.1457
-3 -11 -10 3.6240 -1.1565
-3 -11 -8 -9.1396 -0.6278
-3 -11 -6 11.9534 7.9373
-3 -11 -4 1.0214 -5.0715
-3 -11 -2 -3.8642 7.8316
-3 -10 -51 -0.6619 -0.9055
-3 -10 -49 3.5500 -1.2513
-3 -10 -47 2.6012 -3.1061
-3 -10 -45 4.6068 3.3481
-3 -10 -43 -5.1731 -2.2116
-3 -10 -41 11.7294 -6.6817
-3 -10 -39 -2.1338 -5.9249
-3 -10 -37 0.0690 -9.4628
-3 -10 -35 -8.7450 19.6776
-3 -10 -33 -1.6631 -13.5629
-3 -10 -31 -0.4483 7.9368
-3 -10 -29 -2.5148 -14.8050
-3 -10 -27 1.0118 -5.9534
-3 -10 -25 14.2215 15.8761
-3 -10 -23 5.7378 0.5806
-3 -10 -21 -15.6969 -9.8388
-3 -10 -19 -0.7921 -3.9190
-3 -10 -17 -2.4304 -11.7528
-3 -10 -15 6.5012 -10.0913
-3 -10 -13 3.7433 6.2335
-3 -10 -11 1.3022 9.4144
-3 -10 -9 -10.1090 -5.9647
-3 -10 -7 2.2335 2.4905
-3 -10 -5 12.1537 -23.0223
-3 -10 -3 -14.4094 4.2820
-3 -10 -1 0.3547 15.6221
-3 -9 -52 -4.9324 1.4764
-3 -9 -50 2.9743 4.5797
-3 -9 -48 -3.3169 -2.5550
-3 -9 -46 -4.7745 -2.6247
-3 -9 -44 -11.8010 -12.1177
-3 -9 -42 -11.2112 -4.3358
-3 -9 -40 -9.0738 -2.5021
-3 -9 -38 6.3790 -1.0637
-3 -9 -36 -19.4949 -13.7588
-3 -9 -34 6.9095 -1.9444
-3 -9 -32 -26.2613 -3.7943
-3 -9 -30 -6.2597 -14.6809
-3 -9 -28 -4.1558 15.5143
-3 -9 -26 -1.9967 0.6088
-3 -9 -24 9.4791 -6.0361
-3 -9 -22 21.8091 6.0318
-3 -9 -20 3.0515 -15.5428
-3 -9 -18 11.7404 3.8491
-3 -9 -16 -13.4656 4.5319
-3 -9 -14 20.0015 16.5373
-3 -9 -12 -10.9471 4.4537
-3 -9 -10 -36.9966 -5.2983
-3 -9 -8 -23.5970 -8.0456
-3 -9 -6 17.6850 -2.5507
-3 -9 -4 30.3810 4.7831
-3 -9 -2 -4.7186 1.8100
-3 -8 -55 1.9355 2.0490
-3 -8 -53 -5.5503 1.6629
-3 -8 -51 -4.3979 6.1240
-3 -8 -49 1.4530 -0.5936
-3 -8 -47 4.5215 -3.6862
-3 -8 -45 -4.3801 -10.6522
-3 -8 -43 -4.0181 -2.5677
-3 -8 -41 -4.7519 -2.4113
-3 -8 -39 -2.3755 12.8009
-3 -8 -37 -4.5964 -5.7471
-3 -8 -35 4.1634 3.0598
-3 -8 -33 -1.1409 -4.7696
-3 -8 -31 -3.1081 9.7018
-3 -8 -29 -6.6429 8.6887
-3 -8 -27 32.5274 11.0883
-3 -8 -25 -13.0780 5.9779
-3 -8 -23 -6.8062 0.6157
-3 -8 -21 5.2595 5.8328
-3 -8 -19 -4.9069 -23.1863
-3 -8 -17 19.0092 24.3196
-3 -8 -15 16.3239 -4.1351
-3 -8 -13 -9.4984 -44.8010
-3 -8 -11 -15.9707 31.9743
-3 -8 -9 0.8537 -25.4396
-3 -8 -7 -32.4572 -30.7988
-3 -8 -5 -13.4523 11.3103
-3 -8 -3 20.1372 -12.1769
-3 -8 -1 32.4559 -13.4403
-3 -7 -56 2.5735 3.0749
-3 -7 -54 7.7816 -3.2339
-3 -7 -52 -6.4501 2.0622
-3 -7 -50 0.6285 7.2774
-3 -7 -48 -4.6803 9.4490
-3 -7 -46 -7.8948 1.7930
-3 -7 -44 2.2420 4.9841
-3 -7 -42 2.2240 -2.7011
-3 -7 -40 4.7106 -10.9154
-3 -7 -38 1.9875 0.0975
-3 -7 -36 2.7593 4.7955
-3 -7 -34 2.4544 -1.8319
-3 -7 -32 25.1629 -2.3522
-3 -7 -30 -7.4191 1.4341
-3 -7 -28 -5.8027 21.4871
-3 -7 -26 12.6499 -14.5585
-3 -7 -24 24.2365 1.4107
-3 -7 -22 2.0901 -0.8794
-3 -7 -20 11.7292 -6.9520
-3 -7 -18 23.1640 13.4503
-3 -7 -16 -1.2910 -10.1751
-3 -7 -14 39.5979 7.1737
-3 -7 -12 -41.7753 -40.6587
-3 -7 -10 5.5669 -0.1459
-3 -7 -8 -59.8004 25.7442
-3 -7 -6 -10.4114 31.4606
-3 -7 -4 -30.0150 21.6031
-3 -7 -2 4.8897 -3.2091
-3 -6 -57 3.0277 -3.4519
-3 -6 -55 -2.5558 6.6432
-3 -6 -53 2.3878 3.5896
-3 -6 -51 -4.4887 -6.1490
-3 -6 -49 0.8581 -2.5788
-3 -6 -47 -0.8330 6.0907
-3 -6 -45 -5.2690 -9.5496
-3 -6 -43 0.3766 2.6165
-3 -6 -41 -5.7729 3.5679
-3 -6 -39 -0.8292 -3.6443
-3 -6 -37 -2.3465 7.3725
-3 -6 -35 -6.4510 -14.8838
-3 -6 -33 10.3838 7.9297
-3 -6 -31 1.8477 -1.4309
-3 -6 -29 1.7277 13.5477
-3 -6 -27 1.6589 -13.6201
-3 -6 -25 -6.8090 -15.3935
-3 -6 -23 1.9374 -0.1196
-3 -6 -21 -17.5627 -9.4404
-3 -6 -19 29.3703 -32.4651
-3 -6 -17 -1.8881 -3.3126
-3 -6 -15 -8.0733 1.9943
-3 -6 -13 27.8848 -71.1051
-3 -6 -11 13.0882 -0.6313
-3 -6 -9 -37.5371 -10.0880
-3 -6 -7 -9.7427 12.6108
-3 -6 -5 6.8543 -27.7732
-3 -6 -3 -1.1639 -0.3969
-3 -6 -1 5.7692 19.7868
-3 -5 -58 2.5138 5.0491
-3 -5 -56 -0.7276 0.5191
-3 -5 -54 -4.8835 -0.6709
-3 -5 -52 12.0752 4.8583
-3 -5 -50 1.2235 -2.3514
-3 -5 -48 8.8989 -5.8573
-3 -5 -46 0.9124 -1.0355
-3 -5 -44 1.2149 3.4389
-3 -5 -42 -2.6475 -13.5307
-3 -5 -40 4.2644 -2.1387
-3 -5 -38 -2.6882 1.7219
-3 -5 -36 2.2612 -1.4703
-3 -5 -34 -12.4287 3.8039
-3 -5 -32 -2.7314 13.0534
-3 -5 -30 12.9243 5.2401
-3 -5 -28 -5.0109 20.3938
-3 -5 -26 -26.1149 -5.5719
-3 -5 -24 -12.7468 -22.1606
-3 -5 -22 -24.1878 -20.9460
-3 -5 -20 -23.1902 16.1178
-3 -5 -18 -16.1549 26.8780
-3 -5 -16 8.6855 -22.5618
-3 -5 -14 31.3112 32.2567
-3 -5 -12 -10.1996 15.1985
-3 -5 -10 -11.1659 -13.9287
-3 -5 -8 -120.2207 21.3488
-3 -5 -6 14.2114 0.3402
-3 -5 -4 68.9076 24.0542
-3 -5 -2 -2.2433 85.0444
-3 -4 -59 -4.1137 -2.4493
-3 -4 -57 4.9377 2.9741
-3 -4 -55 -2.9598 7.7677
-3 -4 -53 -4.8961 2.6894
-3 -4 -51 -3.5332 -4.0458
-3 -4 -49 0.2253 -11.0726
-3 -4 -47 4.5007 -4.4851
-3 -4 -45 10.6860 9.9451
-3 -4 -43 0.9921 5.9206
-3 -4 -41 -3.7602 1.5907
-3 -4 -39 -8.9700 -7.2806
-3 -4 -37 -1.7766 6.6407
-3 -4 -35 -6.3027 7.0415
-3 -4 -33 -1.8719 9.5875
-3 -4 -31 36.7658 11.8448
-3 -4 -29 0.3555 -9.1195
-3 -4 -27 -14.2980 0.7433
-3 -4 -25 -12.9091 -31.2021
-3 -4 -23 39.1325 38.6644
-3 -4 -21 -65.6710 -37.7633
-3 -4 -19 11.5613 -1.9722
-3 -4 -17 -2.0329 36.3083
-3 -4 -15 -17.8569 14.6497
-3 -4 -13 49.2045 -24.3672
-3 -4 -11 -1.8130 -34.2673
-3 -4 -9 -46.7041 12.0561
-3 -4 -7 24.1652 -21.9444
-3 -4 -5 -33.3125 25.6569
-3 -4 -3 16.7069 -15.2774
-3 -4 -1 46.5058 33.4620
-3 -3 -60 -1.3182 -1.3971
-3 -3 -58 -2.9906 -3.2655
-3 -3 -56 -1.1854 -2.9272
-3 -3 -54 -1.4328 0.1064
-3 -3 -52 3.2022 2.2852
-3 -3 -50 5.7860 -2.6722
-3 -3 -48 -1.3809 -3.9823
-3 -3 -46 3.6178 3.1053
-3 -3 -44 -2.9318 -3.3179
-3 -3 -42 6.8237 -3.9738
-3 -3 -40 -6.4020 -6.6824
-3 -3 -38 -14.1951 3.7082
-3 -3 -36 4.9631 8.3894
-3 -3 -34 -15.4691 16.3467
-3 -3 -32 -10.6841 -4.5631
-3 -3 -30 18.0664 21.5397
-3 -3 -28 -6.5551 12.1716
-3 -3 -26 -9.9957 -18.0710
-3 -3 -24 -21.1754 12.1953
-3 -3 -22 -28.5391 -26.9952
-3 -3 -20 9.0284 -80.6672
-3 -3 -18 68.7798 -6.4222
-3 -3 -16 -2.1391 22.9140
-3 -3 -14 45.5266 -25.6932
-3 -3 -10 50.5570 -35.4191
-3 -3 -8 -93.9893 16.3268
-3 -3 -6 -14.4489 46.4982
-3 -3 -4 75.1001 105.8852
-3 -3 -2 43.1533 -129.3649
-3 -2 -59 -4.1947 -2.1823
-3 -2 -57 -5.1292 -2.2810
-3 -2 -55 1.5848 -0.3070
-3 -2 -53 5.2470 0.2129
-3 -2 -51 -0.3551 -1.4110
-3 -2 -49 -3.9741 3.1073
-3 -2 -47 11.9051 -2.2136
-3 -2 -45 -7.4520 -4.3792
-3 -2 -43 7.3756 6.5991
-3 -2 -41 -11.3581 -0.4440
-3 -2 -39 10.4427 7.0253
-3 -2 -37 0.3909 19.1060
-3 -2 -35 -5.2446 22.9993
-3 -2 -33 -2.4660 4.3978
-3 -2 -31 -33.0593 -4.6014
-3 -2 -29 20.4027 16.2088
-3 -2 -27 6.4677 20.7584
-3 -2 -25 -5.8802 -28.2910
-3 -2 -23 -16.7612 -52.4627
-3 -2 -21 10.6225 60.7051
-3 -2 -19 32.3793 30.5898
-3 -2 -17 2.8108 12.4744
-3 -2 -15 -31.0904 27.0103
-3 -2 -13 -0.0354 -68.7262
-3 -2 -11 -85.3509 89.5513
-3 -2 -7 -37.7309 45.0187
-3 -2 -5 -9.1643 -44.4248
-3 -2 -1 19.1767 -28.2089
-3 -1 -60 2.3692 0.1166
-3 -1 -58 -0.6627 -0.1232
-3 -1 -56 0.8810 0.7574
-3 -1 -54 -2.4321 1.2286
-3 -1 -52 1.5872 1.6835
-3 -1 -50 1.7955 7.7491
-3 -1 -48 0.3678 2.8274
-3 -1 -46 -5.0145 -3.0214
-3 -1 -44 -6.5929 -3.4517
-3 -1 -42 -1.0861 -17.7200
-3 -1 -40 4.2611 -1.0721
-3 -1 -38 6.5956 -8.0977
-3 -1 -36 -2.7173 -1.8481
-3 -1 -34 0.3084 -14.8369
-3 -1 -32 -12.1242 4.8172
-3 -1 -30 12.0420 7.2758
-3 -1 -28 -4.9607 -4.6354
-3 -1 -26 21.3779 -2.1903
-3 -1 -24 11.2683 -1.7489
-3 -1 -22 -10.1690 30.2583
-3 -1 -20 15.9904 10.5064
-3 -1 -18 -12.8758 9.7134
-3 -1 -16 7.2585 -18.0893
-3 -1 -14 -26.6183 -16.0731
-3 -1 -12 -21.9932 6.6921
-3 -1 -10 -38.0930 100.9129
-3 -1 -6 110.8956 -7.8804
-3 -1 -4 6.1423 -19.5202
-3 -1 -2 48.3501 5.8376
-2 -18 -18 -1.8788 2.4532
-2 -18 -16 1.3120 0.3762
-2 -18 -14 -0.4778 0.4272
-2 -18 -12 -3.1121 0.5800
-2 -18 -10 0.7633 0.6392
-2 -18 -8 -0.1420 -0.8219
-2 -18 -6 -0.1226 -0.0946
-2 -18 -4 -2.5434 1.2531
-2 -18 -2 -0.5262 3.3513
-2 -17 -27 -2.2293 -0.6475
-2 -17 -25 -1.7393 0.9921
-2 -17 -23 -2.1851 2.7940
-2 -17 -21 0.2556 0.8876
-2 -17 -19 3.4449 -4.0218
-2 -17 -17 2.2196 3.5713
-2 -17 -15 1.1274 0.6323
-2 -17 -13 -2.0475 1.4356
-2 -17 -11 1.4056 -1.1282
-2 -17 -9 1.8005 1.2838
-2 -17 -7 -0.4061 1.3096
-2 -17 -5 -0.1112 0.8394
-2 -17 -3 -4.6769 1.6671
-2 -17 -1 -1.1652 -0.6961
-2 -16 -32 -0.1802 2.9929
-2 -16 -30 -1.2547 2.7161
-2 -16 -28 4.9252 -3.4070
-2 -16 -26 4.4593 -2.1348
-2 -16 -24 -0.3819 -1.9720
-2 -16 -22 2.5040 4.4217
-2 -16 -20 1.3118 -2.8849
-2 -16 -18 1.9861 -2.2684
-2 -16 -16 -1.5742 2.6528
-2 -16 -14 1.5369 0.6384
-2 -16 -12 1.8858 2.0925
-2 -16 -10 -0.4888 0.1972
-2 -16 -8 1.0201 -1.4289
-2 -16 -6 0.7071 0.6606
-2 -16 -4 -0.3047 0.6144
-2 -16 -2 -2.6610 2.3830
-2 -15 -37 -3.1633 2.0254
-2 -15 -35 0.0823 -2.6364
-2 -15 -33 3.0477 0.5196
-2 -15 -31 3.2703 -5.1603
-2 -15 -29 1.7400 -4.4800
-2 -15 -27 0.6541 -1.1592
-2 -15 -25 -0.5124 -3.8728
-2 -15 -23 -3.2553 -1.0295
-2 -15 -21 -2.8896 4.3901
-2 -15 -19 2.7247 -0.8221
-2 -15 -17 -0.9090 1.3219
-2 -15 -15 3.1472 -0.6604
-2 -15 -13 3.0715 -0.0855
-2 -15 -11 0.1765 -1.0221
-2 -15 -9 1.8264 1.1839
-2 -15 -7 3.0586 -3.5950
-2 -15 -5 5.1110 0.0534
-2 -15 -3 2.8012 -1.7656
-2 -15 -1 0.1333 -0.0485
-2 -14 -40 0.9022 1.0883
-2 -14 -38 -2.7466 1.8864
-2 -14 -36 -1.7841 0.0475
-2 -14 -34 6.9889 0.7250
-2 -14 -32 3.4443 -2.0381
-2 -14 -30 -0.1181 2.8301
-2 -14 -28 3.5811 0.9452
-2 -14 -26 2.7834 -4.6668
-2 -14 -24 4.0631 2.0106
-2 -14 -22 4.5279 -1.5860
-2 -14 -20 -6.1251 1.9262
-2 -14 -18 1.8529 2.3474
-2 -14 -16 -2.0519 -1.3406
-2 -14 -14 -1.8648 -6.3265
-2 -14 -12 1.9183 7.0585
-2 -14 -10 -0.0463 -3.3969
-2 -14 -8 -4.7703 -4.0907
-2 -14 -6 -0.5625 -3.9456
-2 -14 -4 -1.8157 1.3010
-2 -14 -2 10.5344 7.0748
-2 -13 -43 -1.5927 0.1658
-2 -13 -41 0.0727 -1.7619
-2 -13 -39 1.6897 -6.4153
-2 -13 -37 -5.1824 2.8569
-2 -13 -35 3.3587 4.0700
-2 -13 -33 -6.6978 1.8307
-2 -13 -31 3.1155 -1.3230
-2 -13 -29 0.5929 -7.2976
-2 -13 -27 5.4943 -0.1326
-2 -13 -25 2.5666 0.3416
-2 -13 -23 4.9261 3.9403
-2 -13 -21 -4.6453 -5.9328
-2 -13 -19 -5.2489 4.5702
-2 -13 -17 4.5256 -0.0787
-2 -13 -15 4.5185 4.6521
-2 -13 -13 -2.4526 -5.9233
-2 -13 -11 3.6722 -1.3577
-2 -13 -9 -1.0477 -0.5414
-2 -13 -7 4.8246 6.5408
-2 -13 -5 0.9659 -5.6395
-2 -13 -3 1.2234 4.2689
-2 -13 -1 -1.8711 -3.6817
-2 -12 -46 -3.8692 -3.4273
-2 -12 -44 -2.0864 -0.8899
-2 -12 -42 0.2951 -5.1251
-2 -12 -40 -0.8521 -6.9740
-2 -12 -38 -0.6312 0.1925
-2 -12 -36 -2.4317 -5.8162
-2 -12 -34 5.2142 -3.0375
-2 -12 -32 23.8020 14.4380
-2 -12 -30 -6.2797 -5.8045
-2 -12 -28 -2.3169 -5.9175
-2 -12 -26 5.4546 4.2723
-2 -12 -24 4.9149 0.9389
-2 -12 -22 -2.0608 6.9218
-2 -12 -20 -7.7091 0.0078
-2 -12 -18 0.3469 -2.6752
-2 -12 -16 1.4629 3.6788
-2 -12 -14 1.5958 -2.6729
-2 -12 -12 -0.3422 1.0854
-2 -12 -10 -3.0667 1.3035
-2 -12 -8 -0.2142 -2.8891
-2 -12 -6 -7.3976 -2.4791
-2 -12 -4 -1.5602 -5.9032
-2 -12 -2 0.0220 5.5444
-2 -11 -49 2.0039 3.0243
-2 -11 -47 -4.4001 -0.9863
-2 -11 -45 0.8624 5.4823
-2 -11 -43 1.5322 1.9450
-2 -11 -41 -8.5566 -0.5338
-2 -11 -39 -3.6676 -0.2630
-2 -11 -37 -0.3935 7.1252
-2 -11 -35 -4.4633 -4.7034
-2 -11 -33 -3.6967 -7.5222
-2 -11 -31 1.2583 -5.0216
-2 -11 -29 -1.8769 -0.5558
-2 -11 -27 -1.8729 -9.1243
-2 -11 -25 2.5776 4.6981
-2 -11 -23 11.1457 -1.1294
-2 -11 -21 7.9370 -3.0096
-2 -11 -19 2.3274 0.5488
-2 -11 -17 -2.0996 0.8059
-2 -11 -15 0.8477 -3.8257
-2 -11 -13 -6.1891 -3.3791
-2 -11 -11 1.8855 1.4718
-2 -11 -9 -7.7485 4.1730
-2 -11 -7 2.2450 -19.7785
-2 -11 -5 -2.6795 12.8082
-2 -11 -3 -3.7364 -5.5878
-2 -11 -1 2.5913 14.5856
-2 -10 -52 2.6068 1.9878
-2 -10 -50 -3.8766 1.0586
-2 -10 -48 -1.3733 -1.2432
-2 -10 -46 -9.1810 2.5286
-2 -10 -44 -6.1412 0.1136
-2 -10 -42 -4.3175 1.2272
-2 -10 -40 1.9377 4.2328
-2 -10 -38 -9.8548 -8.9086
-2 -10 -36 -10.6942 -5.2884
-2 -10 -34 6.2959 -1.3257
-2 -10 -32 15.8364 2.6949
-2 -10 -30 6.8141 0.2041
-2 -10 -28 5.2504 -23.7862
-2 -10 -26 -12.2558 8.8441
-2 -10 -24 6.5161 -2.2342
-2 -10 -22 -5.9802 -8.8664
-2 -10 -20 9.0234 -6.0019
-2 -10 -18 1.3596 -17.4875
-2 -10 -16 6.1357 5.1813
-2 -10 -14 7.8170 0.2731
-2 -10 -12 4.7713 10.9402
-2 -10 -10 15.0630 1.0608
-2 -10 -8 -9.6501 -6.0323
-2 -10 -6 10.0380 -22.5916
-2 -10 -4 -11.7479 5.7794
-2 -10 -2 -11.7974 -3.5144
-2 -9 -53 0.4320 -0.1121
-2 -9 -51 3.2413 5.2003
-2 -9 -49 -1.3319 1.3316
-2 -9 -47 -4.7775 -1.6026
-2 -9 -45 3.6157 -4.7276
-2 -9 -43 3.2363 7.2819
-2 -9 -41 2.3902 7.4363
-2 -9 -39 16.1218 -0.6012
-2 -9 -37 0.9867 7.2572
-2 -9 -35 3.8628 -5.3767
-2 -9 -33 4.2482 -7.7481
-2 -9 -31 0.3711 0.8304
-2 -9 -29 -11.1095 -8.6666
-2 -9 -27 -15.6283 -3.3579
-2 -9 -25 -3.2823 19.1320
-2 -9 -23 5.7008 2.2383
-2 -9 -21 2.0285 -7.5824
-2 -9 -19 -3.8249 2.1323
-2 -9 -17 -20.4065 2.7980
-2 -9 -15 3.4736 -3.3702
-2 -9 -13 -0.3375 -14.5352
-2 -9 -11 13.8558 -7.0860
-2 -9 -9 -2.1025 9.1507
-2 -9 -7 -17.0468 -4.3655
-2 -9 -5 -48.2471 16.8971
-2 -9 -3 0.4985 12.7750
-2 -9 -1 -4.3377 6.9372
-2 -8 -54 -1.4352 2.4456
-2 -8 -52 -5.4714 -2.9035
-2 -8 -50 -1.6199 0.5658
-2 -8 -48 -3.5459 12.4540
-2 -8 -46 -6.4929 3.9089
-2 -8 -44 -7.7163 -4.2773
-2 -8 -42 1.8955 7.3255
-2 -8 -40 15.3102 -10.7575
-2 -8 -38 1.4609 -4.1604
-2 -8 -36 -9.5891 -13.9802
-2 -8 -34 -6.0449 -1.8754
-2 -8 -32 30.6078 13.0005
-2 -8 -30 4.7056 -13.4282
-2 -8 -28 4.5502 7.4055
-2 -8 -26 4.7974 12.4465
-2 -8 -24 -4.3550 4.9434
-2 -8 -22 17.0184 -9.8482
-2 -8 -20 -11.4101 -1.5246
-2 -8 -18 9.6096 10.4655
-2 -8 -16 -2.3636 -6.1831
-2 -8 -14 29.0777 -4.3421
-2 -8 -12 -29.0608 21.3333
-2 -8 -10 12.9869 8.7542
-2 -8 -8 -29.0812 33.8321
-2 -8 -6 4.5165 -9.1063
-2 -8 -4 19.3692 7.6101
-2 -8 -2 11.6382 -12.9319
-2 -7 -57 2.5633 2.9883
-2 -7 -55 0.9036 1.9065
-2 -7 -53 5.6114 0.1232
-2 -7 -51 4.5195 -5.3346
-2 -7 -49 -1.1875 -2.1174
-2 -7 -47 3.4674 -2.7398
-2 -7 -45 4.2006 4.2422
-2 -7 -43 1.6686 -7.1990
-2 -7 -41 10.1122 -2.7330
-2 -7 -39 -1.2272 -3.9299
-2 -7 -37 7.5495 2.3067
-2 -7 -35 -4.5833 -4.0001
-2 -7 -33 26.0902 2.6200
-2 -7 -31 9.7191 -0.9025
-2 -7 -29 -3.5629 1.2779
-2 -7 -27 8.1156 -16.4897
-2 -7 -25 2.7326 14.4716
-2 -7 -23 -0.8567 -17.4347
-2 -7 -21 -6.8360 10.3156
-2 -7 -19 -38.9470 -34.2594
-2 -7 -17 -7.9769 18.2098
-2 -7 -15 11.9709 15.7123
-2 -7 -13 -5.3895 6.3292
-2 -7 -11 2.9942 -11.9021
-2 -7 -9 6.3126 -10.2411
-2 -7 -7 -8.0688 -31.3677
-2 -7 -5 -9.6000 -3.3296
-2 -7 -3 -1.6343 -0.6680
-2 -7 -1 5.5676 40.5717
-2 -6 -58 3.1532 3.7727
-2 -6 -56 2.3040 -0.4552
-2 -6 -54 0.7330 0.1802
-2 -6 -52 0.4060 2.4852
-2 -6 -50 3.2000 3.9323
-2 -6 -48 -3.4266 1.7324
-2 -6 -46 -1.9133 2.4828
-2 -6 -44 6.0368 -1.7642
-2 -6 -42 5.6295 -5.2900
-2 -6 -40 -4.1523 -5.3415
-2 -6 -38 4.4871 2.8205
-2 -6 -36 -4.5484 6.8494
-2 -6 -34 -4.2692 -1.4756
-2 -6 -32 5.8003 -1.2109
-2 -6 -30 -8.0520 6.1405
-2 -6 -28 4.5590 -28.8378
-2 -6 -26 14.1936 -19.6292
-2 -6 -24 12.3348 -1.6020
-2 -6 -22 9.8859 15.5807
-2 -6 -20 -13.0254 3.7880
-2 -6 -18 9.0090 -11.6599
-2 -6 -16 -7.5938 -1.5060
-2 -6 -14 -20.1805 -7.6921
-2 -6 -12 -24.5500 32.7226
-2 -6 -10 -12.7633 16.6506
-2 -6 -8 73.2543 26.5929
-2 -6 -6 29.3439 -10.9728
-2 -6 -4 18.0613 21.5211
-2 -6 -2 -46.5475 -42.5219
-2 -5 -59 -2.1947 -3.5435
-2 -5 -57 -0.3250 -3.0012
-2 -5 -55 3.5530 4.6564
-2 -5 -53 -0.0375 2.7233
-2 -5 -51 1.2824 0.6713
-2 -5 -49 2.4498 -6.1679
-2 -5 -47 2.8968 -0.0602
-2 -5 -45 -6.0177 -14.3072
-2 -5 -43 -4.4044 8.0822
-2 -5 -41 -0.5049 -7.0657
-2 -5 -39 6.4855 7.3157
-2 -5 -37 -6.0902 1.3219
-2 -5 -35 2.4061 2.7513
-2 -5 -33 -0.9105 -4.4111
-2 -5 -31 -14.4948 -10.7916
-2 -5 -29 -3.3371 8.9929
-2 -5 -27 -6.1655 -0.7159
-2 -5 -25 -18.6079 -9.4943
-2 -5 -23 -55.2951 -13.7105
-2 -5 -21 -78.0799 -3.6793
-2 -5 -19 13.0545 -3.4473
-2 -5 -17 -61.0125 -24.9332
-2 -5 -15 21.5087 45.7389
-2 -5 -13 44.6513 -8.6723
-2 -5 -11 9.8690 -22.4455
-2 -5 -9 12.2182 25.1801
-2 -5 -7 -17.3677 -150.5522
-2 -5 -5 43.6521 3.6799
-2 -5 -3 13.0299 -42.6854
-2 -5 -1 -50.5295 35.7438
-2 -4 -60 -3.6049 1.3625
-2 -4 -58 2.0440 3.1918
-2 -4 -56 0.3789 -2.5124
-2 -4 -54 -3.0403 4.5235
-2 -4 -52 -4.9167 -0.0015
-2 -4 -50 -2.7325 -3.9507
-2 -4 -48 -10.8817 3.2745
-2 -4 -46 3.6538 -2.1861
-2 -4 -44 6.9376 9.5102
-2 -4 -42 -3.5800 5.8745
-2 -4 -40 9.4623 -15.5822
-2 -4 -38 4.0956 1.8351
-2 -4 -36 -4.8214 7.3162
-2 -4 -34 -14.0606 27.1270
-2 -4 -32 -6.6226 -2.2501
-2 -4 -30 19.5098 9.0892
-2 -4 -28 -20.6446 -15.6411
-2 -4 -26 -15.3272 19.2995
-2 -4 -24 -12.8643 0.5764
-2 -4 -22 -9.1654 -19.0833
-2 -4 -20 -36.4865 3.9491
-2 -4 -18 -9.8437 -35.7756
-2 -4 -16 -69.5024 49.1295
-2 -4 -14 -15.7960 28.2634
-2 -4 -10 39.2611 21.8699
-2 -4 -8 47.3127 -24.6787
-2 -4 -6 16.3723 -41.6361
-2 -4 -4 64.2227 -54.6277
-2 -4 -2 31.1254 0.4860
-2 -3 -59 5.7291 1.5519
-2 -3 -57 2.0932 -0.9569
-2 -3 -55 -2.1185 -0.1522
-2 -3 -53 1.1990 7.0962
-2 -3 -51 -0.9286 0.1769
-2 -3 -49 -5.3947 8.4681
-2 -3 -47 -13.4764 6.2270
-2 -3 -45 -6.9761 0.1835
-2 -3 -43 12.2221 2.4165
-2 -3 -41 -11.1034 8.7502
-2 -3 -39 -0.5976 5.3018
-2 -3 -37 3.4120 -8.1513
-2 -3 -35 -8.1846 5.7241
-2 -3 -33 4.9029 -4.7563
-2 -3 -31 9.7294 -17.2245
-2 -3 -29 -13.7142 -24.9325
-2 -3 -27 -4.7240 -19.2343
-2 -3 -25 15.0990 15.8295
-2 -3 -23 14.9869 50.5819
-2 -3 -21 -8.7477 -54.9617
-2 -3 -19 -38.4314 -17.1713
-2 -3 -17 10.2949 0.8600
-2 -3 -15 0.3435 39.8557
-2 -3 -13 15.8111 62.2962
-2 -3 -11 86.6840 -106.6076
-2 -3 -7 35.4778 -45.8035
-2 -3 -5 24.9639 37.7237
-2 -3 -1 -23.3178 25.8200
-2 -2 -60 0.1790 -0.2313
-2 -2 -58 -1.0840 -3.7482
-2 -2 -56 -0.6326 3.0037
-2 -2 -54 4.6539 -6.4503
-2 -2 -52 -0.6965 -4.5322
-2 -2 -50 -0.1263 3.4061
-2 -2 -48 1.0456 0.0523
-2 -2 -46 -3.4089 0.6600
-2 -2 -44 -11.6269 -11.5341
-2 -2 -42 6.2110 3.5846
-2 -2 -40 0.5116 -7.3404
-2 -2 -38 0.0938 3.8534
-2 -2 -36 -3.8449 22.1653
-2 -2 -34 -1.2079 -1.6073
-2 -2 -32 8.1108 0.9828
-2 -2 -30 3.7231 -35.7099
-2 -2 -28 -6.4366 -4.7306
-2 -2 -26 35.9268 4.3404
-2 -2 -24 -42.8925 7.1096
-2 -2 -22 -30.5865 -19.4373
-2 -2 -20 35.6986 -32.4632
-2 -2 -18 -9.8832 11.7734
-2 -2 -16 32.2023 -12.8378
-2 -2 -14 69.6446 91.5591
-2 -2 -12 1.5498 9.2266
-2 -2 -10 61.8656 50.9094
-2 -2 -8 113.2198 -65.2270
-2 -2 -6 37.7421 -48.2302
-2 -2 -4 -21.2400 -65.0550
-2 -2 -2 -139.8582 52.5986
-2 -1 -61 1.8200 2.9725
-2 -1 -59 1.1809 1.0897
-2 -1 -57 3.5278 -4.0470
-2 -1 -55 -0.9437 3.7273
-2 -1 -53 -5.0394 2.4420
-2 -1 -51 -0.0720 -2.8232
-2 -1 -49 -10.5329 3.7712
-2 -1 -47 -6.7209 5.1091
-2 -1 -45 -0.5602 1.3379
-2 -1 -43 5.4304 -1.2307
-2 -1 -41 7.5144 -5.2184
-2 -1 -39 9.1734 -1.3599
-2 -1 -37 -17.9644 -10.6054
-2 -1 -35 4.5742 -0.0351
-2 -1 -33 -11.4212 -1.5265
-2 -1 -31 -8.1069 3.5728
-2 -1 -29 -13.6709 -9.6071
-2 -1 -27 -0.3249 6.5693
-2 -1 -25 18.3075 -8.1200
-2 -1 -23 -31.8787 -4.7268
-2 -1 -21 19.9725 48.9103
-2 -1 -19 -19.8579 -10.1472
-2 -1 -17 -28.9252 -30.7091
-2 -1 -15 -23.6577 30.4780
-2 -1 -11 -92.5686 43.7688
-2 -1 -9 6.6225 -1.4183
-2 -1 -7 -80.7437 -45.1689
-2 -1 -5 117.8169 273.3021
-2 -1 -3 86.9006 -347.0839
-2 -1 -1 248.2377 -151.1309
-1 -19 -2 -0.9805 0.9101
-1 -18 -19 -0.5306 0.2513
-1 -18 -17 0.4326 0.6884
-1 -18 -15 -1.7366 3.4448
-1 -18 -13 -0.0105 -1.8536
-1 -18 -11 -1.6599 0.0067
-1 -18 -9 1.0385 0.2302
-1 -18 -7 0.2180 -0.3592
-1 -18 -5 -2.4151 -1.1853
-1 -18 -3 -0.4649 -0.1865
-1 -18 -1 -1.9747 -4.0471
-1 -17 -26 -2.7840 -4.9313
-1 -17 -24 1.6430 -2.2463
-1 -17 -22 -2.0699 -1.7312
-1 -17 -20 2.3776 -2.3232
-1 -17 -18 0.8994 -2.5931
-1 -17 -16 0.1201 0.7446
-1 -17 -14 0.0833 -3.2836
-1 -17 -12 2.5674 0.8706
-1 -17 -10 0.8521 1.3977
-1 -17 -8 -0.2173 2.2749
-1 -17 -6 2.3461 5.6667
-1 -17 -4 2.2436 0.1405
-1 -17 -2 -1.2012 0.0419
-1 -16 -33 1.8288 2.1445
-1 -16 -31 1.9382 -4.7550
-1 -16 -29 -0.0783 -0.5538
-1 -16 -27 -0.3949 0.7625
-1 -16 -25 1.2102 0.7826
-1 -16 -23 -0.2690 0.8875
-1 -16 -21 1.6587 0.7685
-1 -16 -19 -0.4722 -1.5903
-1 -16 -17 1.0661 1.1601
-1 -16 -15 1.7939 -5.7260
-1 -16 -13 1.3286 -0.7818
-1 -16 -11 1.4994 3.0620
-1 -16 -9 -0.9186 0.3517
-1 -16 -7 -0.5632 1.6550
-1 -16 -5 1.4270 0.4558
-1 -16 -3 -0.8917 -0.2776
-1 -16 -1 -1.4977 2.0670
-1 -15 -38 -5.8101 -1.0116
-1 -15 -36 -1.5277 -1.1198
-1 -15 -34 0.6926 3.6741
-1 -15 -32 2.7934 2.2017
-1 -15 -30 4.9050 -0.3555
-1 -15 -28 1.5076 1.6717
-1 -15 -26 11.4533 -1.5143
-1 -15 -24 0.7275 0.3035
-1 -15 -22 1.2316 -0.2839
-1 -15 -20 3.0035 -0.5714
-1 -15 -18 -3.5575 -0.2784
-1 -15 -16 -4.9738 -1.5360
-1 -15 -14 -0.3851 -2.1840
-1 -15 -12 -1.6895 -3.2748
-1 -15 -10 2.6068 -1.0365
-1 -15 -8 -2.4026 -0.1302
-1 -15 -6 -0.1042 1.0261
-1 -15 -4 -1.0952 5.1682
-1 -15 -2 4.0166 3.6654
-1 -14 -41 1.8127 -0.1408
-1 -14 -39 2.4039 4.6870
-1 -14 -37 0.7654 4.3887
-1 -14 -35 0.0081 -2.4686
-1 -14 -33 1.1037 1.0950
-1 -14 -31 2.8714 6.3096
-1 -14 -29 1.9100 -5.8191
-1 -14 -27 4.5623 -3.6905
-1 -14 -25 -13.6624 -4.1406
-1 -14 -23 1.8146 2.4369
-1 -14 -21 9.4216 0.0680
-1 -14 -19 2.4445 -4.5250
-1 -14 -17 -3.4219 -1.0473
-1 -14 -15 3.0172 9.3473
-1 -14 -13 2.9759 -1.1174
-1 -14 -11 6.6114 2.7834
-1 -14 -9 2.6801 -1.2930
-1 -14 -7 -6.8698 -1.4994
-1 -14 -5 -2.6913 1.5933
-1 -14 -3 -3.2797 -1.5261
-1 -14 -1 1.6448 2.6546
-1 -13 -44 -9.3168 -1.8764
-1 -13 -42 -4.2494 -0.7220
-1 -13 -40 3.9336 -2.3569
-1 -13 -38 6.0269 1.2852
-1 -13 -36 -7.2762 -7.8491
-1 -13 -34 2.8456 -7.2273
-1 -13 -32 0.3339 7.3957
-1 -13 -30 13.3136 0.0785
-1 -13 -28 -4.3775 -9.8497
-1 -13 -26 8.3348 -6.7622
-1 -13 -24 -0.5219 -0.5626
-1 -13 -22 3.5482 2.1509
-1 -13 -20 -4.5418 3.7802
-1 -13 -18 4.4322 6.7119
-1 -13 -16 -2.7542 2.8994
-1 -13 -14 0.7221 -2.5714
-1 -13 -12 -8.6868 -5.8937
-1 -13 -10 -2.2497 -1.0758
-1 -13 -8 -4.3660 0.4792
-1 -13 -6 -3.6938 1.2288
-1 -13 -4 1.8224 2.0799
-1 -13 -2 -7.8866 -0.2333
-1 -12 -47 -1.1404 2.3465
-1 -12 -45 1.9937 2.8653
-1 -12 -43 1.2333 -2.0915
-1 -12 -41 -1.4155 -1.3335
-1 -12 -39 -4.8125 1.5137
-1 -12 -37 -3.5849 8.6408
-1 -12 -35 4.0518 -4.9502
-1 -12 -33 -11.9479 -2.5114
-1 -12 -31 -10.9989 -2.1717
-1 -12 -29 -0.8178 -7.8634
-1 -12 -27 16.4492 -7.0564
-1 -12 -25 -8.8103 1.5610
-1 -12 -23 -6.1995 -1.0212
-1 -12 -21 -2.8674 13.5716
-1 -12 -19 -4.5159 0.3126
-1 -12 -17 3.1170 -11.1192
-1 -12 -15 0.8530 1.4837
-1 -12 -13 1.9399 -3.6241
-1 -12 -11 5.3461 -5.5204
-1 -12 -9 11.4009 13.5778
-1 -12 -7 3.1393 1.5271
-1 -12 -5 -3.3854 11.0817
-1 -12 -3 -7.1802 -5.9362
-1 -12 -1 -10.4491 -6.5776
-1 -11 -50 1.6690 10.5449
-1 -11 -48 2.2579 -6.2157
-1 -11 -46 7.2510 0.4246
-1 -11 -44 -1.4277 1.4678
-1 -11 -42 2.1582 2.9974
-1 -11 -40 3.4088 -0.1435
-1 -11 -38 -0.7937 -2.1040
-1 -11 -36 -15.3731 -24.4665
-1 -11 -34 5.7632 1.9259
-1 -11 -32 17.2816 8.5879
-1 -11 -30 3.6580 4.8463
-1 -11 -28 -4.7021 -6.6449
-1 -11 -26 0.8897 -8.1935
-1 -11 -24 -9.5614 -8.3495
-1 -11 -22 -1.4718 -7.1131
-1 -11 -20 7.0237 7.0547
-1 -11 -18 -3.5863 1.8907
-1 -11 -16 -4.3823 2.2681
-1 -11 -14 -9.5070 -1.6915
-1 -11 -12 1.6554 -3.3212
-1 -11 -10 -3.6990 0.3006
-1 -11 -8 16.0946 9.1349
-1 -11 -6 -2.3441 5.9302
-1 -11 -4 7.8216 -12.7464
-1 -11 -2 -12.7295 -3.0000
-1 -10 -51 1.5204 5.2274
-1 -10 -49 -2.2156 4.5154
-1 -10 -47 3.3129 1.3146
-1 -10 -45 -3.8148 1.0190
-1 -10 -43 -2.2658 -3.2800
-1 -10 -41 4.3917 -1.3407
-1 -10 -39 -0.8495 -6.8750
-1 -10 -37 -0.9264 10.7922
-1 -10 -35 -8.2750 12.7772
-1 -10 -33 4.0050 -4.2956
-1 -10 -31 4.8568 -11.8855
-1 -10 -29 11.2227 -8.2250
-1 -10 -27 7.9422 -3.1018
-1 -10 -25 -12.7603 20.3731
-1 -10 -23 10.7675 -8.0943
-1 -10 -21 12.3842 4.7503
-1 -10 -19 -14.0817 -5.9494
-1 -10 -17 -10.6201 -0.3568
-1 -10 -15 -1.2042 1.9130
-1 -10 -13 7.9925 -8.4345
-1 -10 -11 -7.4195 -3.0311
-1 -10 -9 -3.6824 -1.2916
-1 -10 -7 -0.1870 4.0019
-1 -10 -5 -4.2461 -6.4422
-1 -10 -3 -0.8875 -7.1468
-1 -10 -1 -0.9597 -12.6476
-1 -9 -54 -5.4920 -1.4555
-1 -9 -52 7.1617 1.0112
-1 -9 -50 0.2867 0.8094
-1 -9 -48 8.8520 -1.6982
-1 -9 -46 9.3415 1.5389
-1 -9 -44 -9.6979 -5.4646
-1 -9 -42 6.1516 -14.9285
-1 -9 -40 0.7329 -3.1681
-1 -9 -38 -0.9943 -0.7491
-1 -9 -36 10.9504 -0.7145
-1 -9 -34 6.3769 4.1475
-1 -9 -32 -14.7956 -1.1953
-1 -9 -30 -5.5713 14.8465
-1 -9 -28 8.1709 -18.5913
-1 -9 -26 -13.3209 13.2185
-1 -9 -24 -2.7588 -5.1439
-1 -9 -22 -15.1534 -3.4704
-1 -9 -20 3.4332 1.6744
-1 -9 -18 -3.7768 -10.7647
-1 -9 -16 -4.3217 -11.3848
-1 -9 -14 5.4594 3.7357
-1 -9 -12 26.7075 11.0746
-1 -9 -10 16.9148 -0.0797
-1 -9 -8 10.5251 14.3941
-1 -9 -6 -7.4690 8.3562
-1 -9 -4 -2.4354 0.1783
-1 -9 -2 19.2211 -15.8554
-1 -8 -55 -4.7663 5.7077
-1 -8 -53 -0.7854 0.9096
-1 -8 -51 -0.3016 2.0756
-1 -8 -49 2.6722 1.2368
-1 -8 -47 -1.4262 -5.0544
-1 -8 -45 -1.2207 -12.7146
-1 -8 -43 -1.3741 -7.0849
-1 -8 -41 -3.9932 -10.1005
-1 -8 -39 6.0341 3.8073
-1 -8 -37 1.1815 -1.5685
-1 -8 -35 -5.2820 3.2555
-1 -8 -33 9.8604 -12.0179
-1 -8 -31 6.7802 10.9442
-1 -8 -29 -6.7036 -12.6741
-1 -8 -27 -2.4774 21.2341
-1 -8 -25 6.2270 -1.9244
-1 -8 -23 -1.0261 -10.8144
-1 -8 -21 1.4290 30.0307
-1 -8 -19 -8.7344 -8.8501
-1 -8 -17 -14.7068 17.4871
-1 -8 -15 -23.8938 -7.9900
-1 -8 -13 6.1124 19.6739
-1 -8 -11 -18.0712 -10.1705
-1 -8 -9 7.8028 4.9026
-1 -8 -7 -2.7488 -14.5179
-1 -8 -5 -36.3465 -17.1591
-1 -8 -3 33.4383 27.6427
-1 -8 -1 18.1134 -16.0285
-1 -7 -56 -2.8636 -2.2390
-1 -7 -54 -1.9143 2.2094
-1 -7 -52 10.1791 7.0872
-1 -7 -50 1.0334 -6.2969
-1 -7 -48 -3.3097 3.1826
-1 -7 -46 -2.3022 2.8540
-1 -7 -44 -0.3205 0.9792
-1 -7 -42 8.9361 -10.4730
-1 -7 -40 -14.7803 5.5015
-1 -7 -38 6.7504 6.1183
-1 -7 -36 -3.2138 -2.8190
-1 -7 -34 5.3843 -3.9530
-1 -7 -32 -3.9457 2.7484
-1 -7 -30 4.9086 -14.9742
-1 -7 -28 -4.8978 -12.5599
-1 -7 -26 -5.5190 7.1825
-1 -7 -24 16.1790 14.7392
-1 -7 -22 2.5938 14.9374
-1 -7 -20 5.1558 -0.5213
-1 -7 -18 -13.1960 18.1141
-1 -7 -16 19.9586 -4.2685
-1 -7 -14 16.6420 14.8667
-1 -7 -12 2.4982 -3.9751
-1 -7 -10 -20.3674 4.6980
-1 -7 -8 1.6762 -2.2811
-1 -7 -6 -15.7648 28.7729
-1 -7 -4 23.2182 -31.0578
-1 -7 -2 -19.3269 -24.7837
-1 -6 -57 0.2949 -1.7567
-1 -6 -55 -0.3395 0.1681
-1 -6 -53 5.7665 5.9400
-1 -6 -51 2.6465 1.3822
-1 -6 -49 1.1884 -4.5793
-1 -6 -47 -6.8747 2.7312
-1 -6 -45 0.4323 -8.6792
-1 -6 -43 -3.4924 5.3056
-1 -6 -41 -9.7820 0.4712
-1 -6 -39 -2.2748 -9.9035
-1 -6 -37 -2.6062 -6.2828
-1 -6 -35 -3.8926 -0.3927
-1 -6 -33 -0.6948 -7.2105
-1 -6 -31 -9.9889 0.6192
-1 -6 -29 -3.4095 7.0002
-1 -6 -27 -3.2132 -0.7662
-1 -6 -25 29.5807 -5.1570
-1 -6 -23 2.9834 8.2601
-1 -6 -21 -59.0193 -28.4601
-1 -6 -19 7.4686 2.9095
-1 -6 -17 -26.4532 -29.8091
-1 -6 -15 -18.8759 8.4252
-1 -6 -13 25.7270 38.1174
-1 -6 -11 -25.5127 -55.6514
-1 -6 -9 78.9393 -19.3679
-1 -6 -7 -73.2920 -36.9550
-1 -6 -5 -39.3857 -5.0546
-1 -6 -3 -4.8467 5.9079
-1 -6 -1 28.0786 -12.3987
-1 -5 -58 0.3761 -1.2324
-1 -5 -56 -1.1893 -1.3937
-1 -5 -54 -1.9767 2.1878
-1 -5 -52 3.1349 3.8998
-1 -5 -50 -3.4224 4.7333
-1 -5 -48 -2.2223 3.7479
-1 -5 -46 -1.4170 -8.7214
-1 -5 -44 -0.7054 -5.1531
-1 -5 -42 0.0516 9.8182
-1 -5 -40 11.4570 -7.7032
-1 -5 -38 -12.8772 -2.1674
-1 -5 -36 3.0601 -1.0263
-1 -5 -34 -5.9169 3.6552
-1 -5 -32 -30.8842 -0.3646
-1 -5 -30 6.0812 14.4787
-1 -5 -28 10.4440 1.3237
-1 -5 -26 -18.2394 4.9510
-1 -5 -24 -9.4488 -11.4353
-1 -5 -22 -10.7010 -22.3488
-1 -5 -20 -8.6044 11.2734
-1 -5 -18 -17.6982 3.5382
-1 -5 -16 -5.3143 -7.0236
-1 -5 -14 -21.7509 8.0359
-1 -5 -12 -15.3642 5.8991
-1 -5 -10 -0.4221 -24.3137
-1 -5 -8 32.3873 29.1874
-1 -5 -6 53.9835 0.0446
-1 -5 -4 8.3879 44.5524
-1 -5 -2 19.6595 45.6073
-1 -4 -59 1.8315 -4.6404
-1 -4 -57 -0.7697 0.7838
-1 -4 -55 -0.0026 -1.7282
-1 -4 -53 2.6779 1.6393
-1 -4 -51 8.3958 -1.2891
-1 -4 -49 -0.3849 3.7624
-1 -4 -47 3.3729 -6.7654
-1 -4 -45 6.0812 5.3489
-1 -4 -43 -5.7556 -3.3285
-1 -4 -41 -9.4556 -0.0133
-1 -4 -39 -0.7054 3.5994
-1 -4 -37 -9.6770 -6.6576
-1 -4 -35 -9.4113 5.3324
-1 -4 -33 -1.1032 -0.9087
-1 -4 -31 4.7147 10.3927
-1 -4 -29 -13.6950 -8.8360
-1 -4 -27 -0.2125 27.8499
-1 -4 -25 -2.1141 -35.1922
-1 -4 -23 -31.5603 7.6135
-1 -4 -21 -45.9489 -17.7432
-1 -4 -19 -30.9663 -1.5668
-1 -4 -17 -52.4240 25.9838
-1 -4 -15 71.6408 -3.9618
-1 -4 -13 60.5402 86.7847
-1 -4 -11 15.5840 -8.3490
-1 -4 -7 -203.5282 -55.3428
-1 -4 -5 13.2124 31.8623
-1 -4 -3 -27.7696 21.7003
-1 -4 -1 -73.6200 86.2764
-1 -3 -60 1.8700 -0.0297
-1 -3 -58 -0.6573 -0.4664
-1 -3 -56 0.0837 2.5064
-1 -3 -54 -5.7651 3.8270
-1 -3 -52 -4.0792 -1.5158
-1 -3 -50 1.0316 3.2356
-1 -3 -48 2.9006 -1.6705
-1 -3 -46 -2.8599 -3.7361
-1 -3 -44 7.6453 8.0483
-1 -3 -42 -5.8556 -8.3308
-1 -3 -40 -1.4061 9.1036
-1 -3 -38 0.4866 -9.1353
-1 -3 -36 -0.6422 -10.3375
-1 -3 -34 1.1605 -8.8490
-1 -3 -32 -6.8972 6.8201
-1 -3 -30 -5.3383 -5.4574
-1 -3 -28 -2.2047 12.6584
-1 -3 -26 28.6990 -1.2647
-1 -3 -24 4.6791 -5.6980
-1 -3 -22 -9.8964 15.8452
-1 -3 -20 18.4474 9.9970
-1 -3 -18 17.5898 -14.5411
-1 -3 -16 -3.0187 -27.2265
-1 -3 -14 -35.8110 1.0442
-1 -3 -12 -18.9332 -15.8576
-1 -3 -10 -68.0372 70.4792
-1 -3 -6 105.0528 -26.6317
-1 -3 -4 16.5772 -0.1410
-1 -3 -2 9.2318 -79.1720
-1 -2 -61 -1.3097 0.8038
-1 -2 -59 -2.5341 -1.2931
-1 -2 -57 0.8310 0.3491
-1 -2 -55 2.4980 -3.1814
-1 -2 -53 -3.8344 0.5611
-1 -2 -51 -0.8370 1.2262
-1 -2 -49 6.7925 4.4592
-1 -2 -47 0.8422 1.4465
-1 -2 -45 -0.2247 -4.7157
-1 -2 -43 -8.9328 8.0334
-1 -2 -41 -7.7695 11.3169
-1 -2 -39 -17.1633 13.8942
-1 -2 -37 13.5579 -0.8532
-1 -2 -35 -2.2813 1.8855
-1 -2 -33 7.0168 13.3484
-1 -2 -31 4.5359 -9.8511
-1 -2 -29 7.6831 16.7065
-1 -2 -27 -12.8001 -3.5803
-1 -2 -25 -2.5312 6.0765
-1 -2 -23 29.0875 0.8959
-1 -2 -21 -38.5340 -43.5829
-1 -2 -19 -0.2326 24.9965
-1 -2 -17 28.0054 22.4158
-1 -2 -15 10.7469 -45.0642
-1 -2 -11 69.4395 -40.9121
-1 -2 -9 18.3441 30.3321
-1 -2 -7 77.9661 10.2328
-1 -2 -5 -168.0498 -232.9036
-1 -2 -3 -105.8024 344.7169
-1 -2 -1 -251.9278 134.2828
-1 -1 -56 3.8036 -7.3784
-1 -1 -54 -8.5749 2.7576
-1 -1 -52 -2.2346 1.0241
-1 -1 -50 6.2852 -1.0298
-1 -1 -48 4.1702 3.0065
-1 -1 -46 15.6607 -5.0302
-1 -1 -44 2.3031 6.7889
-1 -1 -42 0.5625 13.2435
-1 -1 -40 8.9175 -5.9250
-1 -1 -38 -3.5511 -6.1541
-1 -1 -36 8.6035 -12.1359
-1 -1 -34 0.2354 -0.0506
-1 -1 -32 -17.9434 17.7318
-1 -1 -30 -5.6820 14.1870
-1 -1 -28 34.9576 35.6137
-1 -1 -26 -40.0199 1.1717
-1 -1 -24 21.7071 -47.0533
-1 -1 -22 38.4706 -0.9452
-1 -1 -20 76.3206 0.0740
-1 -1 -18 -14.2328 17.7084
-1 -1 -16 -8.6699 -10.9709
-1 -1 -12 -10.3945 -37.7274
-1 -1 -10 -17.2133 -30.2368
-1 -1 -8 13.3221 23.1684
-1 -1 -6 119.2475 53.0840
-1 -1 -2 -24.5638 -20.2091
0 -19 -3 0.7588 0.8274
0 -19 -1 6.9561 1.9651
0 -18 -20 3.7231 -0.1483
0 -18 -18 0.9348 1.9860
0 -18 -16 0.2076 0.8563
0 -18 -14 1.6750 -1.9770
0 -18 -12 -1.5739 -0.5527
0 -18 -10 0.5824 1.3314
0 -18 -8 2.1791 0.6884
0 -18 -6 -0.5582 -0.2415
0 -18 -4 0.0976 3.5942
0 -18 -2 1.2945 2.4616
0 -17 -27 3.1356 2.0719
0 -17 -25 1.0474 -0.4711
0 -17 -23 -0.5154 -0.3057
0 -17 -21 0.4756 -0.0363
0 -17 -19 0.0280 -1.0006
0 -17 -17 0.5874 0.6039
0 -17 -15 -0.5241 -1.6104
0 -17 -13 -0.2145 1.0300
0 -17 -11 4.2390 2.7150
0 -17 -9 -1.1261 0.0005
0 -17 -7 -0.8389 -0.5498
0 -17 -5 -0.2137 -0.1607
0 -17 -3 0.0985 0.7722
0 -17 -1 -0.4464 -1.7365
0 -16 -32 3.4124 1.1298
0 -16 -30 -2.1225 -2.4713
0 -16 -28 -0.5450 1.6616
0 -16 -26 -2.3962 2.9175
0 -16 -24 -0.3896 -1.6024
0 -16 -22 -3.0863 -0.8469
0 -16 -20 1.0053 2.6016
0 -16 -18 5.9998 2.0136
0 -16 -16 2.6549 -0.2440
0 -16 -14 -2.5250 1.1127
0 -16 -12 3.3551 1.2675
0 -16 -10 1.3880 -3.9416
0 -16 -8 0.8192 6.7075
0 -16 -6 2.0380 -0.9823
0 -16 -4 1.2447 -1.3559
0 -16 -2 -3.2335 -4.7339
0 -15 -37 -0.3769 -0.1997
0 -15 -35 0.3871 -0.0674
0 -15 -33 5.1886 -2.3140
0 -15 -31 1.2593 0.0197
0 -15 -29 0.1459 -0.2607
0 -15 -27 3.4275 5.1335
0 -15 -25 -2.3082 1.4404
0 -15 -23 1.8887 0.5403
0 -15 -21 3.9616 -5.2169
0 -15 -19 -3.9463 1.2378
0 -15 -17 2.1285 -4.8399
0 -15 -15 0.8848 4.0171
0 -15 -13 0.6347 -0.9991
0 -15 -11 -2.1573 -0.2533
0 -15 -9 0.3657 1.1996
0 -15 -7 -0.1051 -2.1990
0 -15 -5 -0.8316 -0.9850
0 -15 -3 -2.6987 -6.3196
0 -15 -1 -2.9895 5.1055
0 -14 -40 2.1241 2.3603
0 -14 -38 -3.3124 1.1844
0 -14 -36 -0.9432 -0.4748
0 -14 -34 0.1173 -1.3806
0 -14 -32 -1.2944 -3.6476
0 -14 -30 -3.7476 -9.2419
0 -14 -28 -14.8212 -5.2612
0 -14 -26 -3.3081 5.4821
0 -14 -24 0.1589 4.0297
0 -14 -22 -6.0407 -1.0466
0 -14 -20 1.2935 0.5209
0 -14 -18 -4.9042 5.1130
0 -14 -16 6.7391 8.9557
0 -14 -14 11.0893 -3.3824
0 -14 -12 -7.4222 -3.4294
0 -14 -10 5.3168 4.1861
0 -14 -8 2.6213 3.0286
0 -14 -6 -1.1478 7.5238
0 -14 -4 -0.6711 5.1872
0 -14 -2 -9.5670 1.9501
0 -13 -45 -1.0882 0.0884
0 -13 -43 3.7178 3.9677
0 -13 -41 2.1262 -0.8045
0 -13 -39 1.5187 -0.5460
0 -13 -37 -5.4824 -0.6815
0 -13 -35 -4.8353 -4.4444
0 -13 -33 -0.9250 -0.3952
0 -13 -31 -5.0595 -8.7996
0 -13 -29 -8.2517 -4.8452
0 -13 -27 7.6054 -0.8242
0 -13 -25 -0.6532 -7.2985
0 -13 -23 0.1846 4.9705
0 -13 -21 6.5096 3.2815
0 -13 -19 4.3504 0.8968
0 -13 -17 -1.1539 -0.8994
0 -13 -15 3.4087 4.8886
0 -13 -13 1.0456 -0.4203
0 -13 -11 0.2876 1.3737
0 -13 -9 2.3699 1.3282
0 -13 -7 -1.4513 -0.4705
0 -13 -5 -2.6928 0.2372
0 -13 -3 -1.1151 0.4583
0 -13 -1 -1.4365 -0.7913
0 -12 -46 7.7940 -3.0967
0 -12 -44 2.1130 -2.0564
0 -12 -42 -13.8552 -7.5150
0 -12 -40 -2.4795 -6.2370
0 -12 -38 -0.0755 4.1235
0 -12 -36 9.7958 -8.5724
0 -12 -34 -4.3094 -4.0989
0 -12 -32 -18.2331 13.8080
0 -12 -30 0.0479 -5.6749
0 -12 -28 4.6221 2.4217
0 -12 -26 3.7467 2.7646
0 -12 -24 -12.7466 1.2182
0 -12 -22 -4.2413 0.9004
0 -12 -20 -0.0446 5.3976
0 -12 -18 2.6558 -2.6051
0 -12 -16 1.1599 -1.6035
0 -12 -14 7.4590 -2.8419
0 -12 -12 -21.8392 -0.7156
0 -12 -10 -4.2757 3.3933
0 -12 -8 0.2967 -2.5980
0 -12 -6 -7.3535 -12.8523
0 -12 -4 3.0652 -3.3020
0 -12 -2 3.5226 10.6912
0 -11 -49 -0.1572 3.6267
0 -11 -47 -0.1602 1.3506
0 -11 -45 2.3593 2.4975
0 -11 -43 2.0108 0.2239
0 -11 -41 0.7565 -0.3326
0 -11 -39 3.9201 -2.3193
0 -11 -37 0.3826 2.6416
0 -11 -35 -1.5257 -7.5962
0 -11 -33 4.2976 18.5204
0 -11 -31 -8.2351 -13.5613
0 -11 -29 -2.1354 -1.9472
0 -11 -27 3.5939 2.5216
0 -11 -25 -4.0595 4.8083
0 -11 -23 -2.3446 -3.1275
0 -11 -21 -3.7702 0.1377
0 -11 -19 -6.3082 -0.5512
0 -11 -17 -3.8784 3.1172
0 -11 -15 0.9329 -2.1307
0 -11 -13 1.3177 0.2611
0 -11 -11 -9.4094 -0.3190
0 -11 -9 -1.7758 1.3647
0 -11 -7 -5.6805 -0.2984
0 -11 -5 -2.9247 1.8252
0 -11 -3 5.4991 -1.2056
0 -11 -1 0.2071 0.2214
0 -10 -52 -2.9531 1.2955
0 -10 -50 -2.1478 1.4625
0 -10 -48 6.1638 -3.7192
0 -10 -46 -4.7155 -5.2542
0 -10 -44 3.6691 -0.4550
0 -10 -42 -5.8870 -12.8961
0 -10 -40 4.1718 -4.8649
0 -10 -38 2.8575 4.9144
0 -10 -36 1.7019 -21.7701
0 -10 -34 7.7871 1.2310
0 -10 -32 0.4787 -11.5514
0 -10 -30 -1.5942 11.4401
0 -10 -28 3.9378 17.0256
0 -10 -26 -0.8844 -8.3776
0 -10 -24 13.0873 5.2416
0 -10 -22 7.2787 -26.2533
0 -10 -20 19.1905 9.0240
0 -10 -18 7.0156 3.3146
0 -10 -16 2.4329 -2.2026
0 -10 -14 -17.8993 -9.5240
0 -10 -12 9.0987 16.5260
0 -10 -10 6.2088 -11.4310
0 -10 -8 8.8123 30.4349
0 -10 -6 2.3596 -5.2923
0 -10 -4 3.4758 -4.8833
0 -10 -2 23.3994 -29.8386
0 -9 -53 -0.0789 -3.2822
0 -9 -51 0.3729 0.5226
0 -9 -49 -0.9783 0.7818
0 -9 -47 2.2457 -1.2977
0 -9 -45 -1.3473 -1.8718
0 -9 -43 2.6502 -0.1345
0 -9 -41 -0.1952 5.6269
0 -9 -39 8.2943 9.2589
0 -9 -37 -8.0490 -13.3884
0 -9 -35 -7.9986 19.8928
0 -9 -33 -1.0638 1.1892
0 -9 -31 -4.1844 -4.5911
0 -9 -29 5.4566 9.0963
0 -9 -27 -10.0522 -4.4473
0 -9 -25 -7.3714 -0.4976
0 -9 -23 6.4101 -2.7090
0 -9 -21 -1.4368 -7.2701
0 -9 -19 -0.2121 1.5731
0 -9 -17 -2.9407 6.0941
0 -9 -15 2.5154 2.1225
0 -9 -13 2.6744 -1.2795
0 -9 -11 -29.3270 3.9635
0 -9 -9 -20.3535 -20.3623
0 -9 -7 2.0084 10.6114
0 -9 -5 -6.5249 6.4028
0 -9 -3 -3.2121 1.4106
0 -9 -1 -0.7896 -0.7864
0 -8 -56 -0.9886 -6.1623
0 -8 -54 3.0620 -1.0185
0 -8 -52 -5.7657 -8.1842
0 -8 -50 -1.9540 -5.2812
0 -8 -48 -4.8025 -2.3108
0 -8 -46 4.2052 4.9141
0 -8 -44 8.8454 8.3472
0 -8 -42 -3.6787 -2.9805
0 -8 -40 -7.9102 -1.8194
0 -8 -38 7.4592 -5.3993
0 -8 -36 1.7006 -2.4436
0 -8 -34 6.6350 2.8680
0 -8 -32 -48.7441 11.2847
0 -8 -30 0.5199 -0.3508
0 -8 -28 -27.7910 10.4552
0 -8 -26 -9.8719 -7.7842
0 -8 -24 -1.7004 9.9511
0 -8 -22 -3.4126 -13.5580
0 -8 -20 5.6012 -7.6682
0 -8 -18 -4.0116 -21.1275
0 -8 -16 -11.8948 15.4749
0 -8 -14 41.0036 -9.3802
0 -8 -12 6.6549 0.8821
0 -8 -10 -11.7202 6.2230
0 -8 -8 14.3522 57.1498
0 -8 -6 -28.3680 13.3804
0 -8 -4 17.0612 -1.2845
0 -8 -2 -5.1951 -14.4310
0 -7 -57 2.8572 0.0954
0 -7 -55 -0.4843 0.2297
0 -7 -53 2.7479 -2.4333
0 -7 -51 1.6709 -0.2111
0 -7 -49 0.5736 3.5909
0 -7 -47 -8.7265 0.8758
0 -7 -45 4.1755 -2.0235
0 -7 -43 -3.0575 -1.2740
0 -7 -41 2.1937 -9.7649
0 -7 -39 -20.7759 -1.2214
0 -7 -37 -2.3775 -1.3071
0 -7 -35 -3.6880 4.0019
0 -7 -33 0.8211 -2.3606
0 -7 -31 4.2283 2.2355
0 -7 -29 -1.3499 -2.3723
0 -7 -27 6.1421 7.8336
0 -7 -25 -19.6390 -0.9094
0 -7 -23 -6.6005 -17.9590
0 -7 -21 -3.4429 -4.4200
0 -7 -19 -7.1064 0.2435
0 -7 -17 7.6920 8.6254
0 -7 -15 9.4293 3.3685
0 -7 -13 -4.6885 1.3361
0 -7 -11 7.0445 10.3054
0 -7 -9 3.8212 -29.9904
0 -7 -7 4.8782 17.5680
0 -7 -5 -13.5845 8.0230
0 -7 -3 6.3401 1.3985
0 -7 -1 -4.2866 6.2024
0 -6 -58 -1.7520 1.9466
0 -6 -56 1.7113 0.4266
0 -6 -54 5.8247 -6.3103
0 -6 -52 14.0009 -9.1097
0 -6 -50 -3.6103 -2.7431
0 -6 -48 7.0297 -5.6126
0 -6 -46 4.0229 3.8303
0 -6 -44 -0.1204 -2.0290
0 -6 -42 2.6215 0.9127
0 -6 -40 -11.7037 4.4416
0 -6 -38 -6.5143 6.1379
0 -6 -36 17.0227 20.7241
0 -6 -34 -9.0850 6.9018
0 -6 -32 -10.8376 -4.8810
0 -6 -30 -15.9765 -2.1336
0 -6 -28 0.4998 -15.9179
0 -6 -26 -7.0708 -17.0811
0 -6 -24 -0.0522 -4.7283
0 -6 -22 14.0681 -23.0271
0 -6 -20 -0.3766 22.5705
0 -6 -18 15.0544 1.3007
0 -6 -16 36.1685 -3.8693
0 -6 -14 -73.3525 1.0096
0 -6 -12 15.5189 19.3813
0 -6 -10 -1.3670 -8.6910
0 -6 -8 58.5230 40.8539
0 -6 -6 12.9536 -12.4212
0 -6 -4 -8.7325 -22.9927
0 -6 -2 -144.2182 24.0096
0 -5 -59 1.4288 0.9661
0 -5 -57 -0.1726 -1.9482
0 -5 -55 -0.7171 0.4040
0 -5 -53 -0.0386 -0.8006
0 -5 -51 0.5981 -0.9465
0 -5 -49 2.4339 -2.3960
0 -5 -47 -2.0876 -1.0330
0 -5 -45 5.9852 3.7169
0 -5 -43 -0.8236 9.5499
0 -5 -41 0.2030 3.3106
0 -5 -39 -3.1863 -3.5251
0 -5 -37 -6.8229 -12.7489
0 -5 -35 -1.7024 -0.5624
0 -5 -33 -11.2777 0.6785
0 -5 -31 14.6340 10.1209
0 -5 -29 -2.2929 -10.0088
0 -5 -27 -11.0897 17.8950
0 -5 -25 12.0893 -2.7204
0 -5 -23 0.7186 -6.4596
0 -5 -21 0.3173 -12.3552
0 -5 -19 3.7803 -9.9079
0 -5 -17 -6.0544 -27.2138
0 -5 -15 -2.5221 -11.4844
0 -5 -13 -7.1054 37.3952
0 -5 -11 -21.6620 11.1126
0 -5 -9 -7.5109 13.8378
0 -5 -7 -10.3404 -0.4626
0 -5 -5 -11.3430 14.7303
0 -5 -3 -12.9366 -13.1708
0 -5 -1 17.1112 -10.0819
0 -4 -60 -2.5769 1.7717
0 -4 -58 0.7706 -1.3036
0 -4 -56 -0.9887 0.0224
0 -4 -54 5.4044 -1.2436
0 -4 -52 1.4442 -2.8365
0 -4 -50 -1.2649 -5.7794
0 -4 -48 0.7311 -3.1646
0 -4 -46 8.2983 -1.7294
0 -4 -44 -17.3233 -1.8406
0 -4 -42 -2.0667 -10.5743
0 -4 -40 -1.9743 -0.2260
0 -4 -38 -0.9289 7.3475
0 -4 -36 9.4828 20.1722
0 -4 -34 -1.6843 23.3109
0 -4 -32 37.9250 -0.6224
0 -4 -30 3.9788 -6.3380
0 -4 -28 8.0013 6.8700
0 -4 -26 -14.5596 20.1899
0 -4 -24 -10.8017 -29.5862
0 -4 -22 18.2582 -1.2899
0 -4 -20 30.9757 8.4641
0 -4 -18 -43.3242 -4.4321
0 -4 -16 -51.3893 49.2053
0 -4 -14 -59.2343 -13.4636
0 -4 -12 97.4335 114.1091
0 -4 -10 103.2750 -37.7466
0 -4 -8 -10.0207 -8.8362
0 -4 -6 -5.5898 -119.4490
0 -4 -2 -42.9050 100.7127
0 -3 -61 -3.2580 1.1039
0 -3 -59 -0.7682 -0.8398
0 -3 -57 0.3475 0.7844
0 -3 -55 2.1560 -1.1592
0 -3 -53 -5.7298 -1.4511
0 -3 -51 -1.8844 1.4808
0 -3 -49 0.6563 -2.9770
0 -3 -47 1.0962 6.8481
0 -3 -45 6.1768 -1.4941
0 -3 -43 3.2368 2.4284
0 -3 -41 -1.1176 1.8198
0 -3 -39 2.1696 1.6155
0 -3 -37 7.2834 9.4013
0 -3 -35 -3.0954 -12.2653
0 -3 -33 10.0867 6.3545
0 -3 -31 7.3020 -11.0008
0 -3 -29 2.1993 -2.6499
0 -3 -27 -8.4069 -11.4887
0 -3 -25 1.9339 11.0008
0 -3 -23 13.1612 14.2327
0 -3 -21 -9.5406 -1.0609
0 -3 -19 11.3577 -20.4326
0 -3 -17 4.3749 16.1597
0 -3 -15 0.7530 40.4547
0 -3 -13 -25.0271 -13.8337
0 -3 -11 17.5802 13.8730
0 -3 -9 24.9459 -12.2485
0 -3 -7 -8.9437 -17.0117
0 -3 -5 -1.4386 -17.3031
0 -3 -3 3.4736 15.1473
0 -3 -1 1.6963 -10.7388
0 -2 -60 0.9216 -2.0003
0 -2 -58 -0.7159 2.4509
0 -2 -56 0.3315 1.4047
0 -2 -54 -3.8515 3.8102
0 -2 -52 10.5487 -0.7746
0 -2 -50 -0.6500 -0.1108
0 -2 -48 -0.9012 -2.7020
0 -2 -46 4.1671 10.6611
0 -2 -44 -1.0145 -9.6984
0 -2 -42 11.3514 1.2703
0 -2 -40 -27.9183 9.8987
0 -2 -38 -9.2039 3.4390
0 -2 -36 16.3194 -3.6013
0 -2 -34 30.8578 2.3470
0 -2 -32 6.6571 -20.7530
0 -2 -30 15.1385 22.8375
0 -2 -28 31.2344 -12.3444
0 -2 -26 -16.9154 -14.0355
0 -2 -24 51.9937 -42.8266
0 -2 -22 -24.6191 -8.5492
0 -2 -20 25.1450 31.7238
0 -2 -18 7.8532 1.2489
0 -2 -16 -1.4593 8.0075
0 -2 -12 6.6824 58.7451
0 -2 -10 38.1128 -136.2561
0 -2 -8 39.6569 -13.6569
0 -2 -6 -20.6457 -187.6131
0 -1 -57 2.2166 -4.4509
0 -1 -55 0.3083 -0.8106
0 -1 -53 -0.9757 -0.0015
0 -1 -51 -0.5892 -0.3748
0 -1 -49 0.8437 -2.6846
0 -1 -47 -1.0261 0.6262
0 -1 -45 -1.7116 -5.8183
0 -1 -43 -0.2348 -1.2371
0 -1 -41 1.7214 -1.8421
0 -1 -39 3.0837 8.2195
0 -1 -37 -7.1017 -14.5336
0 -1 -35 -2.4148 13.0463
0 -1 -33 2.0059 -7.2148
0 -1 -31 1.6748 -13.3007
0 -1 -29 -9.2711 -0.1885
0 -1 -27 -24.3004 18.0740
0 -1 -25 25.4347 -1.4056
0 -1 -23 -20.7704 33.3956
0 -1 -21 -3.4676 -7.3285
0 -1 -19 -49.6327 10.2166
0 -1 -17 18.2964 -1.9862
0 -1 -15 -6.3286 -52.1314
0 -1 -13 -33.6927 -0.8959
0 -1 -11 -2.1141 9.9424
0 -1 -9 4.1119 28.5654
0 -1 -7 15.6208 -4.2955
0 -1 -5 3.5561 -17.8259
0 -1 -3 -3.2109 5.8803
0 -1 -1 3.7072 10.6015
0 0 -48 2.7362 -1.7538
0 0 -46 25.1732 -1.7629
0 0 -44 -14.3786 -22.0137
0 0 -42 6.3125 -21.2661
0 0 -40 17.1168 -2.8882
0 0 -38 -32.4669 -17.2549
0 0 -36 9.4662 12.7468
0 0 -34 23.2092 6.5777
0 0 -32 12.2701 15.4578
0 0 -30 -44.4741 -39.1804
0 0 -28 24.6773 40.8565
0 0 -26 -37.2047 14.1703
0 0 -24 2.6807 -113.5566
0 0 -22 76.0630 29.7733
0 0 -20 29.0414 -58.5377
0 0 -18 -43.4531 62.8120
0 0 -16 -51.6091 -40.8077
0 0 -12 -44.2503 19.1457
0 0 -2 -52.2482 91.5106
0 0 12 -44.2503 -19.1457
0 0 16 -51.6091 40.8077
0 0 18 -43.4531 -62.8120
0 0 20 29.0414 58.5377
0 0 22 76.0630 -29.7733
0 0 24 2.6807 113.5566
0 0 26 -37.2047 -14.1703
0 0 28 24.6773 -40.8565
0 0 30 -44.4741 39.1804
0 0 32 12.2701 -15.4578
0 0 34 23.2092 -6.5777
0 0 36 9.4662 -12.7468
0 0 38 -32.4669 17.2549
0 0 40 17.1168 2.8882
0 0 42 6.3125 21.2661
0 0 44 -14.3786 22.0137
0 0 46 25.1732 1.7629
0 0 48 2.7362 1.7538
0 0 50 -4.2811 -8.8555
0 0 52 -6.8279 8.3159
0 0 54 15.4826 6.1067
0 0 58 2.4154 -7.8184
0 0 60 -9.4416 6.4495
0 1 1 3.7072 -10.6015
0 1 3 -3.2109 -5.8803
0 1 5 3.5561 17.8259
0 1 7 15.6208 4.2955
0 1 9 4.1119 -28.5654
0 1 11 -2.1141 -9.9424
0 1 13 -33.6927 0.8959
0 1 15 -6.3286 52.1314
0 1 17 18.2964 1.9862
0 1 19 -49.6327 -10.2166
0 1 21 -3.4676 7.3285
0 1 23 -20.7704 -33.3956
0 1 25 25.4347 1.4056
0 1 27 -24.3004 -18.0740
0 1 29 -9.2711 0.1885
0 1 31 1.6748 13.3007
0 1 33 2.0059 7.2148
0 1 35 -2.4148 -13.0463
0 1 37 -7.1017 14.5336
0 1 39 3.0837 -8.2195
0 1 41 1.7214 1.8421
0 1 43 -0.2348 1.2371
0 1 45 -1.7116 5.8183
0 1 47 -1.0261 -0.6262
0 1 49 0.8437 2.6846
0 1 51 -0.5892 0.3748
0 1 53 -0.9757 0.0015
0 1 55 0.3083 0.8106
0 1 57 2.2166 4.4509
0 1 59 0.2570 0.0106
0 1 61 -1.5945 -0.5599
0 2 0 77.0086 -3.1588
0 2 6 -20.6457 187.6131
0 2 8 39.6569 13.6569
0 2 10 38.1128 136.2561
0 2 12 6.6824 -58.7451
0 2 16 -1.4593 -8.0075
0 2 18 7.8532 -1.2489
0 2 20 25.1450 -31.7238
0 2 22 -24.6191 8.5492
0 2 24 51.9937 42.8266
0 2 26 -16.9154 14.0355
0 2 28 31.2344 12.3444
0 2 30 15.1385 -22.8375
0 2 32 6.6571 20.7530
0 2 34 30.8578 -2.3470
0 2 36 16.3194 3.6013
0 2 38 -9.2039 -3.4390
0 2 40 -27.9183 -9.8987
0 2 42 11.3514 -1.2703
0 2 44 -1.0145 9.6984
0 2 46 4.1671 -10.6611
0 2 48 -0.9012 2.7020
0 2 50 -0.6500 0.1108
0 2 52 10.5487 0.7746
0 2 54 -3.8515 -3.8102
0 2 56 0.3315 -1.4047
0 2 58 -0.7159 -2.4509
0 2 60 0.9216 2.0003
0 3 1 1.6963 10.7388
0 3 3 3.4736 -15.1473
0 3 5 -1.4386 17.3031
0 3 7 -8.9437 17.0117
0 3 9 24.9459 12.2485
0 3 11 17.5802 -13.8730
0 3 13 -25.0271 13.8337
0 3 15 0.7530 -40.4547
0 3 17 4.3749 -16.1597
0 3 19 11.3577 20.4326
0 3 21 -9.5406 1.0609
0 3 23 13.1612 -14.2327
0 3 25 1.9339 -11.0008
0 3 27 -8.4069 11.4887
0 3 29 2.1993 2.6499
0 3 31 7.3020 11.0008
0 3 33 10.0867 -6.3545
0 3 35 -3.0954 12.2653
0 3 37 7.2834 -9.4013
0 3 39 2.1696 -1.6155
0 3 41 -1.1176 -1.8198
0 3 43 3.2368 -2.4284
0 3 45 6.1768 1.4941
0 3 47 1.0962 -6.8481
0 3 49 0.6563 2.9770
0 3 51 -1.8844 -1.4808
0 3 53 -5.7298 1.4511
0 3 55 2.1560 1.1592
0 3 57 0.3475 -0.7844
0 3 59 -0.7682 0.8398
0 3 61 -3.2580 -1.1039
0 4 0 -95.6778 -3.0122
0 4 2 -42.9050 -100.7127
0 4 6 -5.5898 119.4490
0 4 8 -10.0207 8.8362
0 4 10 103.2750 37.7466
0 4 12 97.4335 -114.1091
0 4 14 -59.2343 13.4636
0 4 16 -51.3893 -49.2053
0 4 18 -43.3242 4.4321
0 4 20 30.9757 -8.4641
0 4 22 18.2582 1.2899
0 4 24 -10.8017 29.5862
0 4 26 -14.5596 -20.1899
0 4 28 8.0013 -6.8700
0 4 30 3.9788 6.3380
0 4 32 37.9250 0.6224
0 4 34 -1.6843 -23.3109
0 4 36 9.4828 -20.1722
0 4 38 -0.9289 -7.3475
0 4 40 -1.9743 0.2260
0 4 42 -2.0667 10.5743
0 4 44 -17.3233 1.8406
0 4 46 8.2983 1.7294
0 4 48 0.7311 3.1646
0 4 50 -1.2649 5.7794
0 4 52 1.4442 2.8365
0 4 54 5.4044 1.2436
0 4 56 -0.9887 -0.0224
0 4 58 0.7706 1.3036
0 4 60 -2.5769 -1.7717
0 5 1 17.1112 10.0819
0 5 3 -12.9366 13.1708
0 5 5 -11.3430 -14.7303
0 5 7 -10.3404 0.4626
0 5 9 -7.5109 -13.8378
0 5 11 -21.6620 -11.1126
0 5 13 -7.1054 -37.3952
0 5 15 -2.5221 11.4844
0 5 17 -6.0544 27.2138
0 5 19 3.7803 9.9079
0 5 21 0.3173 12.3552
0 5 23 0.7186 6.4596
0 5 25 12.0893 2.7204
0 5 27 -11.0897 -17.8950
0 5 29 -2.2929 10.0088
0 5 31 14.6340 -10.1209
0 5 33 -11.2777 -0.6785
0 5 35 -1.7024 0.5624
0 5 37 -6.8229 12.7489
0 5 39 -3.1863 3.5251
0 5 41 0.2030 -3.3106
0 5 43 -0.8236 -9.5499
0 5 45 5.9852 -3.7169
0 5 47 -2.0876 1.0330
0 5 49 2.4339 2.3960
0 5 51 0.5981 0.9465
0 5 53 -0.0386 0.8006
0 5 55 -0.7171 -0.4040
0 5 57 -0.1726 1.9482
0 5 59 1.4288 -0.9661
0 6 0 15.2312 -2.5442
0 6 2 -144.2182 -24.0096
0 6 4 -8.7325 22.9927
0 6 6 12.9536 12.4212
0 6 8 58.5230 -40.8539
0 6 10 -1.3670 8.6910
0 6 12 15.5189 -19.3813
0 6 14 -73.3525 -1.0096
0 6 16 36.1685 3.8693
0 6 18 15.0544 -1.3007
0 6 20 -0.3766 -22.5705
0 6 22 14.0681 23.0271
0 6 24 -0.0522 4.7283
0 6 26 -7.0708 17.0811
0 6 28 0.4998 15.9179
0 6 30 -15.9765 2.1336
0 6 32 -10.8376 4.8810
0 6 34 -9.0850 -6.9018
0 6 36 17.0227 -20.7241
0 6 38 -6.5143 -6.1379
0 6 40 -11.7037 -4.4416
0 6 42 2.6215 -0.9127
0 6 44 -0.1204 2.0290
0 6 46 4.0229 -3.8303
0 6 48 7.0297 5.6126
0 6 50 -3.6103 2.7431
0 6 52 14.0009 9.1097
0 6 54 5.8247 6.3103
0 6 56 1.7113 -0.4266
0 6 58 -1.7520 -1.9466
0 7 1 -4.2866 -6.2024
0 7 3 6.3401 -1.3985
0 7 5 -13.5845 -8.0230
0 7 7 4.8782 -17.5680
0 7 9 3.8212 29.9904
0 7 11 7.0445 -10.3054
0 7 13 -4.6885 -1.3361
0 7 15 9.4293 -3.3685
0 7 17 7.6920 -8.6254
0 7 19 -7.1064 -0.2435
0 7 21 -3.4429 4.4200
0 7 23 -6.6005 17.9590
0 7 25 -19.6390 0.9094
0 7 27 6.1421 -7.8336
0 7 29 -1.3499 2.3723
0 7 31 4.2283 -2.2355
0 7 33 0.8211 2.3606
0 7 35 -3.6880 -4.0019
0 7 37 -2.3775 1.3071
0 7 39 -20.7759 1.2214
0 7 41 2.1937 9.7649
0 7 43 -3.0575 1.2740
0 7 45 4.1755 2.0235
0 7 47 -8.7265 -0.8758
0 7 49 0.5736 -3.5909
0 7 51 1.6709 0.2111
0 7 53 2.7479 2.4333
0 7 55 -0.4843 -0.2297
0 7 57 2.8572 -0.0954
0 8 0 -6.0153 -1.9739
0 8 2 -5.1951 14.4310
0 8 4 17.0612 1.2845
0 8 6 -28.3680 -13.3804
0 8 8 14.3522 -57.1498
0 8 10 -11.7202 -6.2230
0 8 12 6.6549 -0.8821
0 8 14 41.0036 9.3802
0 8 16 -11.8948 -15.4749
0 8 18 -4.0116 21.1275
0 8 20 5.6012 7.6682
0 8 22 -3.4126 13.5580
0 8 24 -1.7004 -9.9511
0 8 26 -9.8719 7.7842
0 8 28 -27.7910 -10.4552
0 8 30 0.5199 0.3508
0 8 32 -48.7441 -11.2847
0 8 34 6.6350 -2.8680
0 8 36 1.7006 2.4436
0 8 38 7.4592 5.3993
0 8 40 -7.9102 1.8194
0 8 42 -3.6787 2.9805
0 8 44 8.8454 -8.3472
0 8 46 4.2052 -4.9141
0 8 48 -4.8025 2.3108
0 8 50 -1.9540 5.2812
0 8 52 -5.7657 8.1842
0 8 54 3.0620 1.0185
0 8 56 -0.9886 6.1623
0 9 1 -0.7896 0.7864
0 9 3 -3.2121 -1.4106
0 9 5 -6.5249 -6.4028
0 9 7 2.0084 -10.6114
0 9 9 -20.3535 20.3623
0 9 11 -29.3270 -3.9635
0 9 13 2.6744 1.2795
0 9 15 2.5154 -2.1225
0 9 17 -2.9407 -6.0941
0 9 19 -0.2121 -1.5731
0 9 21 -1.4368 7.2701
0 9 23 6.4101 2.7090
0 9 25 -7.3714 0.4976
0 9 27 -10.0522 4.4473
0 9 29 5.4566 -9.0963
0 9 31 -4.1844 4.5911
0 9 33 -1.0638 -1.1892
0 9 35 -7.9986 -19.8928
0 9 37 -8.0490 13.3884
0 9 39 8.2943 -9.2589
0 9 41 -0.1952 -5.6269
0 9 43 2.6502 0.1345
0 9 45 -1.3473 1.8718
0 9 47 2.2457 1.2977
0 9 49 -0.9783 -0.7818
0 9 51 0.3729 -0.5226
0 9 53 -0.0789 3.2822
0 10 0 11.8257 -1.4382
0 10 2 23.3994 29.8386
0 10 4 3.4758 4.8833
0 10 6 2.3596 5.2923
0 10 8 8.8123 -30.4349
0 10 10 6.2088 11.4310
0 10 12 9.0987 -16.5260
0 10 14 -17.8993 9.5240
0 10 16 2.4329 2.2026
0 10 18 7.0156 -3.3146
0 10 20 19.1905 -9.0240
0 10 22 7.2787 26.2533
0 10 24 13.0873 -5.2416
0 10 26 -0.8844 8.3776
0 10 28 3.9378 -17.0256
0 10 30 -1.5942 -11.4401
0 10 32 0.4787 11.5514
0 10 34 7.7871 -1.2310
0 10 36 1.7019 21.7701
0 10 38 2.8575 -4.9144
0 10 40 4.1718 4.8649
0 10 42 -5.8870 12.8961
0 10 44 3.6691 0.4550
0 10 46 -4.7155 5.2542
0 10 48 6.1638 3.7192
0 10 50 -2.1478 -1.4625
0 10 52 -2.9531 -1.2955
0 11 1 0.2071 -0.2214
0 11 3 5.4991 1.2056
0 11 5 -2.9247 -1.8252
0 11 7 -5.6805 0.2984
0 11 9 -1.7758 -1.3647
0 11 11 -9.4094 0.3190
0 11 13 1.3177 -0.2611
0 11 15 0.9329 2.1307
0 11 17 -3.8784 -3.1172
0 11 19 -6.3082 0.5512
0 11 21 -3.7702 -0.1377
0 11 23 -2.3446 3.1275
0 11 25 -4.0595 -4.8083
0 11 27 3.5939 -2.5216
0 11 29 -2.1354 1.9472
0 11 31 -8.2351 13.5613
0 11 33 4.2976 -18.5204
0 11 35 -1.5257 7.5962
0 11 37 0.3826 -2.6416
0 11 39 3.9201 2.3193
0 11 41 0.7565 0.3326
0 11 43 2.0108 -0.2239
0 11 45 2.3593 -2.4975
0 11 47 -0.1602 -1.3506
0 11 49 -0.1572 -3.6267
0 12 0 1.8767 -0.9498
0 12 2 3.5226 -10.6912
0 12 4 3.0652 3.3020
0 12 6 -7.3535 12.8523
0 12 8 0.2967 2.5980
0 12 10 -4.2757 -3.3933
0 12 12 -21.8392 0.7156
0 12 14 7.4590 2.8419
0 12 16 1.1599 1.6035
0 12 18 2.6558 2.6051
0 12 20 -0.0446 -5.3976
0 12 22 -4.2413 -0.9004
0 12 24 -12.7466 -1.2182
0 12 26 3.7467 -2.7646
0 12 28 4.6221 -2.4217
0 12 30 0.0479 5.6749
0 12 32 -18.2331 -13.8080
0 12 34 -4.3094 4.0989
0 12 36 9.7958 8.5724
0 12 38 -0.0755 -4.1235
0 12 40 -2.4795 6.2370
0 12 42 -13.8552 7.5150
0 12 44 2.1130 2.0564
0 12 46 7.7940 3.0967
0 12 48 -0.5910 0.7424
0 13 1 -1.4365 0.7913
0 13 3 -1.1151 -0.4583
0 13 5 -2.6928 -0.2372
0 13 7 -1.4513 0.4705
0 13 9 2.3699 -1.3282
0 13 11 0.2876 -1.3737
0 13 13 1.0456 0.4203
0 13 15 3.4087 -4.8886
0 13 17 -1.1539 0.8994
0 13 19 4.3504 -0.8968
0 13 21 6.5096 -3.2815
0 13 23 0.1846 -4.9705
0 13 25 -0.6532 7.2985
0 13 27 7.6054 0.8242
0 13 29 -8.2517 4.8452
0 13 31 -5.0595 8.7996
0 13 33 -0.9250 0.3952
0 13 35 -4.8353 4.4444
0 13 37 -5.4824 0.6815
0 13 39 1.5187 0.5460
0 13 41 2.1262 0.8045
0 13 43 3.7178 -3.9677
0 13 45 -1.0882 -0.0884
0 14 0 1.4433 -0.6105
0 14 2 -9.5670 -1.9501
0 14 4 -0.6711 -5.1872
0 14 6 -1.1478 -7.5238
0 14 8 2.6213 -3.0286
0 14 10 5.3168 -4.1861
0 14 12 -7.4222 3.4294
0 14 14 11.0893 3.3824
0 14 16 6.7391 -8.9557
0 14 18 -4.9042 -5.1130
0 14 20 1.2935 -0.5209
0 14 22 -6.0407 1.0466
0 14 24 0.1589 -4.0297
0 14 26 -3.3081 -5.4821
0 14 28 -14.8212 5.2612
0 14 30 -3.7476 9.2419
0 14 32 -1.2944 3.6476
0 14 34 0.1173 1.3806
0 14 36 -0.9432 0.4748
0 14 38 -3.3124 -1.1844
0 14 40 2.1241 -2.3603
0 14 42 -6.8457 3.0713
0 15 1 -2.9895 -5.1055
0 15 3 -2.6987 6.3196
0 15 5 -0.8316 0.9850
0 15 7 -0.1051 2.1990
0 15 9 0.3657 -1.1996
0 15 11 -2.1573 0.2533
0 15 13 0.6347 0.9991
0 15 15 0.8848 -4.0171
0 15 17 2.1285 4.8399
0 15 19 -3.9463 -1.2378
0 15 21 3.9616 5.2169
0 15 23 1.8887 -0.5403
0 15 25 -2.3082 -1.4404
0 15 27 3.4275 -5.1335
0 15 29 0.1459 0.2607
0 15 31 1.2593 -0.0197
0 15 33 5.1886 2.3140
0 15 35 0.3871 0.0674
0 15 37 -0.3769 0.1997
0 16 0 -2.1229 -0.3607
0 16 2 -3.2335 4.7339
0 16 4 1.2447 1.3559
0 16 6 2.0380 0.9823
0 16 8 0.8192 -6.7075
0 16 10 1.3880 3.9416
0 16 12 3.3551 -1.2675
0 16 14 -2.5250 -1.1127
0 16 16 2.6549 0.2440
0 16 18 5.9998 -2.0136
0 16 20 1.0053 -2.6016
0 16 22 -3.0863 0.8469
0 16 24 -0.3896 1.6024
0 16 26 -2.3962 -2.9175
0 16 28 -0.5450 -1.6616
0 16 30 -2.1225 2.4713
0 16 32 3.4124 -1.1298
0 17 1 -0.4464 1.7365
0 17 3 0.0985 -0.7722
0 17 5 -0.2137 0.1607
0 17 7 -0.8389 0.5498
0 17 9 -1.1261 -0.0005
0 17 11 4.2390 -2.7150
0 17 13 -0.2145 -1.0300
0 17 15 -0.5241 1.6104
0 17 17 0.5874 -0.6039
0 17 19 0.0280 1.0006
0 17 21 0.4756 0.0363
0 17 23 -0.5154 0.3057
0 17 25 1.0474 0.4711
0 17 27 3.1356 -2.0719
0 18 0 -4.9722 -0.1954
0 18 2 1.2945 -2.4616
0 18 4 0.0976 -3.5942
0 18 6 -0.5582 0.2415
0 18 8 2.1791 -0.6884
0 18 10 0.5824 -1.3314
0 18 12 -1.5739 0.5527
0 18 14 1.6750 1.9770
0 18 16 0.2076 -0.8563
0 18 18 0.9348 -1.9860
0 18 20 3.7231 0.1483
0 19 1 6.9561 -1.9651
0 19 3 0.7588 -0.8274
0 19 5 -1.3830 -4.3763
1 1 2 -24.5638 20.2091
1 1 6 119.2475 -53.0840
1 1 8 13.3221 -23.1684
1 1 10 -17.2133 30.2368
1 1 12 -10.3945 37.7274
1 1 16 -8.6699 10.9709
1 1 18 -14.2328 -17.7084
1 1 20 76.3206 -0.0740
1 1 22 38.4706 0.9452
1 1 24 21.7071 47.0533
1 1 26 -40.0199 -1.1717
1 1 28 34.9576 -35.6137
1 1 30 -5.6820 -14.1870
1 1 32 -17.9434 -17.7318
1 1 34 0.2354 0.0506
1 1 36 8.6035 12.1359
1 1 38 -3.5511 6.1541
1 1 40 8.9175 5.9250
1 1 42 0.5625 -13.2435
1 1 44 2.3031 -6.7889
1 1 46 15.6607 5.0302
1 1 48 4.1702 -3.0065
1 1 50 6.2852 1.0298
1 1 52 -2.2346 -1.0241
1 1 54 -8.5749 -2.7576
1 1 56 3.8036 7.3784
1 1 58 0.0482 3.6596
1 1 60 1.7533 -4.0576
1 2 1 -251.9278 -134.2828
1 2 3 -105.8024 -344.7169
1 2 5 -168.0498 232.9036
1 2 7 77.9661 -10.2328
1 2 9 18.3441 -30.3321
1 2 11 69.4395 40.9121
1 2 15 10.7469 45.0642
1 2 17 28.0054 -22.4158
1 2 19 -0.2326 -24.9965
1 2 21 -38.5340 43.5829
1 2 23 29.0875 -0.8959
1 2 25 -2.5312 -6.0765
1 2 27 -12.8001 3.5803
1 2 29 7.6831 -16.7065
1 2 31 4.5359 9.8511
1 2 33 7.0168 -13.3484
1 2 35 -2.2813 -1.8855
1 2 37 13.5579 0.8532
1 2 39 -17.1633 -13.8942
1 2 41 -7.7695 -11.3169
1 2 43 -8.9328 -8.0334
1 2 45 -0.2247 4.7157
1 2 47 0.8422 -1.4465
1 2 49 6.7925 -4.4592
1 2 51 -0.8370 -1.2262
1 2 53 -3.8344 -0.5611
1 2 55 2.4980 3.1814
1 2 57 0.8310 -0.3491
1 2 59 -2.5341 1.2931
1 2 61 -1.3097 -0.8038
1 3 0 31.1909 1.8852
1 3 2 9.2318 79.1720
1 3 4 16.5772 0.1410
1 3 6 105.0528 26.6317
1 3 10 -68.0372 -70.4792
1 3 12 -18.9332 15.8576
1 3 14 -35.8110 -1.0442
1 3 16 -3.0187 27.2265
1 3 18 17.5898 14.5411
1 3 20 18.4474 -9.9970
1 3 22 -9.8964 -15.8452
1 3 24 4.6791 5.6980
1 3 26 28.6990 1.2647
1 3 28 -2.2047 -12.6584
1 3 30 -5.3383 5.4574
1 3 32 -6.8972 -6.8201
1 3 34 1.1605 8.8490
1 3 36 -0.6422 10.3375
1 3 38 0.4866 9.1353
1 3 40 -1.4061 -9.1036
1 3 42 -5.8556 8.3308
1 3 44 7.6453 -8.0483
1 3 46 -2.8599 3.7361
1 3 48 2.9006 1.6705
1 3 50 1.0316 -3.2356
1 3 52 -4.0792 1.5158
1 3 54 -5.7651 -3.8270
1 3 56 0.0837 -2.5064
1 3 58 -0.6573 0.4664
1 3 60 1.8700 0.0297
1 4 1 -73.6200 -86.2764
1 4 3 -27.7696 -21.7003
1 4 5 13.2124 -31.8623
1 4 7 -203.5282 55.3428
1 4 11 15.5840 8.3490
1 4 13 60.5402 -86.7847
1 4 15 71.6408 3.9618
1 4 17 -52.4240 -25.9838
1 4 19 -30.9663 1.5668
1 4 21 -45.9489 17.7432
1 4 23 -31.5603 -7.6135
1 4 25 -2.1141 35.1922
1 4 27 -0.2125 -27.8499
1 4 29 -13.6950 8.8360
1 4 31 4.7147 -10.3927
1 4 33 -1.1032 0.9087
1 4 35 -9.4113 -5.3324
1 4 37 -9.6770 6.6576
1 4 39 -0.7054 -3.5994
1 4 41 -9.4556 0.0133
1 4 43 -5.7556 3.3285
1 4 45 6.0812 -5.3489
1 4 47 3.3729 6.7654
1 4 49 -0.3849 -3.7624
1 4 51 8.3958 1.2891
1 4 53 2.6779 -1.6393
1 4 55 -0.0026 1.7282
1 4 57 -0.7697 -0.7838
1 4 59 1.8315 4.6404
1 5 0 -7.3700 1.6311
1 5 2 19.6595 -45.6073
1 5 4 8.3879 -44.5524
1 5 6 53.9835 -0.0446
1 5 8 32.3873 -29.1874
1 5 10 -0.4221 24.3137
1 5 12 -15.3642 -5.8991
1 5 14 -21.7509 -8.0359
1 5 16 -5.3143 7.0236
1 5 18 -17.6982 -3.5382
1 5 20 -8.6044 -11.2734
1 5 22 -10.7010 22.3488
1 5 24 -9.4488 11.4353
1 5 26 -18.2394 -4.9510
1 5 28 10.4440 -1.3237
1 5 30 6.0812 -14.4787
1 5 32 -30.8842 0.3646
1 5 34 -5.9169 -3.6552
1 5 36 3.0601 1.0263
1 5 38 -12.8772 2.1674
1 5 40 11.4570 7.7032
1 5 42 0.0516 -9.8182
1 5 44 -0.7054 5.1531
1 5 46 -1.4170 8.7214
1 5 48 -2.2223 -3.7479
1 5 50 -3.4224 -4.7333
1 5 52 3.1349 -3.8998
1 5 54 -1.9767 -2.1878
1 5 56 -1.1893 1.3937
1 5 58 0.3761 1.2324
1 6 1 28.0786 12.3987
1 6 3 -4.8467 -5.9079
1 6 5 -39.3857 5.0546
1 6 7 -73.2920 36.9550
1 6 9 78.9393 19.3679
1 6 11 -25.5127 55.6514
1 6 13 25.7270 -38.1174
1 6 15 -18.8759 -8.4252
1 6 17 -26.4532 29.8091
1 6 19 7.4686 -2.9095
1 6 21 -59.0193 28.4601
1 6 23 2.9834 -8.2601
1 6 25 29.5807 5.1570
1 6 27 -3.2132 0.7662
1 6 29 -3.4095 -7.0002
1 6 31 -9.9889 -0.6192
1 6 33 -0.6948 7.2105
1 6 35 -3.8926 0.3927
1 6 37 -2.6062 6.2828
1 6 39 -2.2748 9.9035
1 6 41 -9.7820 -0.4712
1 6 43 -3.4924 -5.3056
1 6 45 0.4323 8.6792
1 6 47 -6.8747 -2.7312
1 6 49 1.1884 4.5793
1 6 51 2.6465 -1.3822
1 6 53 5.7665 -5.9400
1 6 55 -0.3395 -0.1681
1 6 57 0.2949 1.7567
1 7 0 10.5475 1.3348
1 7 2 -19.3269 24.7837
1 7 4 23.2182 31.0578
1 7 6 -15.7648 -28.7729
1 7 8 1.6762 2.2811
1 7 10 -20.3674 -4.6980
1 7 12 2.4982 3.9751
1 7 14 16.6420 -14.8667
1 7 16 19.9586 4.2685
1 7 18 -13.1960 -18.1141
1 7 20 5.1558 0.5213
1 7 22 2.5938 -14.9374
1 7 24 16.1790 -14.7392
1 7 26 -5.5190 -7.1825
1 7 28 -4.8978 12.5599
1 7 30 4.9086 14.9742
1 7 32 -3.9457 -2.7484
1 7 34 5.3843 3.9530
1 7 36 -3.2138 2.8190
1 7 38 6.7504 -6.1183
1 7 40 -14.7803 -5.5015
1 7 42 8.9361 10.4730
1 7 44 -0.3205 -0.9792
1 7 46 -2.3022 -2.8540
1 7 48 -3.3097 -3.1826
1 7 50 1.0334 6.2969
1 7 52 10.1791 -7.0872
1 7 54 -1.9143 -2.2094
1 7 56 -2.8636 2.2390
1 8 1 18.1134 16.0285
1 8 3 33.4383 -27.6427
1 8 5 -36.3465 17.1591
1 8 7 -2.7488 14.5179
1 8 9 7.8028 -4.9026
1 8 11 -18.0712 10.1705
1 8 13 6.1124 -19.6739
1 8 15 -23.8938 7.9900
1 8 17 -14.7068 -17.4871
1 8 19 -8.7344 8.8501
1 8 21 1.4290 -30.0307
1 8 23 -1.0261 10.8144
1 8 25 6.2270 1.9244
1 8 27 -2.4774 -21.2341
1 8 29 -6.7036 12.6741
1 8 31 6.7802 -10.9442
1 8 33 9.8604 12.0179
1 8 35 -5.2820 -3.2555
1 8 37 1.1815 1.5685
1 8 39 6.0341 -3.8073
1 8 41 -3.9932 10.1005
1 8 43 -1.3741 7.0849
1 8 45 -1.2207 12.7146
1 8 47 -1.4262 5.0544
1 8 49 2.6722 -1.2368
1 8 51 -0.3016 -2.0756
1 8 53 -0.7854 -0.9096
1 8 55 -4.7663 -5.7077
1 9 0 -17.8309 1.0034
1 9 2 19.2211 15.8554
1 9 4 -2.4354 -0.1783
1 9 6 -7.4690 -8.3562
1 9 8 10.5251 -14.3941
1 9 10 16.9148 0.0797
1 9 12 26.7075 -11.0746
1 9 14 5.4594 -3.7357
1 9 16 -4.3217 11.3848
1 9 18 -3.7768 10.7647
1 9 20 3.4332 -1.6744
1 9 22 -15.1534 3.4704
1 9 24 -2.7588 5.1439
1 9 26 -13.3209 -13.2185
1 9 28 8.1709 18.5913
1 9 30 -5.5713 -14.8465
1 9 32 -14.7956 1.1953
1 9 34 6.3769 -4.1475
1 9 36 10.9504 0.7145
1 9 38 -0.9943 0.7491
1 9 40 0.7329 3.1681
1 9 42 6.1516 14.9285
1 9 44 -9.6979 5.4646
1 9 46 9.3415 -1.5389
1 9 48 8.8520 1.6982
1 9 50 0.2867 -0.8094
1 9 52 7.1617 -1.0112
1 9 54 -5.4920 1.4555
1 10 1 -0.9597 12.6476
1 10 3 -0.8875 7.1468
1 10 5 -4.2461 6.4422
1 10 7 -0.1870 -4.0019
1 10 9 -3.6824 1.2916
1 10 11 -7.4195 3.0311
1 10 13 7.9925 8.4345
1 10 15 -1.2042 -1.9130
1 10 17 -10.6201 0.3568
1 10 19 -14.0817 5.9494
1 10 21 12.3842 -4.7503
1 10 23 10.7675 8.0943
1 10 25 -12.7603 -20.3731
1 10 27 7.9422 3.1018
1 10 29 11.2227 8.2250
1 10 31 4.8568 11.8855
1 10 33 4.0050 4.2956
1 10 35 -8.2750 -12.7772
1 10 37 -0.9264 -10.7922
1 10 39 -0.8495 6.8750
1 10 41 4.3917 1.3407
1 10 43 -2.2658 3.2800
1 10 45 -3.8148 -1.0190
1 10 47 3.3129 -1.3146
1 10 49 -2.2156 -4.5154
1 10 51 1.5204 -5.2274
1 11 0 13.7798 0.6929
1 11 2 -12.7295 3.0000
1 11 4 7.8216 12.7464
1 11 6 -2.3441 -5.9302
1 11 8 16.0946 -9.1349
1 11 10 -3.6990 -0.3006
1 11 12 1.6554 3.3212
1 11 14 -9.5070 1.6915
1 11 16 -4.3823 -2.2681
1 11 18 -3.5863 -1.8907
1 11 20 7.0237 -7.0547
1 11 22 -1.4718 7.1131
1 11 24 -9.5614 8.3495
1 11 26 0.8897 8.1935
1 11 28 -4.7021 6.6449
1 11 30 3.6580 -4.8463
1 11 32 17.2816 -8.5879
1 11 34 5.7632 -1.9259
1 11 36 -15.3731 24.4665
1 11 38 -0.7937 2.1040
1 11 40 3.4088 0.1435
1 11 42 2.1582 -2.9974
1 11 44 -1.4277 -1.4678
1 11 46 7.2510 -0.4246
1 11 48 2.2579 6.2157
1 11 50 1.6690 -10.5449
1 12 1 -10.4491 6.5776
1 12 3 -7.1802 5.9362
1 12 5 -3.3854 -11.0817
1 12 7 3.1393 -1.5271
1 12 9 11.4009 -13.5778
1 12 11 5.3461 5.5204
1 12 13 1.9399 3.6241
1 12 15 0.8530 -1.4837
1 12 17 3.1170 11.1192
1 12 19 -4.5159 -0.3126
1 12 21 -2.8674 -13.5716
1 12 23 -6.1995 1.0212
1 12 25 -8.8103 -1.5610
1 12 27 16.4492 7.0564
1 12 29 -0.8178 7.8634
1 12 31 -10.9989 2.1717
1 12 33 -11.9479 2.5114
1 12 35 4.0518 4.9502
1 12 37 -3.5849 -8.6408
1 12 39 -4.8125 -1.5137
1 12 41 -1.4155 1.3335
1 12 43 1.2333 2.0915
1 12 45 1.9937 -2.8653
1 12 47 -1.1404 -2.3465
1 13 0 0.2358 0.4611
1 13 2 -7.8866 0.2333
1 13 4 1.8224 -2.0799
1 13 6 -3.6938 -1.2288
1 13 8 -4.3660 -0.4792
1 13 10 -2.2497 1.0758
1 13 12 -8.6868 5.8937
1 13 14 0.7221 2.5714
1 13 16 -2.7542 -2.8994
1 13 18 4.4322 -6.7119
1 13 20 -4.5418 -3.7802
1 13 22 3.5482 -2.1509
1 13 24 -0.5219 0.5626
1 13 26 8.3348 6.7622
1 13 28 -4.3775 9.8497
1 13 30 13.3136 -0.0785
1 13 32 0.3339 -7.3957
1 13 34 2.8456 7.2273
1 13 36 -7.2762 7.8491
1 13 38 6.0269 -1.2852
1 13 40 3.9336 2.3569
1 13 42 -4.2494 0.7220
1 13 44 -9.3168 1.8764
1 14 1 1.6448 -2.6546
1 14 3 -3.2797 1.5261
1 14 5 -2.6913 -1.5933
1 14 7 -6.8698 1.4994
1 14 9 2.6801 1.2930
1 14 11 6.6114 -2.7834
1 14 13 2.9759 1.1174
1 14 15 3.0172 -9.3473
1 14 17 -3.4219 1.0473
1 14 19 2.4445 4.5250
1 14 21 9.4216 -0.0680
1 14 23 1.8146 -2.4369
1 14 25 -13.6624 4.1406
1 14 27 4.5623 3.6905
1 14 29 1.9100 5.8191
1 14 31 2.8714 -6.3096
1 14 33 1.1037 -1.0950
1 14 35 0.0081 2.4686
1 14 37 0.7654 -4.3887
1 14 39 2.4039 -4.6870
1 14 41 1.8127 0.1408
1 15 0 -4.4558 0.2866
1 15 2 4.0166 -3.6654
1 15 4 -1.0952 -5.1682
1 15 6 -0.1042 -1.0261
1 15 8 -2.4026 0.1302
1 15 10 2.6068 1.0365
1 15 12 -1.6895 3.2748
1 15 14 -0.3851 2.1840
1 15 16 -4.9738 1.5360
1 15 18 -3.5575 0.2784
1 15 20 3.0035 0.5714
1 15 22 1.2316 0.2839
1 15 24 0.7275 -0.3035
1 15 26 11.4533 1.5143
1 15 28 1.5076 -1.6717
1 15 30 4.9050 0.3555
1 15 32 2.7934 -2.2017
1 15 34 0.6926 -3.6741
1 15 36 -1.5277 1.1198
1 15 38 -5.8101 1.0116
1 16 1 -1.4977 -2.0670
1 16 3 -0.8917 0.2776
1 16 5 1.4270 -0.4558
1 16 7 -0.5632 -1.6550
1 16 9 -0.9186 -0.3517
1 16 11 1.4994 -3.0620
1 16 13 1.3286 0.7818
1 16 15 1.7939 5.7260
1 16 17 1.0661 -1.1601
1 16 19 -0.4722 1.5903
1 16 21 1.6587 -0.7685
1 16 23 -0.2690 -0.8875
1 16 25 1.2102 -0.7826
1 16 27 -0.3949 -0.7625
1 16 29 -0.0783 0.5538
1 16 31 1.9382 4.7550
1 16 33 1.8288 -2.1445
1 17 0 0.4214 0.1763
1 17 2 -1.2012 -0.0419
1 17 4 2.2436 -0.1405
1 17 6 2.3461 -5.6667
1 17 8 -0.2173 -2.2749
1 17 10 0.8521 -1.3977
1 17 12 2.5674 -0.8706
1 17 14 0.0833 3.2836
1 17 16 0.1201 -0.7446
1 17 18 0.8994 2.5931
1 17 20 2.3776 2.3232
1 17 22 -2.0699 1.7312
1 17 24 1.6430 2.2463
1 17 26 -2.7840 4.9313
1 18 1 -1.9747 4.0471
1 18 3 -0.4649 0.1865
1 18 5 -2.4151 1.1853
1 18 7 0.2180 0.3592
1 18 9 1.0385 -0.2302
1 18 11 -1.6599 -0.0067
1 18 13 -0.0105 1.8536
1 18 15 -1.7366 -3.4448
1 18 17 0.4326 -0.6884
1 18 19 -0.5306 -0.2513
1 19 0 -4.0816 0.1125
1 19 2 -0.9805 -0.9101
2 1 1 248.2377 151.1309
2 1 3 86.9006 347.0839
2 1 5 117.8169 -273.3021
2 1 7 -80.7437 45.1689
2 1 9 6.6225 1.4183
2 1 11 -92.5686 -43.7688
2 1 13 -58.0580 82.2490
2 1 15 -23.6577 -30.4780
2 1 17 -28.9252 30.7091
2 1 19 -19.8579 10.1472
2 1 21 19.9725 -48.9103
2 1 23 -31.8787 4.7268
2 1 25 18.3075 8.1200
2 1 27 -0.3249 -6.5693
2 1 29 -13.6709 9.6071
2 1 31 -8.1069 -3.5728
2 1 33 -11.4212 1.5265
2 1 35 4.5742 0.0351
2 1 37 -17.9644 10.6054
2 1 39 9.1734 1.3599
2 1 41 7.5144 5.2184
2 1 43 5.4304 1.2307
2 1 45 -0.5602 -1.3379
2 1 47 -6.7209 -5.1091
2 1 49 -10.5329 -3.7712
2 1 51 -0.0720 2.8232
2 1 53 -5.0394 -2.4420
2 1 55 -0.9437 -3.7273
2 1 57 3.5278 4.0470
2 1 59 1.1809 -1.0897
2 1 61 1.8200 -2.9725
2 2 2 -139.8582 -52.5986
2 2 4 -21.2400 65.0550
2 2 6 37.7421 48.2302
2 2 8 113.2198 65.2270
2 2 10 61.8656 -50.9094
2 2 12 1.5498 -9.2266
2 2 14 69.6446 -91.5591
2 2 16 32.2023 12.8378
2 2 18 -9.8832 -11.7734
2 2 20 35.6986 32.4632
2 2 22 -30.5865 19.4373
2 2 24 -42.8925 -7.1096
2 2 26 35.9268 -4.3404
2 2 28 -6.4366 4.7306
2 2 30 3.7231 35.7099
2 2 32 8.1108 -0.9828
2 2 34 -1.2079 1.6073
2 2 36 -3.8449 -22.1653
2 2 38 0.0938 -3.8534
2 2 40 0.5116 7.3404
2 2 42 6.2110 -3.5846
2 2 44 -11.6269 11.5341
2 2 46 -3.4089 -0.6600
2 2 48 1.0456 -0.0523
2 2 50 -0.1263 -3.4061
2 2 52 -0.6965 4.5322
2 2 54 4.6539 6.4503
2 2 56 -0.6326 -3.0037
2 2 58 -1.0840 3.7482
2 2 60 0.1790 0.2313
2 3 1 -23.3178 -25.8200
2 3 5 24.9639 -37.7237
2 3 7 35.4778 45.8035
2 3 11 86.6840 106.6076
2 3 13 15.8111 -62.2962
2 3 15 0.3435 -39.8557
2 3 17 10.2949 -0.8600
2 3 19 -38.4314 17.1713
2 3 21 -8.7477 54.9617
2 3 23 14.9869 -50.5819
2 3 25 15.0990 -15.8295
2 3 27 -4.7240 19.2343
2 3 29 -13.7142 24.9325
2 3 31 9.7294 17.2245
2 3 33 4.9029 4.7563
2 3 35 -8.1846 -5.7241
2 3 37 3.4120 8.1513
2 3 39 -0.5976 -5.3018
2 3 41 -11.1034 -8.7502
2 3 43 12.2221 -2.4165
2 3 45 -6.9761 -0.1835
2 3 47 -13.4764 -6.2270
2 3 49 -5.3947 -8.4681
2 3 51 -0.9286 -0.1769
2 3 53 1.1990 -7.0962
2 3 55 -2.1185 0.1522
2 3 57 2.0932 0.9569
2 3 59 5.7291 -1.5519
2 4 0 32.1017 -1.3626
2 4 2 31.1254 -0.4860
2 4 4 64.2227 54.6277
2 4 6 16.3723 41.6361
2 4 8 47.3127 24.6787
2 4 10 39.2611 -21.8699
2 4 12 0.9677 -24.3840
2 4 14 -15.7960 -28.2634
2 4 16 -69.5024 -49.1295
2 4 18 -9.8437 35.7756
2 4 20 -36.4865 -3.9491
2 4 22 -9.1654 19.0833
2 4 24 -12.8643 -0.5764
2 4 26 -15.3272 -19.2995
2 4 28 -20.6446 15.6411
2 4 30 19.5098 -9.0892
2 4 32 -6.6226 2.2501
2 4 34 -14.0606 -27.1270
2 4 36 -4.8214 -7.3162
2 4 38 4.0956 -1.8351
2 4 40 9.4623 15.5822
2 4 42 -3.5800 -5.8745
2 4 44 6.9376 -9.5102
2 4 46 3.6538 2.1861
2 4 48 -10.8817 -3.2745
2 4 50 -2.7325 3.9507
2 4 52 -4.9167 0.0015
2 4 54 -3.0403 -4.5235
2 4 56 0.3789 2.5124
2 4 58 2.0440 -3.1918
2 4 60 -3.6049 -1.3625
2 5 1 -50.5295 -35.7438
2 5 3 13.0299 42.6854
2 5 5 43.6521 -3.6799
2 5 7 -17.3677 150.5522
2 5 9 12.2182 -25.1801
2 5 11 9.8690 22.4455
2 5 13 44.6513 8.6723
2 5 15 21.5087 -45.7389
2 5 17 -61.0125 24.9332
2 5 19 13.0545 3.4473
2 5 21 -78.0799 3.6793
2 5 23 -55.2951 13.7105
2 5 25 -18.6079 9.4943
2 5 27 -6.1655 0.7159
2 5 29 -3.3371 -8.9929
2 5 31 -14.4948 10.7916
2 5 33 -0.9105 4.4111
2 5 35 2.4061 -2.7513
2 5 37 -6.0902 -1.3219
2 5 39 6.4855 -7.3157
2 5 41 -0.5049 7.0657
2 5 43 -4.4044 -8.0822
2 5 45 -6.0177 14.3072
2 5 47 2.8968 0.0602
2 5 49 2.4498 6.1679
2 5 51 1.2824 -0.6713
2 5 53 -0.0375 -2.7233
2 5 55 3.5530 -4.6564
2 5 57 -0.3250 3.0012
2 5 59 -2.1947 3.5435
2 6 0 -32.3423 -1.0786
2 6 2 -46.5475 42.5219
2 6 4 18.0613 -21.5211
2 6 6 29.3439 10.9728
2 6 8 73.2543 -26.5929
2 6 10 -12.7633 -16.6506
2 6 12 -24.5500 -32.7226
2 6 14 -20.1805 7.6921
2 6 16 -7.5938 1.5060
2 6 18 9.0090 11.6599
2 6 20 -13.0254 -3.7880
2 6 22 9.8859 -15.5807
2 6 24 12.3348 1.6020
2 6 26 14.1936 19.6292
2 6 28 4.5590 28.8378
2 6 30 -8.0520 -6.1405
2 6 32 5.8003 1.2109
2 6 34 -4.2692 1.4756
2 6 36 -4.5484 -6.8494
2 6 38 4.4871 -2.8205
2 6 40 -4.1523 5.3415
2 6 42 5.6295 5.2900
2 6 44 6.0368 1.7642
2 6 46 -1.9133 -2.4828
2 6 48 -3.4266 -1.7324
2 6 50 3.2000 -3.9323
2 6 52 0.4060 -2.4852
2 6 54 0.7330 -0.1802
2 6 56 2.3040 0.4552
2 6 58 3.1532 -3.7727
2 7 1 5.5676 -40.5717
2 7 3 -1.6343 0.6680
2 7 5 -9.6000 3.3296
2 7 7 -8.0688 31.3677
2 7 9 6.3126 10.2411
2 7 11 2.9942 11.9021
2 7 13 -5.3895 -6.3292
2 7 15 11.9709 -15.7123
2 7 17 -7.9769 -18.2098
2 7 19 -38.9470 34.2594
2 7 21 -6.8360 -10.3156
2 7 23 -0.8567 17.4347
2 7 25 2.7326 -14.4716
2 7 27 8.1156 16.4897
2 7 29 -3.5629 -1.2779
2 7 31 9.7191 0.9025
2 7 33 26.0902 -2.6200
2 7 35 -4.5833 4.0001
2 7 37 7.5495 -2.3067
2 7 39 -1.2272 3.9299
2 7 41 10.1122 2.7330
2 7 43 1.6686 7.1990
2 7 45 4.2006 -4.2422
2 7 47 3.4674 2.7398
2 7 49 -1.1875 2.1174
2 7 51 4.5195 5.3346
2 7 53 5.6114 -0.1232
2 7 55 0.9036 -1.9065
2 7 57 2.5633 -2.9883
2 8 0 43.5386 -0.8531
2 8 2 11.6382 12.9319
2 8 4 19.3692 -7.6101
2 8 6 4.5165 9.1063
2 8 8 -29.0812 -33.8321
2 8 10 12.9869 -8.7542
2 8 12 -29.0608 -21.3333
2 8 14 29.0777 4.3421
2 8 16 -2.3636 6.1831
2 8 18 9.6096 -10.4655
2 8 20 -11.4101 1.5246
2 8 22 17.0184 9.8482
2 8 24 -4.3550 -4.9434
2 8 26 4.7974 -12.4465
2 8 28 4.5502 -7.4055
2 8 30 4.7056 13.4282
2 8 32 30.6078 -13.0005
2 8 34 -6.0449 1.8754
2 8 36 -9.5891 13.9802
2 8 38 1.4609 4.1604
2 8 40 15.3102 10.7575
2 8 42 1.8955 -7.3255
2 8 44 -7.7163 4.2773
2 8 46 -6.4929 -3.9089
2 8 48 -3.5459 -12.4540
2 8 50 -1.6199 -0.5658
2 8 52 -5.4714 2.9035
2 8 54 -1.4352 -2.4456
2 9 1 -4.3377 -6.9372
2 9 3 0.4985 -12.7750
2 9 5 -48.2471 -16.8971
2 9 7 -17.0468 4.3655
2 9 9 -2.1025 -9.1507
2 9 11 13.8558 7.0860
2 9 13 -0.3375 14.5352
2 9 15 3.4736 3.3702
2 9 17 -20.4065 -2.7980
2 9 19 -3.8249 -2.1323
2 9 21 2.0285 7.5824
2 9 23 5.7008 -2.2383
2 9 25 -3.2823 -19.1320
2 9 27 -15.6283 3.3579
2 9 29 -11.1095 8.6666
2 9 31 0.3711 -0.8304
2 9 33 4.2482 7.7481
2 9 35 3.8628 5.3767
2 9 37 0.9867 -7.2572
2 9 39 16.1218 0.6012
2 9 41 2.3902 -7.4363
2 9 43 3.2363 -7.2819
2 9 45 3.6157 4.7276
2 9 47 -4.7775 1.6026
2 9 49 -1.3319 -1.3316
2 9 51 3.2413 -5.2003
2 9 53 0.4320 0.1121
2 10 0 59.3682 -0.5898
2 10 2 -11.7974 3.5144
2 10 4 -11.7479 -5.7794
2 10 6 10.0380 22.5916
2 10 8 -9.6501 6.0323
2 10 10 15.0630 -1.0608
2 10 12 4.7713 -10.9402
2 10 14 7.8170 -0.2731
2 10 16 6.1357 -5.1813
2 10 18 1.3596 17.4875
2 10 20 9.0234 6.0019
2 10 22 -5.9802 8.8664
2 10 24 6.5161 2.2342
2 10 26 -12.2558 -8.8441
2 10 28 5.2504 23.7862
2 10 30 6.8141 -0.2041
2 10 32 15.8364 -2.6949
2 10 34 6.2959 1.3257
2 10 36 -10.6942 5.2884
2 10 38 -9.8548 8.9086
2 10 40 1.9377 -4.2328
2 10 42 -4.3175 -1.2272
2 10 44 -6.1412 -0.1136
2 10 46 -9.1810 -2.5286
2 10 48 -1.3733 1.2432
2 10 50 -3.8766 -1.0586
2 10 52 2.6068 -1.9878
2 11 1 2.5913 -14.5856
2 11 3 -3.7364 5.5878
2 11 5 -2.6795 -12.8082
2 11 7 2.2450 19.7785
2 11 9 -7.7485 -4.1730
2 11 11 1.8855 -1.4718
2 11 13 -6.1891 3.3791
2 11 15 0.8477 3.8257
2 11 17 -2.0996 -0.8059
2 11 19 2.3274 -0.5488
2 11 21 7.9370 3.0096
2 11 23 11.1457 1.1294
2 11 25 2.5776 -4.6981
2 11 27 -1.8729 9.1243
2 11 29 -1.8769 0.5558
2 11 31 1.2583 5.0216
2 11 33 -3.6967 7.5222
2 11 35 -4.4633 4.7034
2 11 37 -0.3935 -7.1252
2 11 39 -3.6676 0.2630
2 11 41 -8.5566 0.5338
2 11 43 1.5322 -1.9450
2 11 45 0.8624 -5.4823
2 11 47 -4.4001 0.9863
2 11 49 2.0039 -3.0243
2 12 0 7.5582 -0.3922
2 12 2 0.0220 -5.5444
2 12 4 -1.5602 5.9032
2 12 6 -7.3976 2.4791
2 12 8 -0.2142 2.8891
2 12 10 -3.0667 -1.3035
2 12 12 -0.3422 -1.0854
2 12 14 1.5958 2.6729
2 12 16 1.4629 -3.6788
2 12 18 0.3469 2.6752
2 12 20 -7.7091 -0.0078
2 12 22 -2.0608 -6.9218
2 12 24 4.9149 -0.9389
2 12 26 5.4546 -4.2723
2 12 28 -2.3169 5.9175
2 12 30 -6.2797 5.8045
2 12 32 23.8020 -14.4380
2 12 34 5.2142 3.0375
2 12 36 -2.4317 5.8162
2 12 38 -0.6312 -0.1925
2 12 40 -0.8521 6.9740
2 12 42 0.2951 5.1251
2 12 44 -2.0864 0.8899
2 12 46 -3.8692 3.4273
2 13 1 -1.8711 3.6817
2 13 3 1.2234 -4.2689
2 13 5 0.9659 5.6395
2 13 7 4.8246 -6.5408
2 13 9 -1.0477 0.5414
2 13 11 3.6722 1.3577
2 13 13 -2.4526 5.9233
2 13 15 4.5185 -4.6521
2 13 17 4.5256 0.0787
2 13 19 -5.2489 -4.5702
2 13 21 -4.6453 5.9328
2 13 23 4.9261 -3.9403
2 13 25 2.5666 -0.3416
2 13 27 5.4943 0.1326
2 13 29 0.5929 7.2976
2 13 31 3.1155 1.3230
2 13 33 -6.6978 -1.8307
2 13 35 3.3587 -4.0700
2 13 37 -5.1824 -2.8569
2 13 39 1.6897 6.4153
2 13 41 0.0727 1.7619
2 13 43 -1.5927 -0.1658
2 14 0 -0.2346 -0.2387
2 14 2 10.5344 -7.0748
2 14 4 -1.8157 -1.3010
2 14 6 -0.5625 3.9456
2 14 8 -4.7703 4.0907
2 14 10 -0.0463 3.3969
2 14 12 1.9183 -7.0585
2 14 14 -1.8648 6.3265
2 14 16 -2.0519 1.3406
2 14 18 1.8529 -2.3474
2 14 20 -6.1251 -1.9262
2 14 22 4.5279 1.5860
2 14 24 4.0631 -2.0106
2 14 26 2.7834 4.6668
2 14 28 3.5811 -0.9452
2 14 30 -0.1181 -2.8301
2 14 32 3.4443 2.0381
2 14 34 6.9889 -0.7250
2 14 36 -1.7841 -0.0475
2 14 38 -2.7466 -1.8864
2 14 40 0.9022 -1.0883
2 15 1 0.1333 0.0485
2 15 3 2.8012 1.7656
2 15 5 5.1110 -0.0534
2 15 7 3.0586 3.5950
2 15 9 1.8264 -1.1839
2 15 11 0.1765 1.0221
2 15 13 3.0715 0.0855
2 15 15 3.1472 0.6604
2 15 17 -0.9090 -1.3219
2 15 19 2.7247 0.8221
2 15 21 -2.8896 -4.3901
2 15 23 -3.2553 1.0295
2 15 25 -0.5124 3.8728
2 15 27 0.6541 1.1592
2 15 29 1.7400 4.4800
2 15 31 3.2703 5.1603
2 15 33 3.0477 -0.5196
2 15 35 0.0823 2.6364
2 15 37 -3.1633 -2.0254
2 16 0 -6.8250 -0.1422
2 16 2 -2.6610 -2.3830
2 16 4 -0.3047 -0.6144
2 16 6 0.7071 -0.6606
2 16 8 1.0201 1.4289
2 16 10 -0.4888 -0.1972
2 16 12 1.8858 -2.0925
2 16 14 1.5369 -0.6384
2 16 16 -1.5742 -2.6528
2 16 18 1.9861 2.2684
2 16 20 1.3118 2.8849
2 16 22 2.5040 -4.4217
2 16 24 -0.3819 1.9720
2 16 26 4.4593 2.1348
2 16 28 4.9252 3.4070
2 16 30 -1.2547 -2.7161
2 16 32 -0.1802 -2.9929
2 17 1 -1.1652 0.6961
2 17 3 -4.6769 -1.6671
2 17 5 -0.1112 -0.8394
2 17 7 -0.4061 -1.3096
2 17 9 1.8005 -1.2838
2 17 11 1.4056 1.1282
2 17 13 -2.0475 -1.4356
2 17 15 1.1274 -0.6323
2 17 17 2.2196 -3.5713
2 17 19 3.4449 4.0218
2 17 21 0.2556 -0.8876
2 17 23 -2.1851 -2.7940
2 17 25 -1.7393 -0.9921
2 17 27 -2.2293 0.6475
2 18 0 -4.0102 -0.0954
2 18 2 -0.5262 -3.3513
2 18 4 -2.5434 -1.2531
2 18 6 -0.1226 0.0946
2 18 8 -0.1420 0.8219
2 18 10 0.7633 -0.6392
2 18 12 -3.1121 -0.5800
2 18 14 -0.4778 -0.4272
2 18 16 1.3120 -0.3762
2 18 18 -1.8788 -2.4532
3 1 0 13.4142 1.4531
3 1 2 48.3501 -5.8376
3 1 4 6.1423 19.5202
3 1 6 110.8956 7.8804
3 1 10 -38.0930 -100.9129
3 1 12 -21.9932 -6.6921
3 1 14 -26.6183 16.0731
3 1 16 7.2585 18.0893
3 1 18 -12.8758 -9.7134
3 1 20 15.9904 -10.5064
3 1 22 -10.1690 -30.2583
3 1 24 11.2683 1.7489
3 1 26 21.3779 2.1903
3 1 28 -4.9607 4.6354
3 1 30 12.0420 -7.2758
3 1 32 -12.1242 -4.8172
3 1 34 0.3084 14.8369
3 1 36 -2.7173 1.8481
3 1 38 6.5956 8.0977
3 1 40 4.2611 1.0721
3 1 42 -1.0861 17.7200
3 1 44 -6.5929 3.4517
3 1 46 -5.0145 3.0214
3 1 48 0.3678 -2.8274
3 1 50 1.7955 -7.7491
3 1 52 1.5872 -1.6835
3 1 54 -2.4321 -1.2286
3 1 56 0.8810 -0.7574
3 1 58 -0.6627 0.1232
3 1 60 2.3692 -0.1166
3 2 1 19.1767 28.2089
3 2 5 -9.1643 44.4248
3 2 7 -37.7309 -45.0187
3 2 11 -85.3509 -89.5513
3 2 13 -0.0354 68.7262
3 2 15 -31.0904 -27.0103
3 2 17 2.8108 -12.4744
3 2 19 32.3793 -30.5898
3 2 21 10.6225 -60.7051
3 2 23 -16.7612 52.4627
3 2 25 -5.8802 28.2910
3 2 27 6.4677 -20.7584
3 2 29 20.4027 -16.2088
3 2 31 -33.0593 4.6014
3 2 33 -2.4660 -4.3978
3 2 35 -5.2446 -22.9993
3 2 37 0.3909 -19.1060
3 2 39 10.4427 -7.0253
3 2 41 -11.3581 0.4440
3 2 43 7.3756 -6.5991
3 2 45 -7.4520 4.3792
3 2 47 11.9051 2.2136
3 2 49 -3.9741 -3.1073
3 2 51 -0.3551 1.4110
3 2 53 5.2470 -0.2129
3 2 55 1.5848 0.3070
3 2 57 -5.1292 2.2810
3 2 59 -4.1947 2.1823
3 3 2 43.1533 129.3649
3 3 4 75.1001 -105.8852
3 3 6 -14.4489 -46.4982
3 3 8 -93.9893 -16.3268
3 3 10 50.5570 35.4191
3 3 14 45.5266 25.6932
3 3 16 -2.1391 -22.9140
3 3 18 68.7798 6.4222
3 3 20 9.0284 80.6672
3 3 22 -28.5391 26.9952
3 3 24 -21.1754 -12.1953
3 3 26 -9.9957 18.0710
3 3 28 -6.5551 -12.1716
3 3 30 18.0664 -21.5397
3 3 32 -10.6841 4.5631
3 3 34 -15.4691 -16.3467
3 3 36 4.9631 -8.3894
3 3 38 -14.1951 -3.7082
3 3 40 -6.4020 6.6824
3 3 42 6.8237 3.9738
3 3 44 -2.9318 3.3179
3 3 46 3.6178 -3.1053
3 3 48 -1.3809 3.9823
3 3 50 5.7860 2.6722
3 3 52 3.2022 -2.2852
3 3 54 -1.4328 -0.1064
3 3 56 -1.1854 2.9272
3 3 58 -2.9906 3.2655
3 3 60 -1.3182 1.3971
3 4 1 46.5058 -33.4620
3 4 3 16.7069 15.2774
3 4 5 -33.3125 -25.6569
3 4 7 24.1652 21.9444
3 4 9 -46.7041 -12.0561
3 4 11 -1.8130 34.2673
3 4 13 49.2045 24.3672
3 4 15 -17.8569 -14.6497
3 4 17 -2.0329 -36.3083
3 4 19 11.5613 1.9722
3 4 21 -65.6710 37.7633
3 4 23 39.1325 -38.6644
3 4 25 -12.9091 31.2021
3 4 27 -14.2980 -0.7433
3 4 29 0.3555 9.1195
3 4 31 36.7658 -11.8448
3 4 33 -1.8719 -9.5875
3 4 35 -6.3027 -7.0415
3 4 37 -1.7766 -6.6407
3 4 39 -8.9700 7.2806
3 4 41 -3.7602 -1.5907
3 4 43 0.9921 -5.9206
3 4 45 10.6860 -9.9451
3 4 47 4.5007 4.4851
3 4 49 0.2253 11.0726
3 4 51 -3.5332 4.0458
3 4 53 -4.8961 -2.6894
3 4 55 -2.9598 -7.7677
3 4 57 4.9377 -2.9741
3 4 59 -4.1137 2.4493
3 5 0 107.2696 1.2503
3 5 2 -2.2433 -85.0444
3 5 4 68.9076 -24.0542
3 5 6 14.2114 -0.3402
3 5 8 -120.2207 -21.3488
3 5 10 -11.1659 13.9287
3 5 12 -10.1996 -15.1985
3 5 14 31.3112 -32.2567
3 5 16 8.6855 22.5618
3 5 18 -16.1549 -26.8780
3 5 20 -23.1902 -16.1178
3 5 22 -24.1878 20.9460
3 5 24 -12.7468 22.1606
3 5 26 -26.1149 5.5719
3 5 28 -5.0109 -20.3938
3 5 30 12.9243 -5.2401
3 5 32 -2.7314 -13.0534
3 5 34 -12.4287 -3.8039
3 5 36 2.2612 1.4703
3 5 38 -2.6882 -1.7219
3 5 40 4.2644 2.1387
3 5 42 -2.6475 13.5307
3 5 44 1.2149 -3.4389
3 5 46 0.9124 1.0355
3 5 48 8.8989 5.8573
3 5 50 1.2235 2.3514
3 5 52 12.0752 -4.8583
3 5 54 -4.8835 0.6709
3 5 56 -0.7276 -0.5191
3 5 58 2.5138 -5.0491
3 6 1 5.7692 -19.7868
3 6 3 -1.1639 0.3969
3 6 5 6.8543 27.7732
3 6 7 -9.7427 -12.6108
3 6 9 -37.5371 10.0880
3 6 11 13.0882 0.6313
3 6 13 27.8848 71.1051
3 6 15 -8.0733 -1.9943
3 6 17 -1.8881 3.3126
3 6 19 29.3703 32.4651
3 6 21 -17.5627 9.4404
3 6 23 1.9374 0.1196
3 6 25 -6.8090 15.3935
3 6 27 1.6589 13.6201
3 6 29 1.7277 -13.5477
3 6 31 1.8477 1.4309
3 6 33 10.3838 -7.9297
3 6 35 -6.4510 14.8838
3 6 37 -2.3465 -7.3725
3 6 39 -0.8292 3.6443
3 6 41 -5.7729 -3.5679
3 6 43 0.3766 -2.6165
3 6 45 -5.2690 9.5496
3 6 47 -0.8330 -6.0907
3 6 49 0.8581 2.5788
3 6 51 -4.4887 6.1490
3 6 53 2.3878 -3.5896
3 6 55 -2.5558 -6.6432
3 6 57 3.0277 3.4519
3 7 0 -1.4352 0.9332
3 7 2 4.8897 3.2091
3 7 4 -30.0150 -21.6031
3 7 6 -10.4114 -31.4606
3 7 8 -59.8004 -25.7442
3 7 10 5.5669 0.1459
3 7 12 -41.7753 40.6587
3 7 14 39.5979 -7.1737
3 7 16 -1.2910 10.1751
3 7 18 23.1640 -13.4503
3 7 20 11.7292 6.9520
3 7 22 2.0901 0.8794
3 7 24 24.2365 -1.4107
3 7 26 12.6499 14.5585
3 7 28 -5.8027 -21.4871
3 7 30 -7.4191 -1.4341
3 7 32 25.1629 2.3522
3 7 34 2.4544 1.8319
3 7 36 2.7593 -4.7955
3 7 38 1.9875 -0.0975
3 7 40 4.7106 10.9154
3 7 42 2.2240 2.7011
3 7 44 2.2420 -4.9841
3 7 46 -7.8948 -1.7930
3 7 48 -4.6803 -9.4490
3 7 50 0.6285 -7.2774
3 7 52 -6.4501 -2.0622
3 7 54 7.7816 3.2339
3 7 56 2.5735 -3.0749
3 8 1 32.4559 13.4403
3 8 3 20.1372 12.1769
3 8 5 -13.4523 -11.3103
3 8 7 -32.4572 30.7988
3 8 9 0.8537 25.4396
3 8 11 -15.9707 -31.9743
3 8 13 -9.4984 44.8010
3 8 15 16.3239 4.1351
3 8 17 19.0092 -24.3196
3 8 19 -4.9069 23.1863
3 8 21 5.2595 -5.8328
3 8 23 -6.8062 -0.6157
3 8 25 -13.0780 -5.9779
3 8 27 32.5274 -11.0883
3 8 29 -6.6429 -8.6887
3 8 31 -3.1081 -9.7018
3 8 33 -1.1409 4.7696
3 8 35 4.1634 -3.0598
3 8 37 -4.5964 5.7471
3 8 39 -2.3755 -12.8009
3 8 41 -4.7519 2.4113
3 8 43 -4.0181 2.5677
3 8 45 -4.3801 10.6522
3 8 47 4.5215 3.6862
3 8 49 1.4530 0.5936
3 8 51 -4.3979 -6.1240
3 8 53 -5.5503 -1.6629
3 8 55 1.9355 -2.0490
3 9 0 19.0724 0.7007
3 9 2 -4.7186 -1.8100
3 9 4 30.3810 -4.7831
3 9 6 17.6850 2.5507
3 9 8 -23.5970 8.0456
3 9 10 -36.9966 5.2983
3 9 12 -10.9471 -4.4537
3 9 14 20.0015 -16.5373
3 9 16 -13.4656 -4.5319
3 9 18 11.7404 -3.8491
3 9 20 3.0515 15.5428
3 9 22 21.8091 -6.0318
3 9 24 9.4791 6.0361
3 9 26 -1.9967 -0.6088
3 9 28 -4.1558 -15.5143
3 9 30 -6.2597 14.6809
3 9 32 -26.2613 3.7943
3 9 34 6.9095 1.9444
3 9 36 -19.4949 13.7588
3 9 38 6.3790 1.0637
3 9 40 -9.0738 2.5021
3 9 42 -11.2112 4.3358
3 9 44 -11.8010 12.1177
3 9 46 -4.7745 2.6247
3 9 48 -3.3169 2.5550
3 9 50 2.9743 -4.5797
3 9 52 -4.9324 -1.4764
3 10 1 0.3547 -15.6221
3 10 3 -14.4094 -4.2820
3 10 5 12.1537 23.0223
3 10 7 2.2335 -2.4905
3 10 9 -10.1090 5.9647
3 10 11 1.3022 -9.4144
3 10 13 3.7433 -6.2335
3 10 15 6.5012 10.0913
3 10 17 -2.4304 11.7528
3 10 19 -0.7921 3.9190
3 10 21 -15.6969 9.8388
3 10 23 5.7378 -0.5806
3 10 25 14.2215 -15.8761
3 10 27 1.0118 5.9534
3 10 29 -2.5148 14.8050
3 10 31 -0.4483 -7.9368
3 10 33 -1.6631 13.5629
3 10 35 -8.7450 -19.6776
3 10 37 0.0690 9.4628
3 10 39 -2.1338 5.9249
3 10 41 11.7294 6.6817
3 10 43 -5.1731 2.2116
3 10 45 4.6068 -3.3481
3 10 47 2.6012 3.1061
3 10 49 3.5500 1.2513
3 10 51 -0.6619 0.9055
3 11 0 6.5339 0.4787
3 11 2 -3.8642 -7.8316
3 11 4 1.0214 5.0715
3 11 6 11.9534 -7.9373
3 11 8 -9.1396 0.6278
3 11 10 3.6240 1.1565
3 11 12 1.9851 -6.1457
3 11 14 -7.2910 -7.5533
3 11 16 8.7060 2.9545
3 11 18 -1.0470 -9.7303
3 11 20 9.9768 25.8274
3 11 22 -1.3149 3.8323
3 11 24 3.7118 4.1691
3 11 26 3.4655 -0.5672
3 11 28 8.3041 -3.1009
3 11 30 3.5326 -14.8019
3 11 32 -13.4058 -4.2347
3 11 34 -6.4659 1.8853
3 11 36 0.2774 18.7932
3 11 38 -1.7220 3.4501
3 11 40 -12.7297 -6.3347
3 11 42 -3.4115 0.5455
3 11 44 -7.4148 3.7916
3 11 46 -9.9962 1.7705
3 11 48 5.9211 5.4448
3 12 1 -5.1996 1.5439
3 12 3 -1.7481 0.3989
3 12 5 -0.7587 -2.1038
3 12 7 1.5595 4.1817
3 12 9 9.8049 1.3362
3 12 11 1.1296 -2.9571
3 12 13 -4.4872 -6.0713
3 12 15 0.1296 -0.1022
3 12 17 -8.3449 3.5629
3 12 19 1.7115 5.0666
3 12 21 -6.2550 4.7021
3 12 23 3.6387 -8.9115
3 12 25 -7.4203 1.0452
3 12 27 -7.1440 -9.3160
3 12 29 -0.5378 -8.1883
3 12 31 2.5501 -7.6379
3 12 33 -0.6351 2.0990
3 12 35 -5.5105 -0.8348
3 12 37 4.3364 6.7523
3 12 39 -0.7017 -4.4150
3 12 41 2.1016 0.7650
3 12 43 2.7238 -0.7118
3 12 45 8.2872 -5.4330
3 12 47 -2.8274 -0.5694
3 13 0 -1.1398 0.2885
3 13 2 10.0694 -4.3604
3 13 4 -2.9322 -1.3796
3 13 6 -5.7562 -0.8238
3 13 8 1.6823 3.6178
3 13 10 7.1978 -5.7022
3 13 12 2.8926 -0.5695
3 13 14 2.3577 -1.8062
3 13 16 -3.0810 -3.7799
3 13 18 -4.4718 -0.2539
3 13 20 -4.3331 -0.9102
3 13 22 1.9336 -7.3470
3 13 24 12.0549 -0.4769
3 13 26 -1.8573 -3.6218
3 13 28 -2.0567 4.7248
3 13 30 3.3763 -0.5839
3 13 32 -0.5847 -1.8816
3 13 34 -0.0849 -0.5187
3 13 36 -1.9918 2.2514
3 13 38 1.2975 1.9710
3 13 40 5.2134 1.2234
3 13 42 -0.2227 4.4380
3 13 44 -9.0496 7.8815
3 14 1 0.9941 1.7350
3 14 3 -5.8496 -0.0071
3 14 5 -0.9471 0.4962
3 14 7 6.6743 0.2647
3 14 9 -0.2616 -1.3615
3 14 11 1.7314 3.0090
3 14 13 -4.8186 -3.6335
3 14 15 1.1529 -2.3073
3 14 17 3.6308 -2.4626
3 14 19 0.8741 7.0969
3 14 21 1.9072 7.2011
3 14 23 -0.0355 3.2989
3 14 25 -1.1443 3.7157
3 14 27 -0.8442 -3.6015
3 14 29 -2.3855 -1.2292
3 14 31 0.0118 -2.2706
3 14 33 -0.1358 0.4385
3 14 35 -0.6477 1.4846
3 14 37 -3.2884 0.6693
3 14 39 -6.0823 -0.9983
3 14 41 4.5729 3.9937
3 15 0 -2.1172 0.1698
3 15 2 0.9463 -3.3520
3 15 4 0.1785 3.0534
3 15 6 1.6973 2.9762
3 15 8 -1.5149 -0.9578
3 15 10 1.9794 -0.1938
3 15 12 0.4516 -0.8696
3 15 14 -0.7876 1.4293
3 15 16 5.6861 -1.6017
3 15 18 1.1568 1.9559
3 15 20 0.2729 3.1352
3 15 22 3.1699 5.1317
3 15 24 0.8771 -3.1773
3 15 26 4.5205 -3.3925
3 15 28 1.7520 -2.1902
3 15 30 -3.0965 -1.5642
3 15 32 0.1950 3.6898
3 15 34 0.4239 -6.5128
3 15 36 1.8712 0.3651
3 16 1 0.3820 0.1219
3 16 3 0.2283 0.8196
3 16 5 0.2007 0.8909
3 16 7 -1.4711 -1.1464
3 16 9 -4.2101 -2.6354
3 16 11 -3.6097 2.6803
3 16 13 -0.2665 -4.2691
3 16 15 -3.7272 -0.9916
3 16 17 -1.4529 -1.1564
3 16 19 1.9050 -1.3611
3 16 21 1.2328 -2.8472
3 16 23 -2.3335 -1.1322
3 16 25 2.7306 -0.4324
3 16 27 -1.2119 1.3031
3 16 29 3.7998 -2.5919
3 16 31 -0.2520 2.3942
3 17 0 -4.8337 0.0848
3 17 2 0.0836 -2.5988
3 17 4 -2.8083 0.6674
3 17 6 1.1289 -0.3034
3 17 8 0.1161 -0.1835
3 17 10 -2.6486 -6.2279
3 17 12 1.2851 2.7027
3 17 14 1.0308 -0.9297
3 17 16 0.8928 -4.4947
3 17 18 -0.6020 -5.0360
3 17 20 0.2156 -0.2421
3 17 22 2.0107 -2.2821
3 17 24 1.2274 -0.9322
3 17 26 0.9890 -2.4008
3 18 1 -1.2979 4.4354
3 18 3 -0.3265 1.0638
3 18 5 0.5283 -0.6616
3 18 7 0.3495 1.6540
3 18 9 -0.1956 -0.5502
3 18 11 0.0632 3.0173
3 18 13 -0.9375 -0.4385
3 18 15 0.1209 1.3368
3 18 17 -1.4796 -3.1082
4 1 1 75.5835 74.3301
4 1 3 33.0838 -10.0450
4 1 5 -30.2451 28.0831
4 1 7 180.6587 -90.3382
4 1 11 -55.9465 -7.4561
4 1 13 -105.4629 10.9169
4 1 15 -10.7116 -23.8223
4 1 17 27.2459 43.4032
4 1 19 41.6113 -9.6041
4 1 21 34.8892 12.2930
4 1 23 32.0818 20.8221
4 1 25 -1.5775 -15.2143
4 1 27 -19.3207 0.1749
4 1 29 13.7667 -8.7282
4 1 31 8.4366 2.4335
4 1 33 9.7580 -4.2169
4 1 35 -0.3495 -3.7768
4 1 37 0.7340 11.1093
4 1 39 -12.2523 -1.9296
4 1 41 15.1678 0.2876
4 1 43 7.6577 -6.1950
4 1 45 17.8136 -2.8470
4 1 47 2.8117 -1.1711
4 1 49 -4.0687 -6.4638
4 1 51 -3.8409 -4.1120
4 1 53 5.8924 -0.1931
4 1 55 3.4566 2.0451
4 1 57 -2.7857 2.9269
4 1 59 -3.4802 -0.3896
4 2 0 36.3302 -1.3532
4 2 2 8.5978 0.4846
4 2 4 -25.8251 60.7329
4 2 6 -17.2782 29.6369
4 2 8 40.8596 47.6289
4 2 10 55.5021 -44.8444
4 2 12 23.7262 -30.2163
4 2 14 -18.8999 18.4997
4 2 16 -61.7177 -19.7574
4 2 18 -59.9567 27.0720
4 2 20 -29.7005 28.7537
4 2 22 25.8126 23.3508
4 2 24 0.3007 0.5884
4 2 26 -24.0493 -21.1965
4 2 28 -40.2638 -32.4298
4 2 30 20.8826 -33.0064
4 2 32 0.3387 -3.6797
4 2 34 3.6345 12.1587
4 2 36 -5.9984 0.7370
4 2 38 15.2039 1.0915
4 2 40 -31.0122 -5.9182
4 2 42 -5.0297 -1.0918
4 2 44 -6.4561 4.5384
4 2 46 0.5543 -4.2519
4 2 48 0.2197 11.3943
4 2 50 -0.7625 4.7691
4 2 52 -10.0686 5.0446
4 2 54 -3.3078 -3.1962
4 2 56 0.5510 3.9821
4 2 58 0.5661 -2.2275
4 2 60 -0.7233 -0.7414
4 3 1 -41.9425 31.1227
4 3 3 -26.0668 -18.8445
4 3 5 31.4535 19.4789
4 3 7 -19.9028 -22.7435
4 3 9 10.6875 5.5978
4 3 11 12.7797 0.7550
4 3 13 -7.0736 19.9037
4 3 15 41.3794 -1.5727
4 3 17 9.7144 34.1567
4 3 19 1.8425 8.0042
4 3 21 73.5650 -14.8933
4 3 23 -5.8439 18.5839
4 3 25 1.0231 -33.1019
4 3 27 14.9727 -5.5800
4 3 29 -0.9214 -19.1881
4 3 31 23.6166 -9.5176
4 3 33 -5.2111 12.2320
4 3 35 2.5386 0.6070
4 3 37 7.5179 -1.9670
4 3 39 -8.9443 0.9170
4 3 41 7.3259 0.0240
4 3 43 0.9867 -0.4348
4 3 45 -10.6045 3.0699
4 3 47 5.3906 2.6859
4 3 49 4.6811 16.1272
4 3 51 1.4473 3.0723
4 3 53 6.3739 -1.2100
4 3 55 -2.5149 9.8572
4 3 57 -2.2254 1.5212
4 3 59 0.6304 2.8722
4 4 0 199.6876 -1.1946
4 4 4 5.8410 -95.9313
4 4 6 -148.2032 30.5268
4 4 8 -112.7841 -45.6320
4 4 10 -18.8922 7.3574
4 4 12 67.8667 -58.2359
4 4 14 -80.2409 7.1299
4 4 16 5.4964 -15.4495
4 4 18 42.6008 19.1827
4 4 20 -44.4114 21.6640
4 4 22 21.4758 28.0694
4 4 24 27.2358 -17.1094
4 4 26 44.0136 31.9884
4 4 28 -3.6081 -15.0399
4 4 30 11.2397 -45.6648
4 4 32 -14.7091 2.1836
4 4 34 3.5884 8.5927
4 4 36 -0.0362 14.6160
4 4 38 -7.2622 9.2052
4 4 40 0.4597 2.6409
4 4 42 -10.4088 -18.5699
4 4 44 -3.2628 -20.2324
4 4 46 -0.3317 3.6903
4 4 48 -1.2858 2.6226
4 4 50 -5.0920 2.8576
4 4 52 -7.2543 3.2388
4 4 54 1.6973 -1.1723
4 4 56 2.0356 -1.9842
4 4 58 -4.0424 -7.2777
4 5 1 16.5595 -22.6001
4 5 3 2.5606 32.9946
4 5 5 65.3570 12.3879
4 5 7 -19.7262 37.0167
4 5 9 -20.7611 -44.0260
4 5 11 25.1728 6.4568
4 5 13 -64.5431 40.0679
4 5 15 5.0573 -9.0239
4 5 17 5.7222 -2.3688
4 5 19 -2.0785 -39.1451
4 5 21 -18.1209 -7.5553
4 5 23 -10.6331 2.1704
4 5 25 -30.0002 20.5439
4 5 27 8.9846 14.0584
4 5 29 4.3103 -14.8926
4 5 31 8.2399 -1.7324
4 5 33 -20.1704 5.7215
4 5 35 0.4554 -0.9642
4 5 37 4.5596 -11.4135
4 5 39 -4.6321 -2.5880
4 5 41 -5.5500 6.7489
4 5 43 -9.1165 -2.5202
4 5 45 -0.2313 -7.0656
4 5 47 -7.2107 0.9714
4 5 49 3.3530 -1.8501
4 5 51 -1.8472 -1.2119
4 5 53 -1.6523 -6.7776
4 5 55 -3.0966 -2.9452
4 5 57 2.0904 0.0305
4 6 0 113.0176 -1.0829
4 6 2 -51.8488 -10.4011
4 6 4 -82.0282 17.3212
4 6 6 13.5366 50.7522
4 6 8 -20.2490 24.3190
4 6 10 -2.2460 -3.2371
4 6 12 -0.3029 9.2457
4 6 14 9.5563 26.1080
4 6 16 33.9279 -9.5312
4 6 18 -8.8066 -3.6850
4 6 20 -18.1381 -9.8385
4 6 22 2.8153 27.6043
4 6 24 -38.9916 11.4497
4 6 26 -12.8116 -21.7280
4 6 28 -8.8285 -9.3309
4 6 30 9.3944 19.8336
4 6 32 -0.0060 -28.2912
4 6 34 -2.9688 6.0755
4 6 36 -11.8864 -0.3198
4 6 38 7.4438 5.8571
4 6 40 -14.8318 -7.0221
4 6 42 7.5557 7.9992
4 6 44 0.0373 1.5168
4 6 46 0.8191 -1.1253
4 6 48 2.8120 13.5652
4 6 50 8.6008 -8.9253
4 6 52 -6.2240 2.3180
4 6 54 8.4535 3.7900
4 6 56 -2.0210 -1.2050
4 7 1 5.0462 5.6213
4 7 3 -7.1815 4.2409
4 7 5 -40.6807 16.1992
4 7 7 39.9604 5.2853
4 7 9 7.3207 -38.5434
4 7 11 -27.7247 -11.1976
4 7 13 -32.0705 33.7273
4 7 15 -1.7240 6.9262
4 7 17 0.7180 -9.7741
4 7 19 -12.0027 11.0496
4 7 21 2.3523 -11.6278
4 7 23 10.2017 6.7041
4 7 25 21.8587 0.2221
4 7 27 6.0510 -6.7918
4 7 29 -8.7256 12.6756
4 7 31 -12.6245 9.0084
4 7 33 -2.5531 6.5896
4 7 35 -11.2115 -10.4882
4 7 37 -3.8283 10.5451
4 7 39 -10.3686 -8.4647
4 7 41 8.0520 5.3288
4 7 43 -11.3224 -3.3962
4 7 45 5.5219 2.7192
4 7 47 8.7796 7.7592
4 7 49 0.3328 -1.1064
4 7 51 -2.7736 4.7429
4 7 53 4.4491 -0.0853
4 7 55 1.0074 -3.4454
4 8 0 0.4086 -0.8198
4 8 2 5.9767 -20.2632
4 8 4 45.3215 -28.4217
4 8 6 48.6890 10.1917
4 8 8 -1.5767 22.8304
4 8 10 -25.6883 35.1081
4 8 12 -29.4358 1.3757
4 8 14 23.3478 -9.6958
4 8 16 1.9460 10.0197
4 8 18 -12.0244 8.7143
4 8 20 11.7206 -35.8770
4 8 22 -12.2935 21.5438
4 8 24 -7.3623 -16.1627
4 8 26 -7.4146 -6.1724
4 8 28 10.5310 7.3004
4 8 30 0.9575 8.6262
4 8 32 -28.0959 1.0683
4 8 34 -6.6359 2.0035
4 8 36 -11.7670 15.9918
4 8 38 20.3794 -6.5990
4 8 40 2.2208 -4.6371
4 8 42 -0.7682 -10.4655
4 8 44 -18.4123 19.4408
4 8 46 7.0236 2.3733
4 8 48 8.9831 8.4870
4 8 50 -0.2384 -6.2164
4 8 52 3.9381 -0.6202
4 8 54 -6.8034 -0.1046
4 9 1 -8.8132 -10.6661
4 9 3 -1.7568 0.6218
4 9 5 -8.7871 9.9264
4 9 7 -0.5621 18.1541
4 9 9 37.5111 -18.7016
4 9 11 3.2931 -15.6502
4 9 13 -9.5221 -7.5004
4 9 15 -3.0570 20.7726
4 9 17 1.7617 6.6510
4 9 19 11.1502 -2.5477
4 9 21 24.7698 16.7257
4 9 23 -22.0936 10.3170
4 9 25 3.4509 -2.5119
4 9 27 9.8325 8.7942
4 9 29 -14.4689 -0.9893
4 9 31 -1.6597 9.9556
4 9 33 1.1180 3.4406
4 9 35 -7.8664 2.9975
4 9 37 -4.8155 -6.3489
4 9 39 -10.5076 0.8788
4 9 41 0.2801 -6.2926
4 9 43 -0.2984 10.8889
4 9 45 -3.1006 -1.5553
4 9 47 0.5746 -1.6649
4 9 49 6.7086 6.6585
4 9 51 1.0198 -2.1920
4 9 53 -8.7675 -2.0521
4 10 0 -0.7421 -0.5869
4 10 2 -10.2415 3.2510
4 10 4 6.1103 -19.0032
4 10 6 8.4060 7.5437
4 10 8 5.8979 -0.8053
4 10 10 1.7124 7.7385
4 10 12 -1.6864 -4.4336
4 10 14 -0.0432 -14.4914
4 10 16 9.6590 -1.7266
4 10 18 -6.3344 -1.9920
4 10 20 2.6139 -12.6174
4 10 22 -2.9812 15.0154
4 10 24 -16.3065 -2.2430
4 10 26 -14.0094 8.2338
4 10 28 7.4576 -0.9914
4 10 30 -8.6036 8.4944
4 10 32 5.1851 0.9193
4 10 34 0.0800 2.7060
4 10 36 -3.5993 11.3110
4 10 38 0.3181 -1.1290
4 10 40 -9.7332 -14.2180
4 10 42 0.6255 -2.5663
4 10 44 -2.8895 6.3422
4 10 46 -6.9096 3.2237
4 10 48 2.4091 2.8331
4 10 50 -0.0226 -10.2055
4 11 1 -3.9689 -2.0033
4 11 3 -2.2444 9.2742
4 11 5 9.0333 7.6160
4 11 7 -8.8957 -6.6251
4 11 9 -0.4200 1.8093
4 11 11 1.7703 -5.6243
4 11 13 -6.5610 -5.1039
4 11 15 4.1423 3.6680
4 11 17 -10.5075 9.9476
4 11 19 5.6872 -0.1487
4 11 21 -12.2225 -0.4488
4 11 23 -11.3358 12.9756
4 11 25 13.6077 -2.7836
4 11 27 10.2663 7.7827
4 11 29 2.3995 -12.9442
4 11 31 6.7981 -14.0277
4 11 33 3.4288 -0.9290
4 11 35 -3.6584 -6.4629
4 11 37 -4.1685 -3.2648
4 11 39 0.8360 5.3069
4 11 41 0.8696 -1.0532
4 11 43 -1.4826 -0.6197
4 11 45 5.2531 -4.7981
4 11 47 1.8258 -2.0280
4 12 0 -1.3942 -0.3918
4 12 2 -13.1004 -6.2251
4 12 4 -11.8968 -2.7380
4 12 6 4.4141 -0.5813
4 12 8 1.6071 2.9472
4 12 10 6.2483 -3.5540
4 12 12 7.3986 -2.6512
4 12 14 -11.3948 6.1657
4 12 16 6.1923 0.8006
4 12 18 0.5835 0.9544
4 12 20 -0.8831 -3.0419
4 12 22 1.6756 0.0408
4 12 24 5.0277 4.1842
4 12 26 -17.5640 -8.9901
4 12 28 0.7988 5.0109
4 12 30 -12.0386 4.4603
4 12 32 1.6731 -3.4478
4 12 34 4.4993 0.9904
4 12 36 -4.1245 -8.2665
4 12 38 -5.9356 4.7982
4 12 40 -2.3817 -2.4853
4 12 42 -2.2495 -2.6117
4 12 44 -4.0400 5.4701
4 12 46 -4.8107 -0.8013
4 13 1 5.0043 0.6792
4 13 3 0.9452 0.1281
4 13 5 -1.9438 -0.9496
4 13 7 -1.8937 -1.0966
4 13 9 4.6140 3.8685
4 13 11 3.0993 2.7466
4 13 13 -5.7352 -0.7387
4 13 15 -4.3643 -9.4827
4 13 17 8.1231 -1.4931
4 13 19 3.0878 -5.5909
4 13 21 -0.5985 7.7052
4 13 23 1.1974 0.8641
4 13 25 -0.7183 6.1065
4 13 27 3.4591 0.6170
4 13 29 1.6613 -5.8826
4 13 31 -0.8632 -5.6150
4 13 33 0.6248 2.6095
4 13 35 -3.4986 1.5867
4 13 37 0.9365 -1.7954
4 13 39 1.6580 1.1730
4 13 41 0.5202 -3.5980
4 13 43 -0.0202 3.8810
4 14 0 0.6130 -0.2416
4 14 2 2.0986 -0.5295
4 14 4 -1.6573 1.2664
4 14 6 -2.8628 3.5480
4 14 8 -1.1330 -0.9676
4 14 10 -4.9741 -4.1881
4 14 12 0.7279 -4.9121
4 14 14 1.3937 4.0401
4 14 16 -0.6279 -1.2754
4 14 18 -1.6991 2.3425
4 14 20 2.3203 2.4693
4 14 22 5.7060 -6.8243
4 14 24 0.3642 6.8292
4 14 26 -0.5780 -1.2290
4 14 28 -0.8709 -2.2297
4 14 30 -4.7280 1.8826
4 14 32 -2.5813 0.1398
4 14 34 -2.7151 -1.6703
4 14 36 3.3565 0.9965
4 14 38 -4.0862 1.1237
4 15 1 -2.8451 -1.0220
4 15 3 0.9479 -0.9173
4 15 5 -3.0806 3.7773
4 15 7 2.8201 -1.2881
4 15 9 -3.9493 0.5590
4 15 11 -0.0404 4.0165
4 15 13 -1.4688 2.5565
4 15 15 3.9080 -3.3443
4 15 17 0.8867 -2.2279
4 15 19 3.6815 3.4831
4 15 21 1.3446 -3.6992
4 15 23 0.2925 -0.3427
4 15 25 -4.3046 -2.2981
4 15 27 -0.4450 -1.9024
4 15 29 -2.7550 1.7727
4 15 31 2.0917 1.4641
4 15 33 2.7401 -3.1730
4 15 35 3.3935 5.7439
4 16 0 -0.3818 -0.1310
4 16 2 -2.0172 2.6360
4 16 4 -0.3303 1.5657
4 16 6 -0.4130 -0.2648
4 16 8 1.7027 -1.2491
4 16 10 -4.3526 -1.3554
4 16 12 1.5533 5.8656
4 16 14 1.6497 8.8635
4 16 16 -1.4377 -8.6583
4 16 18 -1.5149 0.4283
4 16 20 -2.1582 -2.3086
4 16 22 1.1764 -2.9940
4 16 24 -1.1894 1.7434
4 16 26 0.9911 -1.0363
4 16 28 1.3453 1.4656
4 16 30 0.3044 -1.8568
4 17 1 0.5820 -0.1697
4 17 3 -0.2650 0.6078
4 17 5 -1.4030 2.3006
4 17 7 0.0357 -1.7909
4 17 9 -1.6652 1.1859
4 17 11 -2.2452 2.7009
4 17 13 1.9419 -1.9240
4 17 15 -2.6487 6.2440
4 17 17 2.5516 -0.5600
4 17 19 -0.3383 -1.2636
4 17 21 -1.7861 -3.2774
4 17 23 0.7177 -2.4402
4 18 0 -0.9530 -0.0988
4 18 2 -0.2039 0.3642
4 18 4 -1.4216 0.6599
4 18 6 1.5335 -0.2259
4 18 8 -2.3483 1.4621
4 18 10 0.4935 0.0275
4 18 12 1.7480 7.2752
4 18 14 1.3441 1.6737
5 1 0 1.7509 1.3115
5 1 2 17.8647 -34.6595
5 1 4 11.0205 -48.4948
5 1 6 33.0827 -28.3183
5 1 8 14.5647 12.4778
5 1 10 37.3363 13.3699
5 1 12 11.6721 22.1823
5 1 14 -52.7287 26.5540
5 1 16 39.1422 -0.9176
5 1 18 -11.7121 -4.4212
5 1 20 3.8045 12.7240
5 1 22 7.1001 11.2712
5 1 24 14.8570 3.1481
5 1 26 3.9111 7.0416
5 1 28 11.1587 -16.8325
5 1 30 3.0295 -16.3651
5 1 32 18.9911 8.0315
5 1 34 -5.0551 -2.6379
5 1 36 4.6559 5.4739
5 1 38 2.9800 -0.9807
5 1 40 5.6439 4.2057
5 1 42 -0.8000 3.5330
5 1 44 -0.4924 2.2808
5 1 46 -5.0423 4.5401
5 1 48 3.2265 7.2757
5 1 50 -0.9741 -0.8735
5 1 52 -3.1716 -2.9606
5 1 54 -1.6120 1.1414
5 1 56 0.4122 -0.1605
5 1 58 -2.4658 4.4011
5 2 1 51.0714 36.9917
5 2 3 5.7200 -52.6620
5 2 5 -43.5624 -3.9839
5 2 7 23.4970 -137.9391
5 2 9 -20.5350 -47.8336
5 2 11 -27.8433 -9.1149
5 2 13 -51.8040 -15.7273
5 2 15 -14.8417 55.2228
5 2 17 -10.9887 -26.4864
5 2 19 -22.4920 12.8921
5 2 21 52.0860 -0.7129
5 2 23 55.5954 -16.8348
5 2 25 13.2734 -16.1030
5 2 27 19.1493 -2.2068
5 2 29 -4.0194 2.2696
5 2 31 -4.7520 -12.3370
5 2 33 -6.5793 -6.8256
5 2 35 1.3542 8.4518
5 2 37 3.9046 11.4691
5 2 39 -4.9420 4.8546
5 2 41 6.7655 -2.5509
5 2 43 1.4031 -8.2252
5 2 45 10.3209 -5.4320
5 2 47 1.0107 -1.4599
5 2 49 -5.1247 2.5199
5 2 51 1.2393 -1.5824
5 2 53 5.8285 -7.7644
5 2 55 -4.3138 6.1291
5 2 57 0.3500 4.1013
5 2 59 0.5777 -3.4540
5 3 0 109.8695 1.2574
5 3 2 1.3022 -76.1989
5 3 4 38.0740 -53.9183
5 3 6 9.7513 33.4565
5 3 8 -104.6479 -54.1737
5 3 10 -33.7388 20.9465
5 3 12 -10.2872 65.7526
5 3 14 14.0436 -19.4100
5 3 16 -2.4138 19.8991
5 3 18 -32.0857 -24.7101
5 3 20 -7.2892 8.0850
5 3 22 -18.1260 17.5995
5 3 24 14.1144 5.0374
5 3 26 -27.1465 -5.5367
5 3 28 -7.9801 19.0985
5 3 30 13.1598 -2.0355
5 3 32 7.4816 -11.2498
5 3 34 -14.1155 -12.3017
5 3 36 -9.8719 11.0296
5 3 38 -13.0526 1.4113
5 3 40 -6.7722 -1.6994
5 3 42 -3.1452 3.5858
5 3 44 -5.2125 -6.4158
5 3 46 -2.9938 2.9867
5 3 48 0.9883 -6.6736
5 3 50 -8.7641 9.5616
5 3 52 12.7967 -4.6674
5 3 54 -9.3430 -1.7738
5 3 56 -0.7156 1.0778
5 3 58 -3.1514 -0.2604
5 4 1 -19.4669 18.9081
5 4 3 -22.1024 -14.8690
5 4 5 -58.7446 -29.5475
5 4 7 16.5630 -21.2795
5 4 9 -3.5053 36.6846
5 4 11 2.8130 17.4098
5 4 13 -6.6361 -9.5260
5 4 15 1.1039 9.0416
5 4 17 -11.1490 3.9696
5 4 19 11.5889 42.0525
5 4 21 -0.0134 -20.3273
5 4 23 15.4706 0.4848
5 4 25 30.7593 -18.4099
5 4 27 -12.0747 -14.3523
5 4 29 -11.5065 8.4639
5 4 31 -14.1407 5.6558
5 4 33 -0.8482 9.8977
5 4 35 1.5705 11.3165
5 4 37 1.7066 -0.4483
5 4 39 1.5224 2.7463
5 4 41 14.1899 -2.8036
5 4 43 -3.3185 -9.1017
5 4 45 2.9859 1.0767
5 4 47 12.7990 11.1450
5 4 49 -1.2086 -2.6211
5 4 51 2.8907 -7.0034
5 4 53 5.0236 0.7638
5 4 55 -0.3293 4.7543
5 4 57 -1.1530 -0.9006
5 5 0 119.2171 0.9866
5 5 2 54.5133 63.3363
5 5 4 -12.8477 -67.3441
5 5 6 -68.3444 -34.5327
5 5 8 -9.1935 -38.1227
5 5 10 -70.7419 -20.3084
5 5 12 -40.7249 -65.1961
5 5 14 -9.9521 -29.0968
5 5 16 15.2654 1.4473
5 5 18 -5.5110 -0.1294
5 5 20 -20.2032 -11.4791
5 5 22 -40.8400 -30.8816
5 5 24 -52.5517 -10.4279
5 5 26 3.3219 26.9202
5 5 28 -0.5406 -13.8473
5 5 30 33.2034 1.1762
5 5 32 -13.7679 0.8278
5 5 34 12.7072 7.1928
5 5 36 0.8746 6.9481
5 5 38 -10.3907 3.3490
5 5 40 -4.5347 -10.4315
5 5 42 -10.2651 0.9419
5 5 44 11.8829 -11.3439
5 5 46 3.7292 -3.3269
5 5 48 12.1891 25.4910
5 5 50 6.1142 -1.6987
5 5 52 2.9784 -4.1873
5 5 54 -1.4334 3.3173
5 5 56 -4.4429 -16.7602
5 6 1 -5.5913 -5.3791
5 6 3 11.4325 1.4521
5 6 5 1.5749 34.3120
5 6 7 21.9623 16.9323
5 6 9 37.4158 60.4180
5 6 11 -8.0236 -39.0934
5 6 13 12.9039 2.2267
5 6 15 -4.0604 3.4736
5 6 17 -3.3701 -10.9011
5 6 19 -13.9848 2.9723
5 6 21 18.6724 -23.2290
5 6 23 -16.8443 0.9684
5 6 25 -51.9891 -16.1442
5 6 27 17.1191 -1.7980
5 6 29 -12.9223 22.0399
5 6 31 -17.1331 32.3156
5 6 33 -19.3949 7.7927
5 6 35 -0.6597 -8.4827
5 6 37 -12.1091 -0.7102
5 6 39 -5.3494 -2.9564
5 6 41 1.3372 9.1895
5 6 43 7.9881 8.5703
5 6 45 -3.5286 4.5675
5 6 47 0.2499 -3.2206
5 6 49 6.6008 -1.6745
5 6 51 0.2945 -2.5770
5 6 53 8.6755 4.6512
5 6 55 -2.3016 -3.0418
5 7 0 -47.4534 0.8984
5 7 2 20.6427 -19.7931
5 7 4 -32.7067 17.7768
5 7 6 18.5270 -18.8181
5 7 8 14.8762 -7.3733
5 7 10 5.7394 -12.7824
5 7 12 4.2880 14.4696
5 7 14 -3.5633 30.3455
5 7 16 -13.9006 42.2579
5 7 18 -11.7969 -20.5170
5 7 20 -2.5798 20.4731
5 7 22 0.3002 23.9662
5 7 24 2.2768 11.1777
5 7 26 3.5508 1.9541
5 7 28 2.9193 21.3297
5 7 30 -3.6444 -9.9370
5 7 32 38.8255 11.4774
5 7 34 6.4637 4.2512
5 7 36 11.1491 -0.1417
5 7 38 -24.8460 3.7672
5 7 40 -1.9424 1.5802
5 7 42 2.0997 -1.3636
5 7 44 18.1970 -12.9744
5 7 46 5.8229 -0.3142
5 7 48 -3.2911 -5.8620
5 7 50 -3.2566 2.9906
5 7 52 -9.3837 7.2328
5 7 54 0.6065 1.3516
5 8 1 28.2840 -12.1154
5 8 3 37.3638 -42.1108
5 8 5 -31.9244 39.0975
5 8 7 35.9931 1.7217
5 8 9 18.4629 1.1244
5 8 11 -0.4468 -1.1806
5 8 13 29.2217 2.6292
5 8 15 12.1857 -2.5461
5 8 17 -4.6835 -0.9264
5 8 19 -13.9015 -8.9533
5 8 21 -0.8063 -9.7691
5 8 23 -21.8232 12.1207
5 8 25 12.0223 -14.4771
5 8 27 -4.3116 13.9593
5 8 29 -10.8176 1.4910
5 8 31 18.2634 6.5245
5 8 33 -0.8619 1.2623
5 8 35 10.8364 15.0854
5 8 37 1.2105 -11.7522
5 8 39 -3.4619 -2.1822
5 8 41 -5.0180 1.7810
5 8 43 2.9729 16.5578
5 8 45 1.8404 2.8193
5 8 47 0.4655 -1.4477
5 8 49 3.2796 -2.5363
5 8 51 2.1685 -4.6179
5 8 53 -12.1678 -10.8875
5 9 0 9.5174 0.6489
5 9 2 -3.6823 -12.9891
5 9 4 25.6543 12.8604
5 9 6 14.8964 -6.4106
5 9 8 30.7630 -4.9664
5 9 10 -20.5666 7.7152
5 9 12 10.5874 10.1951
5 9 14 16.5685 20.7218
5 9 16 -16.3944 5.1268
5 9 18 8.8712 -9.5562
5 9 20 12.7805 -1.5962
5 9 22 -13.0945 21.3856
5 9 24 1.8416 0.2005
5 9 26 -5.5291 -6.0108
5 9 28 21.4737 21.8185
5 9 30 -9.1753 14.5451
5 9 32 -1.8872 -6.6385
5 9 34 7.2257 6.4750
5 9 36 0.7690 -10.6258
5 9 38 -12.1336 -0.6039
5 9 40 -10.4433 -10.3641
5 9 42 -2.0680 -2.0490
5 9 44 1.3954 -5.9252
5 9 46 -4.7621 0.4676
5 9 48 -7.4163 -12.8267
5 9 50 -1.9418 0.3439
5 9 52 -8.3713 4.3972
5 10 1 -11.2822 7.4217
5 10 3 1.9452 0.7304
5 10 5 -0.2204 -2.2849
5 10 7 -3.7634 -0.3217
5 10 9 -4.3202 -17.1361
5 10 11 5.7742 -8.9939
5 10 13 3.7689 -12.4565
5 10 15 -4.3281 -3.7203
5 10 17 -1.4896 6.8898
5 10 19 -4.8238 -1.9359
5 10 21 -0.1934 10.0237
5 10 23 2.9075 -3.7823
5 10 25 -1.1753 12.4446
5 10 27 9.8706 15.2028
5 10 29 -6.8018 0.7373
5 10 31 7.2058 3.4295
5 10 33 3.7300 -2.6534
5 10 35 2.3193 10.3554
5 10 37 -3.3686 1.8357
5 10 39 8.1391 -7.2197
5 10 41 -9.6595 1.3080
5 10 43 -3.6796 0.2814
5 10 45 8.3223 -0.6108
5 10 47 1.9414 -1.5227
5 10 49 5.6361 2.4040
5 11 0 -6.7784 0.4605
5 11 2 7.9864 4.1109
5 11 4 7.6505 -4.7817
5 11 6 0.8362 -0.2226
5 11 8 6.1055 7.5098
5 11 10 -3.1933 1.7669
5 11 12 -9.1715 -5.3561
5 11 14 10.8350 -6.9468
5 11 16 -3.5464 2.0515
5 11 18 9.7300 1.5604
5 11 20 0.8906 -11.3402
5 11 22 -7.8679 -1.9654
5 11 24 -8.0008 -0.6820
5 11 26 10.3571 7.4735
5 11 28 5.1643 8.7183
5 11 30 -0.2622 -4.5524
5 11 32 3.6201 1.8838
5 11 34 0.0004 -2.4595
5 11 36 -0.9720 6.2239
5 11 38 5.6771 -2.1457
5 11 40 -8.4070 -2.6286
5 11 42 7.6984 0.6994
5 11 44 -6.9071 2.4488
5 11 46 -0.7947 -5.0354
5 12 1 -0.8794 3.1298
5 12 3 -0.4297 -0.8793
5 12 5 0.8917 -10.7424
5 12 7 -13.7155 1.6698
5 12 9 3.4948 13.1479
5 12 11 -5.0513 -11.2168
5 12 13 -2.4538 0.9485
5 12 15 -4.8111 -2.0140
5 12 17 0.6082 -8.1146
5 12 19 -0.0385 -0.7857
5 12 21 6.8249 14.2020
5 12 23 0.6914 -3.1667
5 12 25 10.6673 4.3146
5 12 27 -7.6174 -3.6420
5 12 29 -3.8425 6.4145
5 12 31 -1.7044 0.5944
5 12 33 -1.4307 3.4260
5 12 35 3.2685 -1.8385
5 12 37 -0.9920 -2.4989
5 12 39 1.8436 2.2067
5 12 41 -3.9533 -8.5267
5 12 43 -4.3158 -0.1604
5 12 45 1.3263 3.3745
5 13 0 -2.4057 0.3008
5 13 2 8.2237 4.7393
5 13 4 3.3014 4.3385
5 13 6 2.5866 6.1018
5 13 8 3.1383 0.4691
5 13 10 0.1573 -0.0761
5 13 12 1.4949 -1.1529
5 13 14 -2.3124 -1.7530
5 13 16 1.5729 1.3504
5 13 18 4.8956 -8.3983
5 13 20 0.4930 -5.2344
5 13 22 -3.5121 -13.9377
5 13 24 -2.4800 1.8301
5 13 26 -2.3417 -0.4602
5 13 28 -1.6006 3.8487
5 13 30 -1.4704 0.3926
5 13 32 -0.2092 8.0291
5 13 34 -0.3902 -1.9416
5 13 36 -0.2773 -1.8129
5 13 38 -3.2803 2.7674
5 13 40 -1.5630 5.7663
5 13 42 2.9775 3.2164
5 14 1 -1.0459 -5.6427
5 14 3 2.9623 -1.8813
5 14 5 -1.5448 1.7867
5 14 7 -1.3529 0.6363
5 14 9 -1.1297 -2.7701
5 14 11 -0.0830 -1.7037
5 14 13 2.5074 -4.3881
5 14 15 1.4225 -6.9688
5 14 17 7.5464 -2.0144
5 14 19 4.5826 -2.0296
5 14 21 -1.4364 4.8422
5 14 23 3.2271 5.8272
5 14 25 2.4054 0.4733
5 14 27 -0.9767 1.0697
5 14 29 -4.5213 -0.2533
5 14 31 1.1039 0.9067
5 14 33 2.9958 -0.7173
5 14 35 1.1736 0.7022
5 14 37 -1.3487 1.1946
5 15 0 1.0319 0.1881
5 15 2 -3.8891 1.4792
5 15 4 0.3631 3.9499
5 15 6 -0.2616 -0.1167
5 15 8 0.3175 0.7687
5 15 10 -0.7713 1.6338
5 15 12 1.4538 -0.9658
5 15 14 4.5594 -1.7296
5 15 16 -0.2928 9.3470
5 15 18 -11.3035 4.1155
5 15 20 1.2794 4.2552
5 15 22 -3.7699 -2.5943
5 15 24 -4.1260 -3.2982
5 15 26 4.3327 1.8535
5 15 28 -2.0223 -1.6470
5 15 30 1.2353 3.4017
5 15 32 0.0556 0.4188
5 15 34 3.0511 2.8995
5 16 1 0.8978 -0.0307
5 16 3 0.7503 0.0856
5 16 5 -1.4363 -0.4639
5 16 7 4.7061 -2.7648
5 16 9 -1.4278 0.5406
5 16 11 -1.8317 5.4609
5 16 13 -2.2973 1.0031
5 16 15 1.1277 -1.5352
5 16 17 1.2073 0.6518
5 16 19 0.5586 4.6106
5 16 21 -0.4370 -1.8144
5 16 23 1.7426 -0.9133
5 16 25 1.0227 -5.0921
5 16 27 2.0945 1.2574
5 16 29 -2.0692 3.1137
5 17 0 0.3135 0.1121
5 17 2 1.1187 0.4055
5 17 4 -2.4344 4.7543
5 17 6 -0.4715 -5.9121
5 17 8 -1.3946 -0.7592
5 17 10 0.4700 -4.3232
5 17 12 -2.7011 4.4849
5 17 14 1.1076 -0.2818
5 17 16 -1.6575 0.1890
5 17 18 -0.6015 2.9862
5 17 20 0.9512 1.4162
5 17 22 -3.6578 0.3965
5 18 1 -0.8442 1.6416
5 18 3 1.8343 3.6162
5 18 5 2.9789 -2.1587
5 18 7 -3.6092 -2.8128
5 18 9 -0.1359 -0.1661
5 18 11 -0.1657 -1.3079
6 1 1 -35.5524 -15.9339
6 1 3 -5.5779 13.7207
6 1 5 40.3748 6.7940
6 1 7 77.8222 -1.3197
6 1 9 8.3187 -74.3618
6 1 11 5.7812 -54.5271
6 1 13 -37.2798 1.5583
6 1 15 25.3483 0.8664
6 1 17 -18.0223 -4.8389
6 1 19 -17.6074 5.3748
6 1 21 57.9193 8.6374
6 1 23 -12.1099 25.8637
6 1 25 27.8733 -31.9391
6 1 27 18.8185 16.2573
6 1 29 7.0037 -5.5668
6 1 31 -0.9871 15.8703
6 1 33 7.4114 -7.2436
6 1 35 3.9390 5.9660
6 1 37 5.4737 -9.4325
6 1 39 -11.2484 -4.2455
6 1 41 4.8339 8.1837
6 1 43 7.3688 2.2725
6 1 45 0.0097 1.8323
6 1 47 0.2593 -8.6832
6 1 49 -1.6706 -4.3050
6 1 51 -0.5095 -5.8936
6 1 53 3.2679 -0.3432
6 1 55 2.1099 -0.1541
6 1 57 0.7382 -3.9779
6 2 0 -39.9475 -1.1766
6 2 2 -48.4162 23.5470
6 2 4 -26.0399 -72.1767
6 2 6 -1.6399 -2.3729
6 2 8 67.4878 -31.1760
6 2 10 -17.5279 32.4836
6 2 12 19.0547 21.3471
6 2 14 -8.8426 -15.1119
6 2 16 19.2155 -31.0556
6 2 18 -1.3545 33.4392
6 2 20 -8.5672 -2.5168
6 2 22 9.4809 11.4348
6 2 24 -12.6447 10.2077
6 2 26 -15.8111 1.8154
6 2 28 4.0709 5.7595
6 2 30 -24.9259 5.9400
6 2 32 9.1036 0.8336
6 2 34 -1.6475 9.9044
6 2 36 -11.3883 0.8639
6 2 38 3.7303 2.0231
6 2 40 1.1507 4.5706
6 2 42 7.4034 -2.4867
6 2 44 4.2596 1.5125
6 2 46 7.9248 -2.8719
6 2 48 -7.2911 -3.4964
6 2 50 0.3665 -3.4137
6 2 52 9.2051 -3.2486
6 2 54 -2.6591 -1.3235
6 2 56 0.6028 1.5827
6 2 58 -0.0084 1.3220
6 3 1 -23.4364 12.5619
6 3 3 6.0868 -4.1178
6 3 5 -11.6773 -26.7065
6 3 7 -1.5323 -17.2826
6 3 9 14.2487 -15.5025
6 3 11 -0.5514 6.6598
6 3 13 11.7165 -80.2053
6 3 15 14.2679 -4.1705
6 3 17 -35.2918 -2.5535
6 3 19 -49.2759 2.9469
6 3 21 19.8647 6.1855
6 3 23 -7.4509 -7.1063
6 3 25 9.8326 -29.7006
6 3 27 -14.4300 -23.2097
6 3 29 -14.5044 -2.1263
6 3 31 4.9028 3.3748
6 3 33 -1.6896 19.9460
6 3 35 5.1269 -17.9944
6 3 37 -4.1985 13.3512
6 3 39 -7.1208 0.3585
6 3 41 5.7568 1.0850
6 3 43 -6.0311 -3.9651
6 3 45 -6.9805 12.1392
6 3 47 4.6089 7.2194
6 3 49 1.5926 4.2272
6 3 51 2.1941 -5.5663
6 3 53 3.0990 -2.3848
6 3 55 -5.0537 1.2940
6 3 57 2.2973 -5.6614
6 4 0 103.5283 -1.1009
6 4 2 -40.4854 -32.0138
6 4 4 -96.4276 -56.5460
6 4 6 0.5092 48.5190
6 4 8 -27.7611 14.8404
6 4 10 7.0721 -1.4155
6 4 12 16.1657 14.6821
6 4 14 46.8126 -20.5358
6 4 16 50.3037 -22.7934
6 4 18 -12.5937 -5.6654
6 4 20 -14.2870 -1.5611
6 4 22 3.1058 16.5712
6 4 24 -16.6006 -0.8279
6 4 26 -0.3632 -19.6631
6 4 28 -12.6465 -10.2949
6 4 30 12.8113 16.9086
6 4 32 7.0504 -4.2946
6 4 34 1.5067 12.0095
6 4 36 6.7498 26.5664
6 4 38 -3.5084 4.0268
6 4 40 0.3924 0.7767
6 4 42 3.8912 10.7372
6 4 44 2.8469 3.6883
6 4 46 -2.3670 -2.8815
6 4 48 -4.1535 8.0460
6 4 50 6.3969 -10.2365
6 4 52 -5.8543 2.0733
6 4 54 4.5914 2.7371
6 4 56 -1.9004 2.8038
6 5 1 31.8885 -6.7678
6 5 3 -10.4961 -2.2795
6 5 5 -2.4387 -35.6327
6 5 7 -20.7073 8.0980
6 5 9 -36.5255 -51.6842
6 5 11 -15.0493 13.7898
6 5 13 -28.8929 -10.5814
6 5 15 0.0058 -0.2403
6 5 17 -35.2528 -14.2757
6 5 19 12.3532 -8.4110
6 5 21 -30.4302 -3.6327
6 5 23 9.4227 -27.5103
6 5 25 48.6692 6.9023
6 5 27 -22.5059 16.9518
6 5 29 9.8768 -17.4013
6 5 31 -0.3919 9.6537
6 5 33 17.1184 -8.7800
6 5 35 -1.8594 4.3736
6 5 37 7.8958 -7.6641
6 5 39 -0.6095 6.3648
6 5 41 -0.5304 -6.9764
6 5 43 -7.1260 -8.0288
6 5 45 5.2492 -5.6530
6 5 47 -1.6014 2.8172
6 5 49 -3.4556 -2.2862
6 5 51 0.1355 -4.3092
6 5 53 -5.3211 -2.1045
6 5 55 -0.4962 -1.3134
6 6 0 14.0732 -0.8994
6 6 2 36.0688 45.8386
6 6 4 -16.1144 -6.5459
6 6 6 5.5029 40.9503
6 6 8 9.4072 75.3356
6 6 10 24.2388 -9.9421
6 6 12 43.9397 -9.3552
6 6 14 59.4518 -11.5721
6 6 16 51.2456 -23.4404
6 6 18 -17.4195 -31.1477
6 6 20 -38.0665 -3.0913
6 6 22 -23.8673 34.2292
6 6 24 -26.4475 -7.5772
6 6 26 25.3622 11.3591
6 6 28 -6.2634 -6.3066
6 6 30 5.2612 4.0402
6 6 32 36.7895 -6.1155
6 6 34 11.5587 10.9797
6 6 36 -4.5600 13.1214
6 6 38 -2.0184 28.2873
6 6 40 7.4051 -1.1091
6 6 42 -3.0346 -15.4408
6 6 44 -9.7601 11.7674
6 6 46 1.2149 7.6313
6 6 48 2.4567 -18.9317
6 6 50 -2.5818 -10.3415
6 6 52 -8.7801 3.0156
6 6 54 -5.8916 -3.4800
6 7 1 -8.3129 8.7397
6 7 3 0.8707 8.9718
6 7 5 6.7069 -11.1486
6 7 7 -35.7643 15.7293
6 7 9 34.2930 -9.6585
6 7 11 26.1243 21.6076
6 7 13 8.0149 29.4042
6 7 15 -7.6805 32.6852
6 7 17 13.6831 0.9817
6 7 19 -2.8863 3.8491
6 7 21 28.3085 6.9883
6 7 23 -17.8649 7.6922
6 7 25 18.8412 8.1507
6 7 27 13.4802 5.1128
6 7 29 4.6514 1.6261
6 7 31 -6.3610 4.8983
6 7 33 -7.6377 -2.0321
6 7 35 1.7364 17.1248
6 7 37 14.1286 -1.8868
6 7 39 3.1093 -5.4896
6 7 41 -6.2819 -10.9433
6 7 43 5.7834 -6.1338
6 7 45 -2.9667 1.1768
6 7 47 -2.3610 2.7994
6 7 49 -0.6241 0.4720
6 7 51 -2.8413 1.9940
6 7 53 -1.1015 -5.2863
6 8 0 1.3627 -0.7198
6 8 2 38.8676 -21.0694
6 8 4 -6.5576 -23.3740
6 8 6 -5.7474 -5.9655
6 8 8 -4.7393 -12.7893
6 8 10 6.6034 10.6184
6 8 12 15.6587 -2.7979
6 8 14 2.2242 12.0957
6 8 16 -22.9057 -9.7062
6 8 18 -11.4691 3.0756
6 8 20 -6.3644 -6.8525
6 8 22 -1.8597 -13.0724
6 8 24 4.1854 -12.6697
6 8 26 19.7769 6.7080
6 8 28 6.9208 -3.2516
6 8 30 1.6758 3.5337
6 8 32 -17.9832 -2.7598
6 8 34 11.5954 9.0347
6 8 36 -5.6584 18.9362
6 8 38 10.5901 -2.1907
6 8 40 5.9124 1.4298
6 8 42 -7.5234 -12.6642
6 8 44 6.5178 -9.9459
6 8 46 0.4680 -1.8476
6 8 48 3.6423 9.6633
6 8 50 4.4180 -11.8488
6 8 52 -10.8870 3.1875
6 9 1 13.0710 -5.4777
6 9 3 -8.0977 6.7839
6 9 5 3.3597 5.0531
6 9 7 17.5902 19.2606
6 9 9 -7.9357 -16.3747
6 9 11 20.1166 12.3867
6 9 13 3.6266 -23.1034
6 9 15 18.8169 21.0177
6 9 17 3.1756 2.4077
6 9 19 2.6728 -8.8339
6 9 21 -4.9408 1.6992
6 9 23 0.4885 -0.3457
6 9 25 10.7168 -15.5101
6 9 27 1.9590 -8.7117
6 9 29 -10.3375 12.1040
6 9 31 6.3499 -0.0396
6 9 33 2.2813 12.8904
6 9 35 1.7348 -14.4920
6 9 37 4.5203 -1.1140
6 9 39 -0.4740 -6.8341
6 9 41 10.7562 3.1360
6 9 43 -2.4319 10.6158
6 9 45 0.1766 -1.8385
6 9 47 -1.2189 2.7331
6 9 49 3.9742 2.5711
6 10 0 25.5208 -0.5419
6 10 2 -11.0865 -5.1427
6 10 4 -26.8368 -33.3759
6 10 6 -4.9738 -9.5706
6 10 8 -0.8477 -7.0099
6 10 10 2.1358 -8.0825
6 10 12 6.7027 21.3347
6 10 14 6.4339 -10.3283
6 10 16 -6.2332 -3.0407
6 10 18 17.1490 -5.7617
6 10 20 8.3893 5.6010
6 10 22 6.3641 17.2131
6 10 24 1.4839 -1.3643
6 10 26 2.0878 21.9271
6 10 28 5.1102 12.1944
6 10 30 3.2845 7.2436
6 10 32 -2.3589 1.9232
6 10 34 -1.8344 4.8056
6 10 36 -3.6968 9.8292
6 10 38 -2.8434 -2.2312
6 10 40 -1.8607 -2.4672
6 10 42 3.2747 -2.1037
6 10 44 -10.7805 -0.6886
6 10 46 -5.9257 0.5399
6 10 48 -9.8158 -11.0221
6 11 1 6.0401 -0.9972
6 11 3 8.7328 -9.0202
6 11 5 -4.2122 -1.8205
6 11 7 11.7189 17.2033
6 11 9 -3.5328 -0.3617
6 11 11 -7.7881 1.4775
6 11 13 -4.5435 -12.2067
6 11 15 1.2615 -3.6500
6 11 17 1.2035 -5.8523
6 11 19 0.4393 1.6206
6 11 21 -3.7365 3.1084
6 11 23 4.4016 -3.7275
6 11 25 -1.0713 -1.1807
6 11 27 4.3109 -3.3710
6 11 29 -0.9994 -1.6387
6 11 31 -0.3005 1.7162
6 11 33 2.0605 -3.1776
6 11 35 -2.3151 3.9033
6 11 37 2.1404 3.9774
6 11 39 -1.2371 -3.1882
6 11 41 4.5240 5.2972
6 11 43 -0.4368 -1.5489
6 11 45 5.7502 0.3171
6 12 0 3.4885 -0.3737
6 12 2 2.3498 2.2750
6 12 4 -4.7139 -5.6008
6 12 6 -2.8208 7.4300
6 12 8 -5.6418 4.0009
6 12 10 1.5995 1.2189
6 12 12 -4.4994 -2.8134
6 12 14 3.4085 -6.4629
6 12 16 1.0995 4.0095
6 12 18 2.8105 -2.2769
6 12 20 6.7461 -1.3003
6 12 22 -5.0245 0.4714
6 12 24 3.9493 -1.8789
6 12 26 4.8384 3.4267
6 12 28 0.7692 -0.1158
6 12 30 2.3728 -2.2215
6 12 32 2.6345 3.9155
6 12 34 1.2304 -5.4468
6 12 36 -2.1991 2.6042
6 12 38 5.9602 -1.3261
6 12 40 -6.9227 4.6054
6 12 42 0.9905 -3.9965
6 13 1 4.1918 2.6823
6 13 3 1.4031 3.9828
6 13 5 0.9780 -1.1373
6 13 7 -3.7532 8.3807
6 13 9 2.1928 2.6418
6 13 11 2.7604 -7.8373
6 13 13 -2.0111 -0.9466
6 13 15 3.9689 2.5385
6 13 17 -0.8346 -2.7726
6 13 19 -4.8412 2.5929
6 13 21 0.6202 3.2519
6 13 23 -1.0722 -3.8938
6 13 25 -4.9665 3.9522
6 13 27 0.6210 0.1410
6 13 29 -1.0862 2.1073
6 13 31 3.3774 2.2113
6 13 33 -0.3111 0.3977
6 13 35 2.7761 -1.0492
6 13 37 -3.8824 -1.2848
6 13 39 -0.4156 -1.9712
6 14 0 1.9767 -0.2385
6 14 2 -0.8478 0.6199
6 14 4 -0.3005 -7.7282
6 14 6 1.6119 1.0267
6 14 8 3.6345 -4.1288
6 14 10 1.4505 -2.5494
6 14 12 -4.1204 -1.8684
6 14 14 -2.3413 -5.2657
6 14 16 -3.8285 -2.8689
6 14 18 1.8209 0.1934
6 14 20 5.5979 5.9350
6 14 22 2.9408 0.7430
6 14 24 3.9368 0.3534
6 14 26 4.2470 3.1002
6 14 28 -4.3694 -0.3647
6 14 30 3.0189 0.2584
6 14 32 -1.2192 -2.1233
6 14 34 -4.3034 -2.1539
6 14 36 -2.0140 0.8364
6 15 1 -3.2945 -0.0222
6 15 3 -1.1723 -1.6973
6 15 5 0.5823 0.7346
6 15 7 0.8051 1.6183
6 15 9 2.2118 -0.6775
6 15 11 -4.1080 -3.7950
6 15 13 0.2669 2.2013
6 15 15 3.4826 -1.1964
6 15 17 0.4744 3.7760
6 15 19 -1.4659 0.4048
6 15 21 -4.5867 1.9640
6 15 23 -1.4562 1.9581
6 15 25 -3.2075 -1.9467
6 15 27 -1.4210 0.0955
6 15 29 1.7993 5.2496
6 15 31 -0.5778 2.2777
6 16 0 7.4798 -0.1519
6 16 2 -1.1087 1.0515
6 16 4 -5.9086 -1.6184
6 16 6 0.9596 -2.1176
6 16 8 0.0308 -3.3257
6 16 10 0.5832 -2.6333
6 16 12 -5.0774 -1.2876
6 16 14 -2.9198 0.9550
6 16 16 -5.0487 2.1044
6 16 18 -0.4598 0.5006
6 16 20 -1.6882 0.1187
6 16 22 -0.0510 1.9233
6 16 24 -1.5074 -1.5110
6 16 26 2.7983 1.9039
6 17 1 1.5654 0.9639
6 17 3 -2.4856 2.1303
6 17 5 2.4477 -0.7670
6 17 7 -2.2776 -0.1745
6 17 9 -2.0278 -2.8354
6 17 11 -5.4625 -0.8544
6 17 13 0.2211 1.0802
6 17 15 2.0642 1.7117
6 17 17 0.9409 -1.9029
6 17 19 1.2424 -1.5959
6 18 0 -4.1278 -0.1063
6 18 2 -1.7734 -3.0906
6 18 4 1.9301 -2.2230
7 1 0 7.0614 1.1560
7 1 2 -26.3825 1.7106
7 1 4 8.1101 27.9611
7 1 6 3.0680 -10.8819
7 1 8 13.2117 -14.3358
7 1 10 -48.5510 -10.3978
7 1 12 30.6607 25.4954
7 1 14 18.3441 -13.2135
7 1 16 40.2280 9.1872
7 1 18 18.3913 -5.4877
7 1 20 -4.0765 16.2009
7 1 22 3.0309 -5.9061
7 1 24 -10.1167 -1.0300
7 1 26 2.2645 -2.3599
7 1 28 -8.9036 -15.9257
7 1 30 -3.9937 21.4651
7 1 32 -3.2714 0.8736
7 1 34 2.6156 1.5285
7 1 36 1.4274 2.2594
7 1 38 9.6377 -5.9823
7 1 40 -6.1039 3.8907
7 1 42 -6.7815 0.1377
7 1 44 1.5633 -1.9839
7 1 46 -2.9974 0.2871
7 1 48 -0.6939 1.1157
7 1 50 0.2528 11.0824
7 1 52 5.0519 3.0391
7 1 54 -3.0812 -1.7017
7 1 56 -3.9340 -6.6051
7 2 1 3.3505 20.8474
7 2 3 7.8647 -10.9811
7 2 5 15.8951 -9.6354
7 2 7 14.7698 -11.8163
7 2 9 19.4767 -49.4959
7 2 11 -5.6569 -10.8843
7 2 13 49.9588 8.3615
7 2 15 16.7342 -28.0867
7 2 17 17.9105 10.9279
7 2 19 25.6302 -31.6534
7 2 21 0.0380 -0.7255
7 2 23 5.7167 7.1754
7 2 25 -13.4386 2.7892
7 2 27 -1.1371 -16.2910
7 2 29 4.1341 -13.9646
7 2 31 -1.1653 3.9778
7 2 33 15.8846 4.1105
7 2 35 -2.4384 -7.1848
7 2 37 -5.3801 2.9836
7 2 39 -12.8272 3.9809
7 2 41 -4.9509 -1.1278
7 2 43 -2.3704 0.0111
7 2 45 1.5646 12.3679
7 2 47 -7.6328 -6.5082
7 2 49 0.9739 -3.1686
7 2 51 -6.8614 -4.7321
7 2 53 1.3708 -3.1248
7 2 55 0.4460 -1.7240
7 2 57 0.0281 -0.4312
7 3 0 9.1347 1.0523
7 3 2 -12.3891 18.9246
7 3 4 -28.1986 -25.2821
7 3 6 -20.6453 -29.5144
7 3 8 -38.6371 -49.7531
7 3 10 -24.3094 4.7515
7 3 12 -22.4864 58.5192
7 3 14 28.8828 23.9395
7 3 16 -25.5931 -21.3020
7 3 18 -2.0142 -29.7059
7 3 20 11.0473 3.1812
7 3 22 -6.0586 12.7619
7 3 24 12.3622 3.9671
7 3 26 3.6907 13.9041
7 3 28 1.6629 -41.9447
7 3 30 1.0059 -14.1584
7 3 32 -6.1425 -10.4122
7 3 34 1.8832 7.5517
7 3 36 0.8069 -5.3024
7 3 38 -8.0082 -0.0244
7 3 40 17.9298 15.1873
7 3 42 1.3631 -4.9505
7 3 44 0.7215 -2.1593
7 3 46 -12.1602 1.2784
7 3 48 0.2169 -6.2203
7 3 50 0.9163 1.8930
7 3 52 1.7386 -2.2043
7 3 54 3.6597 3.5648
7 3 56 0.3929 -2.0035
7 4 1 -4.5766 -18.5295
7 4 3 12.9987 -7.4299
7 4 5 42.9001 -7.5526
7 4 7 -38.6548 7.1748
7 4 9 -10.1143 39.2867
7 4 11 10.6570 21.9978
7 4 13 11.9794 -38.6047
7 4 15 -4.6117 -38.9094
7 4 17 -7.7518 0.4712
7 4 19 11.2857 -7.8128
7 4 21 21.7223 -7.9407
7 4 23 -8.6657 -8.7690
7 4 25 -8.7830 4.2156
7 4 27 7.3308 23.2931
7 4 29 -8.8780 -9.1491
7 4 31 16.7882 -7.1567
7 4 33 9.8206 -1.0227
7 4 35 11.4260 4.6602
7 4 37 0.1699 -9.6873
7 4 39 1.0532 1.7870
7 4 41 -7.4366 -1.6727
7 4 43 11.7907 2.2013
7 4 45 -9.7629 0.7212
7 4 47 -13.3835 -4.6363
7 4 49 -1.7018 -1.2368
7 4 51 -0.9291 -0.2176
7 4 53 -4.1916 -0.5133
7 4 55 0.4068 2.6877
7 5 0 -53.0267 0.9857
7 5 2 -2.1875 -5.5417
7 5 4 -30.1644 4.3144
7 5 6 14.9890 -29.2522
7 5 8 8.8214 6.3973
7 5 10 12.4159 -9.1374
7 5 12 20.7840 26.7230
7 5 14 -1.9239 28.1294
7 5 16 -1.4093 10.6629
7 5 18 5.6252 -16.4364
7 5 20 -25.9903 15.0459
7 5 22 16.5028 -3.5406
7 5 24 14.8780 -1.2992
7 5 26 -6.3478 -5.0647
7 5 28 4.7029 17.4578
7 5 30 -3.3919 -12.3220
7 5 32 37.1700 10.4012
7 5 34 0.1941 -12.5372
7 5 36 6.9610 7.6429
7 5 38 -19.2500 4.2730
7 5 40 -1.0843 2.7133
7 5 42 -0.5735 -1.1020
7 5 44 20.8626 -6.3609
7 5 46 -4.2750 -3.0632
7 5 48 8.9506 11.5399
7 5 50 -7.4618 3.0148
7 5 52 12.0559 -7.9484
7 5 54 5.0549 2.4893
7 6 1 5.3185 -3.5496
7 6 3 5.4362 -8.1970
7 6 5 0.7064 17.6106
7 6 7 24.7255 -22.9507
7 6 9 -1.7095 37.8096
7 6 11 -28.6788 -27.2653
7 6 13 4.7296 -25.2678
7 6 15 -5.4570 -17.2934
7 6 17 -19.9364 3.6690
7 6 19 -1.2607 -1.4864
7 6 21 -29.7966 -4.4519
7 6 23 8.4455 -11.4587
7 6 25 -12.4157 -31.7308
7 6 27 -15.0119 -4.9837
7 6 29 -5.7835 4.4828
7 6 31 8.2700 -2.1271
7 6 33 5.8841 -1.5691
7 6 35 -8.5249 -20.7585
7 6 37 -4.3124 -5.3326
7 6 39 -6.0957 -6.2337
7 6 41 4.8101 8.7703
7 6 43 1.4393 -13.8340
7 6 45 2.8613 -2.6139
7 6 47 0.2787 -3.6723
7 6 49 -2.0477 -0.7329
7 6 51 -1.2630 7.4153
7 6 53 2.2531 5.2455
7 7 0 7.9796 0.7931
7 7 2 -9.2436 34.1691
7 7 4 -42.8052 55.4671
7 7 6 13.8694 -14.3024
7 7 8 -7.1650 16.0403
7 7 10 -4.6498 -10.5006
7 7 12 42.9086 9.7217
7 7 14 8.8666 -5.2348
7 7 16 22.1881 -14.9731
7 7 18 -24.3640 0.4162
7 7 20 15.9149 16.4060
7 7 22 11.2423 11.5713
7 7 24 -2.1136 14.3676
7 7 26 66.7283 -18.7103
7 7 28 -12.2284 -7.4756
7 7 30 -17.4826 25.2065
7 7 32 7.5380 -0.7566
7 7 34 -4.1786 -14.3786
7 7 36 -1.9428 -9.3739
7 7 38 -7.8056 11.1856
7 7 40 -6.1153 -2.6440
7 7 42 10.6157 4.6557
7 7 44 2.4257 -2.2290
7 7 46 0.0178 -0.8969
7 7 48 -0.4585 4.0119
7 7 50 2.8666 -5.5387
7 7 52 0.7827 7.7774
7 8 1 -18.0926 -1.3791
7 8 3 8.0030 -5.6126
7 8 5 -3.6972 -10.1552
7 8 7 -15.6395 -18.0738
7 8 9 14.0771 -5.1612
7 8 11 7.5035 -1.0169
7 8 13 -7.8366 10.5599
7 8 15 -11.5899 -5.1708
7 8 17 5.8064 -10.6772
7 8 19 -15.9118 4.8350
7 8 21 10.7484 5.9281
7 8 23 3.5005 0.2839
7 8 25 11.5755 5.1612
7 8 27 -6.2922 0.7934
7 8 29 -1.7497 -3.6199
7 8 31 6.3479 6.0686
7 8 33 -8.1148 -0.1265
7 8 35 4.2324 7.4105
7 8 37 1.0790 -5.8086
7 8 39 11.2475 -7.4307
7 8 41 1.1332 -1.7349
7 8 43 0.1714 0.6808
7 8 45 4.0683 -0.8169
7 8 47 9.7265 2.8605
7 8 49 -10.4650 -6.2601
7 8 51 -4.5093 -1.8983
7 9 0 -30.7657 0.6410
7 9 2 17.3411 25.1478
7 9 4 -2.4788 -20.7838
7 9 6 -10.2327 -4.7542
7 9 8 11.0897 -22.7076
7 9 10 -7.2702 8.7702
7 9 12 -0.8749 5.3338
7 9 14 18.9046 9.1031
7 9 16 -4.6927 -4.6572
7 9 18 -3.8033 -7.3530
7 9 20 -9.5805 -8.1139
7 9 22 -1.3262 2.3925
7 9 24 5.1762 -22.9123
7 9 26 -6.8050 2.6403
7 9 28 7.2585 -2.9674
7 9 30 -7.7161 -9.5294
7 9 32 -14.8470 3.6193
7 9 34 -2.7480 -5.1683
7 9 36 1.2424 10.5798
7 9 38 -6.2157 -0.0945
7 9 40 3.1154 2.0561
7 9 42 -2.0500 5.2427
7 9 44 -3.4715 5.9909
7 9 46 -6.8905 -1.7257
7 9 48 -13.5416 -6.7181
7 10 1 -11.3556 10.5479
7 10 3 -14.4405 17.5843
7 10 5 10.5305 -6.4995
7 10 7 1.4510 -12.3184
7 10 9 -0.7063 -4.1781
7 10 11 7.5642 4.8902
7 10 13 12.3645 -4.8919
7 10 15 -6.9611 -1.1769
7 10 17 2.2088 1.1235
7 10 19 3.5381 2.1950
7 10 21 9.9630 5.3116
7 10 23 1.7680 7.9665
7 10 25 1.5435 4.4179
7 10 27 3.3318 7.3495
7 10 29 6.7886 -3.0618
7 10 31 12.9005 3.5431
7 10 33 -7.2662 -0.6397
7 10 35 1.0753 1.5630
7 10 37 0.6787 6.2409
7 10 39 1.3196 -0.6789
7 10 41 -0.9377 3.0268
7 10 43 10.0038 -6.2179
7 10 45 -1.0005 -4.8501
7 10 47 1.5487 -2.3891
7 11 0 4.3602 0.4681
7 11 2 -10.2677 1.0207
7 11 4 -1.6534 -1.5813
7 11 6 1.4664 -2.5200
7 11 8 -3.4315 2.5583
7 11 10 -4.9375 8.6254
7 11 12 -2.1096 4.8809
7 11 14 -4.3884 -3.4131
7 11 16 9.1254 13.0475
7 11 18 4.5365 -3.9988
7 11 20 -2.6758 3.8624
7 11 22 2.5885 3.1708
7 11 24 1.6796 -1.2371
7 11 26 -5.2472 -3.9523
7 11 28 -2.5658 -2.1591
7 11 30 -1.3824 -0.9706
7 11 32 11.9879 9.5172
7 11 34 0.4924 -1.8453
7 11 36 2.6605 0.0354
7 11 38 -5.4926 2.7790
7 11 40 0.0662 4.9001
7 11 42 -1.0631 -1.0746
7 11 44 -2.7343 -4.9965
7 12 1 -1.2306 -1.9633
7 12 3 5.0850 -6.5427
7 12 5 -8.0094 1.1048
7 12 7 10.7068 7.2030
7 12 9 -2.1125 0.0868
7 12 11 -3.7701 5.9909
7 12 13 1.1338 2.7364
7 12 15 -2.0645 1.5445
7 12 17 -1.8556 -7.8305
7 12 19 2.0235 2.3091
7 12 21 5.2258 4.7188
7 12 23 -1.3201 7.5403
7 12 25 0.8112 -1.0304
7 12 27 -0.9675 0.4861
7 12 29 0.9755 1.8376
7 12 31 -2.5291 -1.6946
7 12 33 -0.9026 -3.3738
7 12 35 2.0367 -2.6814
7 12 37 2.5440 1.6544
7 12 39 1.9855 1.2407
7 12 41 0.8449 -3.2727
7 13 0 -1.8058 0.3213
7 13 2 -4.6630 3.0559
7 13 4 -1.3586 -0.1685
7 13 6 5.0158 -5.1676
7 13 8 3.6645 -1.8027
7 13 10 -6.1354 0.9030
7 13 12 6.4789 4.9737
7 13 14 1.6611 -2.7307
7 13 16 -7.1056 3.9280
7 13 18 1.8076 -0.4676
7 13 20 4.0055 0.5796
7 13 22 0.5803 -6.3033
7 13 24 4.0149 1.1890
7 13 26 -1.4960 -2.1453
7 13 28 -3.5890 1.0197
7 13 30 -1.3002 -3.5532
7 13 32 -1.1724 6.1162
7 13 34 -4.3537 -1.9990
7 13 36 5.2663 0.1847
7 13 38 -0.7853 1.4007
7 14 1 2.0623 1.3916
7 14 3 -0.1511 3.0621
7 14 5 1.9932 0.0930
7 14 7 -0.9057 -0.7800
7 14 9 -0.6435 -0.6887
7 14 11 -2.2972 2.8595
7 14 13 -0.9407 1.0950
7 14 15 -0.4422 0.8670
7 14 17 -0.4857 -1.9650
7 14 19 -0.1260 0.6642
7 14 21 -1.8270 -0.8582
7 14 23 -1.1678 -2.0018
7 14 25 0.5670 1.8236
7 14 27 -0.4123 -0.5924
7 14 29 -2.2831 -8.3227
7 14 31 -0.5455 0.0355
7 14 33 1.0897 -4.0303
7 14 35 0.1086 -0.8710
7 15 0 -5.7608 0.2151
7 15 2 -0.9406 -2.8500
7 15 4 -1.0460 -3.3961
7 15 6 -1.8653 -4.5923
7 15 8 -4.6979 3.1411
7 15 10 -5.8204 -4.3069
7 15 12 2.0989 -2.5493
7 15 14 2.5220 -8.2523
7 15 16 -3.2481 -2.6634
7 15 18 -1.0023 0.2415
7 15 20 3.0012 4.8097
7 15 22 0.5815 0.3492
7 15 24 2.0592 3.8708
7 15 26 -1.1415 2.3836
7 15 28 -1.6452 -1.1641
7 15 30 -0.8858 -1.8058
7 16 1 1.3680 -4.3533
7 16 3 2.6917 -3.8311
7 16 5 3.5552 3.0011
7 16 7 -3.5324 7.8410
7 16 9 1.2482 1.4990
7 16 11 -2.1430 1.1696
7 16 13 -1.9583 0.6813
7 16 15 -1.7887 2.5238
7 16 17 -3.4492 -2.3545
7 16 19 -1.2814 2.5441
7 16 21 0.3392 -0.5966
7 16 23 1.4340 -2.6875
7 17 0 2.9353 0.1425
7 17 2 1.0931 0.7805
7 17 4 -1.9170 -4.4851
7 17 6 -4.6098 -3.3662
7 17 8 -0.9884 -0.0374
7 17 10 -9.0950 -2.2324
7 17 12 2.0053 -0.3022
7 17 14 -2.5010 -0.8082
7 17 16 4.5687 1.0567
8 1 1 -8.5782 -12.4291
8 1 3 -27.5999 41.0697
8 1 5 54.3643 -11.2041
8 1 7 -1.2942 0.7749
8 1 9 -14.6307 24.2228
8 1 11 20.8391 -12.3392
8 1 13 -7.1627 14.4936
8 1 15 0.5255 -7.0846
8 1 17 26.8392 -16.5992
8 1 19 -1.3006 -20.2375
8 1 21 -6.5331 16.1139
8 1 23 -11.1282 8.1418
8 1 25 -2.4103 1.1883
8 1 27 -8.1806 20.2359
8 1 29 3.9473 -14.8391
8 1 31 -0.7703 5.7012
8 1 33 -8.4365 -12.0316
8 1 35 -4.8252 -14.2312
8 1 37 -4.7970 5.1477
8 1 39 -9.5930 3.4824
8 1 41 -1.1139 -8.9482
8 1 43 0.0927 -4.7156
8 1 45 1.5956 0.2319
8 1 47 1.6063 -3.4985
8 1 49 1.1749 -1.2227
8 1 51 2.0636 0.3419
8 1 53 -3.6258 5.2367
8 1 55 4.0157 5.9069
8 2 0 33.0876 -1.0654
8 2 2 12.4390 6.9288
8 2 4 18.1771 -1.8440
8 2 6 -9.0516 -15.5237
8 2 8 -37.2999 -13.5345
8 2 10 6.5713 -7.9103
8 2 12 -11.4886 1.7992
8 2 14 19.1097 -1.6879
8 2 16 -5.1894 -5.9486
8 2 18 -2.1914 1.1851
8 2 20 -9.6764 -15.2968
8 2 22 21.6362 25.2255
8 2 24 -17.1747 4.3317
8 2 26 8.6179 -6.6349
8 2 28 4.6979 -8.4715
8 2 30 -10.9164 8.8531
8 2 32 31.8832 -24.2388
8 2 34 -6.7751 6.7103
8 2 36 1.7535 -11.6121
8 2 38 -4.5707 0.5275
8 2 40 3.4713 0.3778
8 2 42 5.0603 -7.0427
8 2 44 0.8372 -3.8979
8 2 46 -1.3972 -0.8312
8 2 48 -0.0897 -10.0817
8 2 50 -1.5285 0.5578
8 2 52 -7.7353 6.0053
8 2 54 -1.0259 -2.7004
8 3 1 8.7434 2.0500
8 3 3 8.2117 -20.2889
8 3 5 -5.0314 3.9101
8 3 7 37.9666 -18.6891
8 3 9 21.8793 -27.4132
8 3 11 -1.6436 34.9441
8 3 13 32.9239 -0.6324
8 3 15 -9.4628 -9.2150
8 3 17 -2.3476 4.0909
8 3 19 16.5002 -20.2194
8 3 21 -6.1238 2.6564
8 3 23 -1.7006 16.1621
8 3 25 -12.5418 -5.7229
8 3 27 -19.0949 -13.0375
8 3 29 -12.1813 -12.4002
8 3 31 8.1196 1.9061
8 3 33 -7.2456 -8.8559
8 3 35 -4.8760 -5.1302
8 3 37 1.2629 0.5351
8 3 39 9.5994 -3.3392
8 3 41 1.0635 -10.8553
8 3 43 1.4862 -5.9743
8 3 45 -9.3362 7.5455
8 3 47 6.5850 3.4971
8 3 49 3.8445 1.7283
8 3 51 -0.3810 8.0081
8 3 53 -0.6590 4.3585
8 3 55 1.4638 3.5723
8 4 0 11.0505 -0.9464
8 4 2 2.0431 -19.4422
8 4 4 -14.3139 -7.2689
8 4 6 29.1679 6.8446
8 4 8 5.2837 4.0293
8 4 10 21.7785 -3.1299
8 4 12 -45.7291 5.0540
8 4 14 4.4607 18.3559
8 4 16 -2.8403 14.1189
8 4 18 -19.6236 -0.1788
8 4 20 0.5857 -17.2337
8 4 22 -6.1593 24.0152
8 4 24 -9.1794 -18.0872
8 4 26 -1.5305 -4.8751
8 4 28 2.4557 -3.3244
8 4 30 9.5653 3.3307
8 4 32 -9.8608 7.1411
8 4 34 27.1327 14.4194
8 4 36 -8.0456 -2.8175
8 4 38 17.1244 -8.9662
8 4 40 8.2197 2.2816
8 4 42 -0.9140 4.2011
8 4 44 -6.3006 7.9843
8 4 46 2.4074 5.8342
8 4 48 -4.1863 -1.3124
8 4 50 -2.7102 -3.7817
8 4 52 15.2023 0.3346
8 4 54 -1.2179 0.4201
8 5 1 -11.4686 14.1904
8 5 3 -45.9819 0.9187
8 5 5 27.3602 -49.5256
8 5 7 -38.0675 -34.4702
8 5 9 -5.7349 -1.7801
8 5 11 -14.9173 -7.5467
8 5 13 -19.4086 -11.1254
8 5 15 7.9766 -9.1059
8 5 17 16.7454 -4.1139
8 5 19 12.4936 0.6720
8 5 21 3.6442 -9.2769
8 5 23 14.1775 -16.5438
8 5 25 -16.4540 15.3797
8 5 27 -11.6333 -9.0100
8 5 29 10.7506 10.2535
8 5 31 -17.9795 -5.8589
8 5 33 -1.7458 -1.6595
8 5 35 -0.4855 2.0860
8 5 37 0.7361 7.9147
8 5 39 -1.1624 -2.2538
8 5 41 -1.0140 -0.9467
8 5 43 -7.2215 -14.7875
8 5 45 -0.7980 -0.3000
8 5 47 -5.3897 0.9591
8 5 49 1.4533 3.0489
8 5 51 -3.6348 1.6941
8 5 53 1.8949 10.9554
8 6 0 -4.7375 -0.8298
8 6 2 26.1730 19.4549
8 6 4 -3.3211 -17.4340
8 6 6 -8.1973 6.2639
8 6 8 -13.0559 14.2866
8 6 10 1.6505 -9.9641
8 6 12 11.5538 -6.1622
8 6 14 -3.4193 -3.4309
8 6 16 -28.0116 5.2739
8 6 18 -3.8037 -0.2116
8 6 20 -15.1188 -7.8338
8 6 22 -6.9761 -4.3615
8 6 24 11.1228 -7.2987
8 6 26 19.0105 4.1106
8 6 28 2.6047 -7.8341
8 6 30 -0.2828 7.4344
8 6 32 -9.8551 -2.5644
8 6 34 -8.0684 -20.9570
8 6 36 -2.4233 26.8899
8 6 38 5.6705 -2.8529
8 6 40 -2.4422 -1.4781
8 6 42 -12.2890 -3.7781
8 6 44 8.1422 -13.8061
8 6 46 -7.9618 -0.2588
8 6 48 11.5821 11.4347
8 6 50 3.9708 -12.0229
8 6 52 -4.3571 -4.5374
8 7 1 21.2436 3.1242
8 7 3 -8.2635 7.6481
8 7 5 3.2417 5.3802
8 7 7 0.4297 6.6674
8 7 9 -12.2573 7.0392
8 7 11 -13.7038 7.0827
8 7 13 1.9241 -19.4884
8 7 15 13.0621 1.9350
8 7 17 -3.4632 10.8583
8 7 19 22.0706 4.0169
8 7 21 -10.6880 -3.6964
8 7 23 3.2412 3.0787
8 7 25 0.8270 -9.8846
8 7 27 8.1512 -0.6626
8 7 29 -13.7370 8.6110
8 7 31 -6.0783 -8.7735
8 7 33 5.0514 0.2725
8 7 35 -4.9788 -3.7554
8 7 37 5.0220 4.2954
8 7 39 -9.8127 0.8103
8 7 41 4.2402 4.8074
8 7 43 -1.5861 -5.1131
8 7 45 -5.3062 2.7163
8 7 47 -9.2210 -2.2260
8 7 49 0.3313 -10.7443
8 7 51 -1.5288 5.0177
8 8 0 42.3457 -0.7091
8 8 2 -10.0985 -40.5494
8 8 4 -30.1052 17.7882
8 8 6 15.7629 -3.9571
8 8 8 8.6225 -31.8386
8 8 10 -8.1192 -13.3703
8 8 12 13.6118 7.5550
8 8 14 -16.8910 -5.1945
8 8 16 -6.9550 5.5229
8 8 18 -10.7156 -2.5995
8 8 20 -1.2592 4.3898
8 8 22 17.3722 -15.5738
8 8 24 20.9596 7.5118
8 8 26 7.8654 0.3988
8 8 28 -4.9201 -1.1841
8 8 30 -14.7867 20.9304
8 8 32 -1.5334 -2.4243
8 8 34 -1.8166 1.3201
8 8 36 -4.3309 1.9324
8 8 38 7.1516 10.2925
8 8 40 4.3038 2.1818
8 8 42 -1.4506 -8.6751
8 8 44 -1.2303 1.5863
8 8 46 5.9205 7.6963
8 8 48 3.8071 -12.3549
8 9 1 -17.0423 -7.0139
8 9 3 7.1777 9.5937
8 9 5 -9.1784 4.5452
8 9 7 11.7005 -1.2105
8 9 9 5.5721 -11.8759
8 9 11 -11.8067 1.8826
8 9 13 4.5921 -0.2120
8 9 15 7.4901 2.2664
8 9 17 0.1679 0.7284
8 9 19 -5.5602 2.1275
8 9 21 -7.5696 -9.2600
8 9 23 8.4249 -1.1209
8 9 25 -4.6118 -6.8625
8 9 27 -1.0945 -9.0575
8 9 29 1.8327 -7.5741
8 9 31 -4.2841 4.1381
8 9 33 0.8157 3.0510
8 9 35 -4.6155 3.7465
8 9 37 4.5744 -1.8465
8 9 39 -3.3418 2.2249
8 9 41 5.3810 3.1298
8 9 43 -3.7778 2.3507
8 9 45 6.0497 -2.4910
8 9 47 2.5133 1.8069
8 10 0 0.1465 -0.5330
8 10 2 -4.5727 4.8017
8 10 4 -18.1611 -17.2600
8 10 6 -14.3393 -2.8908
8 10 8 -3.7667 -1.9688
8 10 10 9.8610 -11.9786
8 10 12 -5.0997 -0.2139
8 10 14 -17.5968 16.2495
8 10 16 0.5715 3.7183
8 10 18 -8.8793 -1.6630
8 10 20 -3.7863 -3.9613
8 10 22 -1.3053 4.8630
8 10 24 -6.0940 0.4800
8 10 26 -9.9678 1.3659
8 10 28 2.8788 8.1642
8 10 30 9.5631 -6.8325
8 10 32 -7.9939 3.7008
8 10 34 1.8728 3.9442
8 10 36 6.8705 3.5657
8 10 38 1.0619 2.0034
8 10 40 -2.8916 1.9612
8 10 42 1.5240 -0.7586
8 10 44 1.6242 5.6714
8 11 1 -2.0199 2.8072
8 11 3 -0.1312 15.2796
8 11 5 5.8986 -1.7327
8 11 7 14.8656 3.5407
8 11 9 5.3999 8.3432
8 11 11 -4.8117 -5.6724
8 11 13 -1.3462 3.3550
8 11 15 5.0431 1.5610
8 11 17 9.1836 -0.5800
8 11 19 6.5083 3.3420
8 11 21 4.7299 0.7859
8 11 23 -4.1534 0.4501
8 11 25 6.2807 7.0891
8 11 27 5.0545 -1.1289
8 11 29 3.1047 -5.0248
8 11 31 -1.3099 4.0244
8 11 33 -4.1678 4.7970
8 11 35 0.3324 5.5443
8 11 37 4.6671 1.8588
8 11 39 4.6673 2.6582
8 11 41 5.1372 8.2006
8 11 43 1.3718 -0.0665
8 12 0 -6.9329 -0.3767
8 12 2 -5.6919 6.4205
8 12 4 8.6411 -2.1312
8 12 6 -0.3587 5.9140
8 12 8 6.5774 -12.6775
8 12 10 -10.8321 7.7861
8 12 12 8.2249 9.1095
8 12 14 -3.0467 6.7802
8 12 16 2.4259 3.3480
8 12 18 -7.0088 3.6988
8 12 20 -0.4796 0.7944
8 12 22 -4.1409 4.0511
8 12 24 -1.7293 1.6102
8 12 26 3.4095 -4.1794
8 12 28 3.9413 0.3413
8 12 30 -2.2409 -11.4544
8 12 32 -3.9867 1.0611
8 12 34 -1.7672 -1.0565
8 12 36 -0.7409 5.8749
8 12 38 0.7254 -2.1375
8 12 40 4.1474 4.3028
8 13 1 2.6653 -1.1664
8 13 3 0.2759 -4.8240
8 13 5 -2.8778 4.5383
8 13 7 16.1279 3.6829
8 13 9 -0.8591 -3.7770
8 13 11 3.3206 -2.3963
8 13 13 1.9494 -8.1550
8 13 15 5.0508 -0.6471
8 13 17 1.7110 4.2562
8 13 19 1.3427 -5.5976
8 13 21 -1.0768 3.4527
8 13 23 -3.2105 0.3426
8 13 25 3.4559 2.6105
8 13 27 -2.9322 10.4556
8 13 29 -6.0042 2.3177
8 13 31 1.3357 -1.0236
8 13 33 0.1932 2.6093
8 13 35 0.4293 -0.9214
8 13 37 -2.2123 8.2510
8 14 0 3.4367 -0.2608
8 14 2 3.7656 -5.8501
8 14 4 5.8809 1.0459
8 14 6 0.2026 3.6592
8 14 8 -4.6341 -0.1627
8 14 10 -0.1761 2.8023
8 14 12 -2.0501 -2.1590
8 14 14 1.6435 -2.4455
8 14 16 5.6176 -2.9150
8 14 18 -1.3567 1.2358
8 14 20 -2.7323 -4.9558
8 14 22 0.5215 2.6135
8 14 24 2.9016 -3.5036
8 14 26 2.8639 0.5786
8 14 28 -3.1170 0.6212
8 14 30 1.6327 -6.0315
8 14 32 0.1478 -0.5441
8 15 1 0.6368 1.5049
8 15 3 -1.5606 0.1792
8 15 5 -2.4084 0.1954
8 15 7 -0.2765 -0.0970
8 15 9 -2.8057 -3.2715
8 15 11 -0.4745 -0.6585
8 15 13 -0.7742 -2.2559
8 15 15 -3.7536 -7.4085
8 15 17 2.9311 1.1251
8 15 19 -0.3846 2.3149
8 15 21 3.1802 0.3801
8 15 23 1.9622 1.6529
8 15 25 0.5794 1.3158
8 15 27 0.6964 1.6849
8 16 0 2.5495 -0.1864
8 16 2 2.3176 -0.1577
8 16 4 0.6217 0.3647
8 16 6 3.3521 3.8120
8 16 8 -3.2472 -3.4178
8 16 10 -5.1567 0.5769
8 16 12 -0.7350 2.2881
8 16 14 4.3770 -4.1111
8 16 16 1.8138 3.0628
8 16 18 -0.6231 -0.2408
8 16 20 -2.5686 -9.7352
8 17 1 -1.9110 -0.6372
8 17 3 -0.2637 -2.2233
8 17 5 1.3537 0.4722
8 17 7 1.8476 -0.9658
8 17 9 -0.3383 2.1535
9 1 0 -9.5669 0.9539
9 1 2 26.6678 15.5387
9 1 4 -8.5044 -1.0754
9 1 6 -9.4197 -16.2459
9 1 8 10.5182 -0.5466
9 1 10 8.5969 4.7728
9 1 12 14.1225 -18.5024
9 1 14 26.5416 13.4891
9 1 16 3.7575 6.9089
9 1 18 6.6495 22.6646
9 1 20 -1.0024 -2.7877
9 1 22 -6.5279 9.4135
9 1 24 -5.7512 2.0208
9 1 26 -6.5786 -8.2012
9 1 28 2.0949 -1.4614
9 1 30 -2.9111 -3.7516
9 1 32 -25.0409 1.4223
9 1 34 6.3824 -5.6527
9 1 36 8.0249 -10.7064
9 1 38 4.1126 5.3209
9 1 40 0.0969 -1.8782
9 1 42 -1.3684 12.2882
9 1 44 -7.4034 3.5210
9 1 46 7.7689 -2.0337
9 1 48 2.2377 13.4997
9 1 50 2.3093 -2.3026
9 1 52 -0.4984 2.5821
9 1 54 -1.6068 3.1414
9 2 1 23.4576 20.2609
9 2 3 7.9867 12.3389
9 2 5 44.8796 5.7584
9 2 7 4.3723 -10.3808
9 2 9 -1.2973 11.7103
9 2 11 22.9473 -1.2752
9 2 13 4.7766 6.0240
9 2 15 4.9118 -3.1774
9 2 17 12.5560 5.4022
9 2 19 8.4788 7.5174
9 2 21 -2.2950 -2.1412
9 2 23 -3.4883 -6.2437
9 2 25 26.6543 6.5438
9 2 27 4.8830 -20.1742
9 2 29 7.4362 11.4550
9 2 31 13.4077 4.9473
9 2 33 0.3874 -6.4628
9 2 35 -3.9878 9.9922
9 2 37 5.8546 3.3844
9 2 39 -7.4204 6.7416
9 2 41 -2.6871 8.6607
9 2 43 -1.4672 3.5927
9 2 45 -10.1897 1.4292
9 2 47 5.4676 6.6273
9 2 49 -0.5398 -3.2060
9 2 51 2.4204 -0.1340
9 2 53 -6.0737 3.6826
9 3 0 14.4281 0.9033
9 3 2 3.2938 -1.7540
9 3 4 20.1610 -6.9685
9 3 6 5.7912 -17.6964
9 3 8 -21.8702 0.9985
9 3 10 14.3864 -0.9010
9 3 12 -2.1085 -11.1328
9 3 14 18.2915 1.3061
9 3 16 -6.1842 -6.9060
9 3 18 11.4913 -1.5028
9 3 20 -5.9162 19.4147
9 3 22 19.5075 8.9068
9 3 24 15.4148 3.5179
9 3 26 7.4534 -0.3906
9 3 28 -4.5767 -11.5197
9 3 30 -9.9254 10.2876
9 3 32 -7.0900 -4.8599
9 3 34 1.0363 -4.3216
9 3 36 -16.5423 11.4896
9 3 38 5.1911 2.4672
9 3 40 -5.1732 2.0112
9 3 42 -8.4244 4.3218
9 3 44 -11.8277 10.3717
9 3 46 -4.6883 1.5035
9 3 48 -0.6631 -2.8970
9 3 50 -0.4094 -12.7372
9 3 52 -2.1104 1.9069
9 4 1 14.7926 5.4638
9 4 3 6.0240 -6.7346
9 4 5 -10.8879 -12.6537
9 4 7 16.8471 -17.1574
9 4 9 -19.8576 15.3664
9 4 11 10.8237 11.1980
9 4 13 0.8123 4.2516
9 4 15 -2.7198 13.8686
9 4 17 -8.3200 3.6547
9 4 19 1.7021 -1.0723
9 4 21 -0.3920 9.8277
9 4 23 20.1003 -6.9824
9 4 25 -6.5292 -2.6530
9 4 27 -4.0397 -15.4902
9 4 29 15.6016 -4.7341
9 4 31 2.2070 -6.7019
9 4 33 -0.3453 -3.3566
9 4 35 5.5582 -6.0324
9 4 37 -10.2714 2.8060
9 4 39 7.8077 0.2981
9 4 41 1.5008 10.5028
9 4 43 -5.0566 2.5418
9 4 45 2.9211 2.7666
9 4 47 0.5384 -4.2536
9 4 49 -3.2423 -6.7722
9 4 51 0.6637 8.2486
9 5 0 13.2351 0.8035
9 5 2 -11.5792 -9.3497
9 5 4 19.7376 15.9472
9 5 6 -13.1802 3.7716
9 5 8 22.0747 2.4519
9 5 10 -21.9930 -10.0773
9 5 12 -15.2084 -8.3780
9 5 14 3.8511 7.5459
9 5 16 -3.1126 -3.5235
9 5 18 3.7974 -6.2464
9 5 20 1.5949 -16.8352
9 5 22 3.1303 2.8146
9 5 24 3.6013 -1.6952
9 5 26 -0.9482 -0.3748
9 5 28 21.6062 27.7200
9 5 30 -2.1076 28.0306
9 5 32 12.6426 3.5403
9 5 34 -1.8005 -7.6280
9 5 36 5.9580 -5.3338
9 5 38 -13.4892 3.6217
9 5 40 0.7534 -1.0785
9 5 42 -4.4974 -1.7573
9 5 44 -3.3370 1.7621
9 5 46 -3.4954 2.9349
9 5 48 0.4228 -5.3286
9 5 50 -3.7867 -9.5760
9 5 52 11.2655 -10.0274
9 6 1 -10.8869 -0.4566
9 6 3 3.3313 -2.6562
9 6 5 -4.9961 -7.0510
9 6 7 -5.6921 -16.5321
9 6 9 12.1377 10.3823
9 6 11 -13.8278 -24.1937
9 6 13 -6.4737 14.2109
9 6 15 -11.1467 -19.7617
9 6 17 -5.0126 -4.2782
9 6 19 -5.5405 3.7457
9 6 21 3.3270 -10.0394
9 6 23 -0.6855 -4.4466
9 6 25 13.5642 9.2648
9 6 27 -3.0550 2.9044
9 6 29 6.9865 -12.3327
9 6 31 -5.4294 5.5095
9 6 33 -8.6560 -14.0844
9 6 35 -3.7184 10.3680
9 6 37 -8.9663 1.6199
9 6 39 -5.6227 5.7912
9 6 41 -10.0945 -5.8431
9 6 43 4.5099 -6.6121
9 6 45 -2.0979 -4.3646
9 6 47 -4.7550 -1.4823
9 6 49 3.3300 -0.0165
9 7 0 -34.4193 0.6867
9 7 2 26.8105 21.4257
9 7 4 -3.8772 -18.2448
9 7 6 -15.3226 11.2814
9 7 8 11.8615 2.0358
9 7 10 -7.0476 9.3540
9 7 12 -2.4946 4.4474
9 7 14 24.9291 -0.0975
9 7 16 -0.2937 18.8286
9 7 18 -14.2336 -3.7219
9 7 20 -8.1979 -7.4447
9 7 22 -0.3379 0.0616
9 7 24 6.3221 -11.6824
9 7 26 1.3336 4.6611
9 7 28 5.3830 6.8409
9 7 30 -9.7668 -6.6623
9 7 32 -3.7813 -3.1387
9 7 34 -1.0252 -5.7468
9 7 36 5.2574 1.5908
9 7 38 2.9095 -2.1460
9 7 40 -1.1144 -2.5710
9 7 42 -0.8130 1.7895
9 7 44 -4.9698 4.7294
9 7 46 -10.0594 -0.3204
9 7 48 4.9143 -4.0895
9 8 1 14.6289 -1.6201
9 8 3 -9.0611 -8.4090
9 8 5 4.4167 -10.3530
9 8 7 -11.7594 5.3199
9 8 9 -25.1734 7.0990
9 8 11 7.7791 2.7212
9 8 13 -4.1022 -3.0036
9 8 15 -11.5986 1.6094
9 8 17 -1.7824 -3.2682
9 8 19 -3.2943 1.1455
9 8 21 5.6724 -2.8965
9 8 23 -4.9229 3.3175
9 8 25 6.5530 0.5617
9 8 27 8.0242 13.5692
9 8 29 -2.1212 5.9473
9 8 31 4.3751 -0.4565
9 8 33 -4.1758 -2.8666
9 8 35 3.9916 3.1318
9 8 37 0.8319 -3.4852
9 8 39 8.2825 -4.2065
9 8 41 -4.3492 -0.2805
9 8 43 -0.3111 -3.0323
9 8 45 -0.9211 12.8806
9 8 47 -1.2849 -1.7402
9 9 0 38.8613 0.5580
9 9 2 -21.4914 -21.6598
9 9 4 -3.2163 20.8225
9 9 6 16.7757 4.5693
9 9 8 2.3933 -19.1253
9 9 10 -4.3259 5.6981
9 9 12 8.6168 -4.8389
9 9 14 2.0174 -6.7885
9 9 16 1.5606 -1.6164
9 9 18 -14.3420 12.5109
9 9 20 3.1979 3.0257
9 9 22 -5.0332 -8.1209
9 9 24 7.2553 0.3506
9 9 26 -8.7562 -6.5331
9 9 28 -7.3971 -5.7408
9 9 30 -5.2243 15.0423
9 9 32 0.6683 -5.2697
9 9 34 -8.4530 9.8647
9 9 36 -1.6354 -0.2447
9 9 38 3.2223 -0.1415
9 9 40 9.2467 -2.1949
9 9 42 -0.5473 2.3466
9 9 44 -3.9102 -1.6381
9 9 46 -1.7745 4.4748
9 10 1 -1.1826 8.7777
9 10 3 -1.3721 -8.6003
9 10 5 -26.7912 1.6341
9 10 7 2.4162 -10.6061
9 10 9 0.5236 -8.5668
9 10 11 -4.2205 1.5733
9 10 13 1.2977 6.6464
9 10 15 -1.9569 -3.5688
9 10 17 2.2991 6.7865
9 10 19 1.3638 7.2653
9 10 21 -0.1422 -2.3722
9 10 23 -3.2297 1.6664
9 10 25 -4.3847 -0.1009
9 10 27 0.5131 2.7435
9 10 29 2.4415 5.0488
9 10 31 -2.0188 2.7437
9 10 33 5.8227 -0.3856
9 10 35 -4.7011 -4.8158
9 10 37 3.8816 6.4161
9 10 39 -5.0366 -5.1303
9 10 41 1.1806 2.7504
9 10 43 -3.0603 2.9510
9 11 0 -0.7071 0.3814
9 11 2 7.9774 -0.5349
9 11 4 4.3574 -0.1050
9 11 6 3.0932 4.1479
9 11 8 2.7052 5.1285
9 11 10 8.6476 -0.7756
9 11 12 0.0602 -5.1568
9 11 14 -1.2365 -4.9741
9 11 16 -9.0859 3.0276
9 11 18 -1.8331 1.0152
9 11 20 2.3892 1.8864
9 11 22 1.6143 -1.1861
9 11 24 -7.6034 0.6993
9 11 26 -1.8213 3.0284
9 11 28 -2.0918 3.1105
9 11 30 6.6866 -8.4709
9 11 32 -0.7250 3.1963
9 11 34 1.2985 8.2409
9 11 36 -1.9581 -1.9779
9 11 38 1.2954 3.5985
9 11 40 -8.4628 -1.4973
9 12 1 0.6532 2.5325
9 12 3 2.7480 -1.3383
9 12 5 2.4219 2.9906
9 12 7 4.3080 -1.2582
9 12 9 2.0990 5.4048
9 12 11 -1.8317 -1.4538
9 12 13 2.3945 4.3875
9 12 15 1.4586 -1.9680
9 12 17 2.8782 5.9161
9 12 19 2.8028 5.7730
9 12 21 8.8791 -0.4908
9 12 23 -1.0820 -1.2178
9 12 25 2.2824 1.4430
9 12 27 13.2403 7.5786
9 12 29 -3.2935 -0.8165
9 12 31 -1.9741 -1.9681
9 12 33 3.0428 7.9479
9 12 35 -1.8283 0.2585
9 12 37 5.6074 -6.7438
9 13 0 -10.3009 0.2594
9 13 2 4.2026 6.9711
9 13 4 3.0292 -1.2827
9 13 6 -1.8758 -2.7483
9 13 8 1.0332 -10.4270
9 13 10 1.4048 -0.9189
9 13 12 8.6201 2.6218
9 13 14 -3.5077 -3.3898
9 13 16 3.2739 -2.5813
9 13 18 -4.3301 -0.4932
9 13 20 4.6634 2.9750
9 13 22 -0.6515 1.0560
9 13 24 0.0375 3.8035
9 13 26 2.9213 6.6322
9 13 28 3.8894 5.5471
9 13 30 -1.2450 -4.5398
9 13 32 -7.8882 1.2403
9 13 34 -0.7424 8.5380
9 14 1 5.9814 6.8139
9 14 3 -0.2766 -1.1702
9 14 5 1.6271 -1.6698
9 14 7 2.9958 -2.3535
9 14 9 -0.7809 0.4691
9 14 11 -1.7435 4.1424
9 14 13 -2.4229 -6.0082
9 14 15 4.2186 -0.9085
9 14 17 4.7404 2.4720
9 14 19 -3.0084 -3.3839
9 14 21 2.7343 -1.0776
9 14 23 4.6454 -2.8726
9 14 25 -0.8701 -0.6770
9 14 27 4.7840 6.2343
9 14 29 -2.7098 1.0601
9 15 0 0.1243 0.1659
9 15 2 0.3387 -5.7086
9 15 4 -4.4593 1.3311
9 15 6 2.2029 -1.0756
9 15 8 -3.7006 4.0171
9 15 10 4.4467 3.4240
9 15 12 -2.9171 -0.0049
9 15 14 -2.0322 -4.7054
9 15 16 -2.6612 -2.9071
9 15 18 -1.1135 0.3442
9 15 20 0.0235 -2.8461
9 15 22 0.5804 0.1968
9 15 24 4.3505 -0.7665
9 16 1 2.8085 1.4716
9 16 3 -3.9160 -2.7744
9 16 5 -2.0938 0.8102
9 16 7 0.3409 2.2883
9 16 9 -0.7004 -0.3901
9 16 11 5.1345 1.3211
9 16 13 2.5291 -0.0613
9 16 15 -2.7934 -3.9045
10 1 1 -4.7379 -10.0226
10 1 3 -7.5714 -5.7545
10 1 5 16.6811 -10.5518
10 1 7 0.6329 3.6122
10 1 9 2.4583 7.8246
10 1 11 1.7098 -1.3637
10 1 13 -6.8834 -5.2744
10 1 15 2.9017 3.5949
10 1 17 11.7249 -3.4402
10 1 19 11.1674 -3.0986
10 1 21 -10.4848 11.9791
10 1 23 -6.6054 -8.4175
10 1 25 16.4687 24.0379
10 1 27 7.2008 8.4690
10 1 29 0.8744 -6.0068
10 1 31 -4.6153 5.6299
10 1 33 -3.9430 -5.6975
10 1 35 -0.2232 4.0904
10 1 37 7.3692 19.0545
10 1 39 2.2673 -8.3330
10 1 41 0.4434 12.5267
10 1 43 -2.6134 2.2813
10 1 45 3.7325 -2.3251
10 1 47 -4.4645 0.8064
10 1 49 -0.6132 3.0132
10 1 51 0.7330 -0.9420
10 2 0 53.5198 -0.7611
10 2 2 -7.3608 -1.3973
10 2 4 -0.3575 0.1721
10 2 6 3.9581 16.6148
10 2 8 -6.4432 11.2751
10 2 10 -7.8704 0.3655
10 2 12 11.9090 -0.2138
10 2 14 3.0119 8.3264
10 2 16 13.7293 -10.8831
10 2 18 -1.9814 14.3872
10 2 20 -2.1525 -5.4532
10 2 22 16.7787 -4.3409
10 2 24 7.6827 1.9953
10 2 26 13.9888 -5.8245
10 2 28 6.5736 32.3954
10 2 30 -1.8462 -2.6472
10 2 32 5.1451 0.3599
10 2 34 -6.6381 -6.7022
10 2 36 -6.7213 6.2854
10 2 38 -10.3235 5.3816
10 2 40 4.2036 0.6285
10 2 42 -8.6055 -1.9004
10 2 44 2.1999 3.1043
10 2 46 -1.9961 1.6334
10 2 48 -3.5667 -3.8234
10 2 50 -0.4773 -12.1769
10 2 52 -3.0849 2.3285
10 3 1 4.8919 -4.7865
10 3 3 14.1232 -7.7461
10 3 5 1.6383 5.4327
10 3 7 1.6668 -0.3112
10 3 9 19.3679 -12.2052
10 3 11 -6.2561 7.4605
10 3 13 -7.0538 -0.5994
10 3 15 -0.1152 0.6892
10 3 17 1.8332 -8.4387
10 3 19 -1.0080 -10.5823
10 3 21 16.3684 2.9253
10 3 23 -0.2202 16.6498
10 3 25 16.3705 -1.8298
10 3 27 2.9297 -2.3148
10 3 29 -0.3734 -4.7629
10 3 31 3.7755 5.5132
10 3 33 -7.9829 -14.9107
10 3 35 -2.1474 5.9786
10 3 37 -2.8234 -3.8008
10 3 39 -5.9186 -4.7847
10 3 41 -3.7279 -12.4558
10 3 43 6.5378 -2.9676
10 3 45 -1.7836 1.7963
10 3 47 -3.2260 -1.4112
10 3 49 -1.5252 -1.7261
10 3 51 0.4972 0.4281
10 4 0 -4.2286 -0.7148
10 4 2 -3.1371 -5.8502
10 4 4 15.2463 -13.2058
10 4 6 5.4297 -3.8454
10 4 8 18.0690 -5.2377
10 4 10 12.6153 10.6638
10 4 12 -3.9487 -4.6436
10 4 14 0.9275 -3.4138
10 4 16 1.3029 2.9663
10 4 18 8.2376 1.2890
10 4 20 -0.3838 -3.8773
10 4 22 -0.9610 22.9769
10 4 24 -3.7998 -7.4088
10 4 26 -9.7052 -6.3651
10 4 28 7.1104 0.7159
10 4 30 -16.2962 15.5255
10 4 32 3.1588 1.6886
10 4 34 -4.5048 -4.5366
10 4 36 0.9488 -7.3030
10 4 38 2.2995 -7.6278
10 4 40 5.9146 -6.1844
10 4 42 2.0205 -5.3439
10 4 44 -0.8494 5.0537
10 4 46 -3.3026 -4.6030
10 4 48 -0.1724 -10.4814
10 4 50 -5.5272 -2.0954
10 5 1 2.2888 1.8696
10 5 3 -9.6629 -10.0013
10 5 5 -7.7142 5.7841
10 5 7 -0.7540 6.1910
10 5 9 5.9087 18.7956
10 5 11 0.4699 8.7159
10 5 13 -3.5322 -7.4121
10 5 15 3.0034 6.4739
10 5 17 -4.4517 -0.9690
10 5 19 -2.1970 -4.7388
10 5 21 6.5706 -3.9199
10 5 23 2.8814 3.0785
10 5 25 -3.4333 -9.1068
10 5 27 -18.7534 -8.6365
10 5 29 1.7914 9.6109
10 5 31 6.8611 -6.0251
10 5 33 18.0294 2.8093
10 5 35 1.7469 -6.7265
10 5 37 1.3581 0.5440
10 5 39 12.7400 -2.6538
10 5 41 10.6599 0.2874
10 5 43 0.7322 -3.0451
10 5 45 -7.3822 2.8824
10 5 47 -2.6455 -3.3132
10 5 49 -2.3306 -3.2934
10 6 0 26.4210 -0.6227
10 6 2 -5.8291 3.8778
10 6 4 -26.7114 -26.3581
10 6 6 0.9932 6.8758
10 6 8 -8.6655 -3.3675
10 6 10 -1.5596 -7.2545
10 6 12 -23.9464 -0.3218
10 6 14 9.9630 -3.1771
10 6 16 -4.2899 5.9141
10 6 18 -13.5910 -16.3065
10 6 20 1.1162 3.4723
10 6 22 6.9465 -0.5379
10 6 24 -0.8353 -0.8337
10 6 26 0.4789 2.1647
10 6 28 0.8889 0.1346
10 6 30 1.7237 7.8611
10 6 32 -5.0198 1.5989
10 6 34 -5.2355 0.2416
10 6 36 2.1310 -1.4439
10 6 38 -5.7717 -2.0544
10 6 40 0.8261 -1.1106
10 6 42 1.2573 -2.4909
10 6 44 -1.9954 1.9646
10 6 46 -8.5403 0.5305
10 6 48 -9.4495 -6.4517
10 7 1 6.4872 -0.3981
10 7 3 6.3203 -4.4276
10 7 5 -8.3437 9.0296
10 7 7 -1.9820 14.4219
10 7 9 -3.4879 2.6113
10 7 11 -2.7101 -5.0082
10 7 13 -13.2503 0.8662
10 7 15 5.0251 5.5677
10 7 17 4.5993 -2.4320
10 7 19 -7.9467 3.8592
10 7 21 2.8533 10.8957
10 7 23 -3.6270 -4.2386
10 7 25 1.7466 -1.4709
10 7 27 0.5095 -5.2785
10 7 29 -7.3956 0.7033
10 7 31 -10.1877 1.9410
10 7 33 7.7209 1.5781
10 7 35 -1.7783 -2.5069
10 7 37 -4.7730 0.1438
10 7 39 -6.4091 -0.6416
10 7 41 0.1802 -4.1833
10 7 43 -0.1720 -0.9600
10 7 45 -2.0136 3.9664
10 7 47 -5.2250 -0.3700
10 8 0 -0.2086 -0.5046
10 8 2 8.4034 3.9311
10 8 4 -10.3837 -12.5461
10 8 6 -11.1584 -2.0969
10 8 8 13.4062 -16.5089
10 8 10 10.0301 -8.3642
10 8 12 -3.4314 8.8458
10 8 14 6.9350 6.9912
10 8 16 6.0614 2.1985
10 8 18 -6.2684 1.4113
10 8 20 -2.4830 1.5666
10 8 22 -1.7960 5.0710
10 8 24 -4.6581 -0.2389
10 8 26 2.5142 13.9406
10 8 28 -11.3662 11.4106
10 8 30 3.8799 -0.2265
10 8 32 -9.1973 -7.3184
10 8 34 6.8578 -2.9710
10 8 36 -1.7264 -3.4502
10 8 38 1.5963 -1.0402
10 8 40 -4.8768 2.4206
10 8 42 4.3191 -2.6292
10 8 44 -7.8235 5.6520
10 9 1 -1.7439 -11.8071
10 9 3 5.6360 4.3462
10 9 5 24.1436 0.1596
10 9 7 1.6643 5.2885
10 9 9 0.2952 12.5574
10 9 11 2.1178 -7.1192
10 9 13 -1.1642 -5.0661
10 9 15 1.4311 4.8724
10 9 17 -4.4672 -8.5204
10 9 19 -2.6294 -2.3324
10 9 21 -1.1120 -0.7693
10 9 23 -4.5242 0.7096
10 9 25 2.0834 -2.3932
10 9 27 -3.8327 -8.5374
10 9 29 0.7218 -6.5106
10 9 31 4.3412 -2.2084
10 9 33 -1.4931 1.6252
10 9 35 0.0062 2.6320
10 9 37 -3.9891 -3.2990
10 9 39 3.5610 0.0139
10 9 41 -12.3828 6.5989
10 9 43 3.1089 -3.4928
10 10 0 9.0529 -0.3796
10 10 2 9.6735 -15.1400
10 10 4 -13.5573 5.2131
10 10 6 -7.3568 -6.4340
10 10 8 -5.5480 -1.2418
10 10 10 -0.4205 -0.8727
10 10 12 -2.0351 0.9160
10 10 14 2.0659 2.8077
10 10 16 2.2758 0.2657
10 10 18 7.4696 0.7888
10 10 20 5.5745 3.9134
10 10 22 -3.5644 -2.0679
10 10 24 -5.3160 2.5888
10 10 26 2.9516 13.2225
10 10 28 -0.3160 -1.1521
10 10 30 1.2625 3.5457
10 10 32 4.3724 4.2848
10 10 34 -7.4472 -6.1026
10 10 36 0.0034 -0.3117
10 10 38 -0.7529 -4.3450
10 10 40 -2.3256 -4.3586
10 11 1 -13.1737 11.7658
10 11 3 3.1709 -9.7348
10 11 5 -7.6188 9.7517
10 11 7 9.9993 -8.3258
10 11 9 -0.2414 -11.2301
10 11 11 -6.5523 4.0227
10 11 13 -3.5376 1.0749
10 11 15 -5.3083 -4.2195
10 11 17 -4.4681 -0.0334
10 11 19 2.3653 -4.5373
10 11 21 9.3537 5.4177
10 11 23 2.3845 -5.2897
10 11 25 4.0311 3.7840
10 11 27 -15.2568 -3.0672
10 11 29 2.4860 2.6313
10 11 31 0.0897 2.7456
10 11 33 1.4359 -0.4441
10 11 35 -3.1078 -0.4959
10 11 37 1.2708 8.3076
10 12 0 7.8991 -0.2365
10 12 2 8.6702 -5.4441
10 12 4 -0.9114 5.3140
10 12 6 -2.7515 3.9584
10 12 8 -2.7212 1.4091
10 12 10 -2.3649 4.1110
10 12 12 1.3400 0.0946
10 12 14 7.3748 -0.0154
10 12 16 -4.3615 5.7372
10 12 18 5.9520 3.6014
10 12 20 -2.7066 -1.5971
10 12 22 -5.1806 -3.0510
10 12 24 0.6208 1.2583
10 12 26 6.3357 -4.1354
10 12 28 -0.3613 0.2568
10 12 30 9.6459 -14.1289
10 12 32 -4.1735 -2.5290
10 12 34 -2.8810 0.7501
10 13 1 -6.3254 7.2407
10 13 3 -4.3487 -1.1619
10 13 5 0.3300 -1.4483
10 13 7 2.8320 -0.6457
10 13 9 3.7374 2.6076
10 13 11 1.8326 -2.4536
10 13 13 -8.4832 3.4487
10 13 15 -3.2155 1.3633
10 13 17 -4.9851 -0.5123
10 13 19 4.0142 -0.3169
10 13 21 6.2768 -0.3796
10 13 23 1.3267 -5.3270
10 13 25 0.9381 -0.8768
10 13 27 0.9442 8.8918
10 13 29 -1.4559 -1.1641
10 13 31 -4.1411 4.9540
10 14 0 0.7384 -0.1522
10 14 2 7.7965 0.0429
10 14 4 5.7535 -3.2455
10 14 6 -3.2250 -1.1256
10 14 8 -0.0098 8.3336
10 14 10 -0.2045 9.1823
10 14 12 1.0095 -8.8557
10 14 14 5.3188 -1.1449
10 14 16 4.3347 -7.0714
10 14 18 -1.5193 1.9549
10 14 20 -1.5434 -0.4381
10 14 22 -0.1638 -1.7415
10 14 24 -0.1465 -2.7812
10 14 26 4.8643 8.0358
10 15 1 -3.4081 2.8159
10 15 3 -0.9731 2.4449
10 15 5 2.1400 -0.2761
10 15 7 -0.6498 -7.4669
10 15 9 -2.4698 -1.8899
10 15 11 -7.3434 2.9868
10 15 13 -1.4830 1.3772
10 15 15 -4.2650 -4.1701
10 15 17 2.2283 1.5434
10 15 19 -0.8054 -1.2485
10 16 0 -3.5678 -0.1140
10 16 2 -1.2901 -2.1476
10 16 4 0.3121 -3.3186
10 16 6 2.6850 -0.9961
10 16 8 2.2011 2.0917
11 1 0 10.9795 0.6142
11 1 2 -4.8679 -8.1776
11 1 4 5.9926 16.6954
11 1 6 -8.5418 -9.6139
11 1 8 10.0176 -1.1022
11 1 10 -11.2781 2.4858
11 1 12 -10.3710 -4.9856
11 1 14 -4.0872 -8.3281
11 1 16 -7.7816 1.9443
11 1 18 6.1909 -0.2510
11 1 20 6.8708 -1.7237
11 1 22 -2.8351 6.7786
11 1 24 -2.1293 4.5808
11 1 26 6.9514 3.0648
11 1 28 -9.7569 -3.1382
11 1 30 -0.5638 2.7901
11 1 32 1.0668 -6.3527
11 1 34 4.0991 -5.8981
11 1 36 -5.8028 19.5550
11 1 38 -5.6266 -0.2546
11 1 40 -3.5725 -1.2975
11 1 42 8.8497 -10.3118
11 1 44 -0.5095 -3.1947
11 1 46 7.7136 3.1774
11 1 48 1.4636 8.7142
11 1 50 -0.6881 -11.0658
11 2 1 -1.0586 -2.6233
11 2 3 3.5696 -2.9687
11 2 5 7.1372 4.9327
11 2 7 -5.2932 -6.5035
11 2 9 7.2723 -9.9673
11 2 11 -2.4829 10.3274
11 2 13 9.7267 -7.2373
11 2 15 -1.4167 -6.0812
11 2 17 5.3574 4.5344
11 2 19 -7.7548 -9.2773
11 2 21 -6.3299 0.5609
11 2 23 -4.6897 -1.7333
11 2 25 -4.9251 0.8903
11 2 27 0.0007 -10.5058
11 2 29 1.8541 9.0328
11 2 31 -15.3839 10.2503
11 2 33 6.4082 -10.1737
11 2 35 3.7707 -5.1594
11 2 37 4.8462 -4.0339
11 2 39 4.9433 0.7623
11 2 41 7.5671 2.0750
11 2 43 2.0483 0.7921
11 2 45 0.8794 0.0575
11 2 47 2.0039 0.6274
11 2 49 -3.4568 3.9096
11 3 0 11.8577 0.5932
11 3 2 -10.6031 -2.7816
11 3 4 -0.7835 0.5645
11 3 6 12.7160 -6.0914
11 3 8 -1.0349 -1.8257
11 3 10 0.0025 0.0688
11 3 12 10.2186 -3.4254
11 3 14 -8.0593 -14.4394
11 3 16 8.4604 3.2838
11 3 18 1.2868 -4.0177
11 3 20 6.0352 7.3543
11 3 22 -0.9193 1.8829
11 3 24 2.5413 4.7379
11 3 26 1.4281 0.4374
11 3 28 7.6599 9.3789
11 3 30 -2.4294 -8.7274
11 3 32 -6.4267 -6.0073
11 3 34 -2.6638 0.0580
11 3 36 4.3954 1.2587
11 3 38 0.4899 -1.5304
11 3 40 -10.1186 -1.1161
11 3 42 4.2872 -3.8867
11 3 44 -5.1345 4.2435
11 3 46 6.6270 -2.3392
11 3 48 -2.8231 -6.8913
11 4 1 3.6476 1.3465
11 4 3 -1.2698 -11.8053
11 4 5 -3.1241 9.5398
11 4 7 10.6824 1.6276
11 4 9 4.1815 2.8245
11 4 11 -1.6585 8.3066
11 4 13 7.7988 4.6604
11 4 15 -4.2575 -8.7916
11 4 17 12.5463 -6.4183
11 4 19 7.7310 11.4904
11 4 21 5.7855 -3.8449
11 4 23 0.7427 -0.2626
11 4 25 -5.3705 -3.1910
11 4 27 -4.9862 3.8790
11 4 29 -5.8430 2.8205
11 4 31 4.1792 -3.8886
11 4 33 0.7691 -0.6371
11 4 35 -0.7928 4.3381
11 4 37 3.0599 0.0030
11 4 39 0.9856 -4.1453
11 4 41 -2.5670 -1.7116
11 4 43 1.5116 0.0468
11 4 45 -6.0727 5.2247
11 4 47 -1.9824 -0.7784
11 5 0 -7.8082 0.5102
11 5 2 5.9370 4.0854
11 5 4 -9.1009 -6.5915
11 5 6 1.1335 -8.6042
11 5 8 14.6753 1.5636
11 5 10 -8.0162 4.6077
11 5 12 -9.4047 -1.9719
11 5 14 15.8219 -1.0528
11 5 16 -2.5250 0.3612
11 5 18 -2.2617 6.5690
11 5 20 -0.3103 -15.3175
11 5 22 -7.1831 -0.4090
11 5 24 -11.5321 -4.1916
11 5 26 -6.9911 0.5231
11 5 28 4.4709 6.9747
11 5 30 20.5622 2.1442
11 5 32 2.3568 -3.8248
11 5 34 4.6135 0.7552
11 5 36 -5.8807 4.6474
11 5 38 -3.2631 4.0617
11 5 40 8.1294 1.8534
11 5 42 3.3928 4.2561
11 5 44 1.3777 -3.5331
11 5 46 -0.3623 -1.8372
11 6 1 -5.4812 9.2833
11 6 3 8.9161 5.0180
11 6 5 3.4012 -1.7588
11 6 7 -11.9875 26.3937
11 6 9 -5.9315 -2.9518
11 6 11 -1.5127 -5.4016
11 6 13 5.6699 -11.2893
11 6 15 -1.3173 -7.6460
11 6 17 5.8802 -2.5767
11 6 19 -1.1384 -3.5220
11 6 21 -1.9930 0.9246
11 6 23 -3.9850 7.9549
11 6 25 -2.4009 3.8168
11 6 27 -5.6882 1.4922
11 6 29 -0.7159 -0.7966
11 6 31 -6.0501 -3.5320
11 6 33 -3.4442 -0.4406
11 6 35 -0.0595 -6.6725
11 6 37 0.3890 4.1280
11 6 39 -0.5668 -2.8646
11 6 41 0.7691 0.1471
11 6 43 1.4960 -1.4975
11 6 45 -5.5646 4.2471
11 7 0 11.4584 0.4330
11 7 2 8.3771 -6.9114
11 7 4 -14.1040 0.3590
11 7 6 0.8179 -0.3880
11 7 8 0.7408 -4.8170
11 7 10 2.8909 7.0168
11 7 12 -7.2160 2.8473
11 7 14 4.0739 -2.7698
11 7 16 7.0273 0.0425
11 7 18 -7.5701 -5.0784
11 7 20 -4.1332 -3.2593
11 7 22 1.2308 -0.0096
11 7 24 -5.4193 1.3721
11 7 26 -1.8924 1.3229
11 7 28 0.0441 -9.3198
11 7 30 4.9521 2.6078
11 7 32 1.5463 -3.4738
11 7 34 -5.7009 -0.8904
11 7 36 0.1880 6.4297
11 7 38 0.4155 4.2212
11 7 40 3.8726 3.1070
11 7 42 -3.4232 -5.0417
11 7 44 -2.0082 -0.3925
11 8 1 1.5572 -2.0955
11 8 3 -2.3675 -14.4317
11 8 5 -0.4833 5.1249
11 8 7 -10.2461 -9.5023
11 8 9 1.7561 -6.2962
11 8 11 3.6748 5.9008
11 8 13 1.8398 4.4324
11 8 15 -6.5506 1.7931
11 8 17 4.1311 -0.0612
11 8 19 -3.5870 8.1836
11 8 21 -4.2742 5.7500
11 8 23 6.4638 -4.3531
11 8 25 -2.6854 -5.7603
11 8 27 -5.8387 4.1779
11 8 29 0.6417 3.5626
11 8 31 -7.2683 3.6653
11 8 33 1.3264 -5.1609
11 8 35 -0.2662 -3.4108
11 8 37 0.0447 -1.9811
11 8 39 -0.9526 -0.1749
11 8 41 -7.4550 -0.4584
11 8 43 -1.0987 0.2904
11 9 0 0.4950 0.3221
11 9 2 7.6609 1.5324
11 9 4 5.1234 -0.7014
11 9 6 13.1558 2.7102
11 9 8 1.7428 9.8362
11 9 10 6.0117 -5.8675
11 9 12 9.7008 -2.4435
11 9 14 -4.5380 0.7529
11 9 16 -3.0271 -5.5819
11 9 18 -4.6049 1.9717
11 9 20 1.9536 4.0139
11 9 22 1.3771 -0.8433
11 9 24 -1.2888 1.8553
11 9 26 5.1773 4.5008
11 9 28 -0.6352 -2.8505
11 9 30 -1.6000 -4.5494
11 9 32 -0.2394 -0.5724
11 9 34 -0.5225 9.5597
11 9 36 -1.2096 -3.2134
11 9 38 2.8311 1.9494
11 9 40 3.5661 4.2177
11 10 1 -9.5777 2.3957
11 10 3 2.4434 7.7269
11 10 5 20.6208 10.5306
11 10 7 -12.5190 1.8883
11 10 9 -10.0974 10.2786
11 10 11 -1.0684 -8.2628
11 10 13 3.1724 -3.5477
11 10 15 -0.9291 1.2605
11 10 17 -0.4109 -4.4206
11 10 19 -0.1457 11.5987
11 10 21 -1.2084 -9.8887
11 10 23 -3.9284 8.8894
11 10 25 -7.1111 -4.0284
11 10 27 -3.2968 -9.7189
11 10 29 3.9233 -1.7721
11 10 31 3.4261 -3.7292
11 10 33 2.0159 0.2077
11 10 35 4.2358 4.2175
11 10 37 -0.9531 -8.0403
11 11 0 -5.6874 0.2388
11 11 2 13.0041 -1.7788
11 11 4 3.0544 -6.1255
11 11 6 -1.4575 0.6336
11 11 8 -7.3617 0.1077
11 11 10 -5.0918 5.1847
11 11 12 -6.0503 1.4527
11 11 14 4.1444 -7.1552
11 11 16 -1.7201 0.3596
11 11 18 -0.0856 -3.1511
11 11 20 2.0951 2.6065
11 11 22 -0.4603 -12.1723
11 11 24 -5.0629 0.5275
11 11 26 -5.1680 6.4269
11 11 28 -0.6250 -0.0682
11 11 30 -1.8841 -5.3981
11 11 32 -2.2969 0.2029
11 11 34 -1.2446 -3.5856
11 12 1 -3.8575 6.4638
11 12 3 3.4771 -1.1978
11 12 5 5.6180 8.3244
11 12 7 8.5207 3.1841
11 12 9 4.7928 -6.6160
11 12 11 -3.4594 2.7406
11 12 13 2.8685 -1.0937
11 12 15 7.1009 2.4637
11 12 17 0.3936 -2.3887
11 12 19 -5.4857 -6.2738
11 12 21 -2.6883 -1.4185
11 12 23 1.8031 4.1260
11 12 25 -0.7460 -0.7015
11 12 27 -5.2590 -2.9137
11 12 29 0.2738 -2.7466
11 12 31 -2.8309 -2.0955
11 13 0 -0.5100 0.1534
11 13 2 -1.1557 -1.2692
11 13 4 4.8255 1.4494
11 13 6 -3.1515 -0.7607
11 13 8 -8.5036 8.4533
11 13 10 7.3963 -9.8470
11 13 12 0.2884 5.1604
11 13 14 1.9761 -6.4295
11 13 16 -6.9184 4.0114
11 13 18 -1.9921 -0.5072
11 13 20 2.2591 2.5476
11 13 22 -9.9642 -8.2170
11 13 24 1.7653 -1.5839
11 13 26 2.1188 2.7094
11 14 1 4.3625 1.4302
11 14 3 1.7951 -3.4214
11 14 5 2.6840 -1.8692
11 14 7 2.0405 3.6118
11 14 9 1.1965 0.5318
11 14 11 -3.5829 3.9364
11 14 13 -3.1054 -1.3295
11 14 15 2.6330 -0.7200
11 14 17 -0.1809 1.2392
11 14 19 3.9378 -0.7150
11 14 21 -2.4829 -2.0280
11 15 0 -4.6851 0.1004
11 15 2 1.6665 3.1145
11 15 4 2.7572 -2.5657
11 15 6 -1.3419 0.3538
11 15 8 -2.2069 6.0424
11 15 10 1.1764 -0.8473
11 15 12 -4.6097 -4.1160
12 1 1 5.2192 9.2976
12 1 3 5.2885 -10.3659
12 1 5 1.8028 1.3202
12 1 7 -4.3272 0.9903
12 1 9 -1.8404 -10.7975
12 1 11 -6.4741 -2.3532
12 1 13 -7.1266 -5.1104
12 1 15 -0.5499 -1.7341
12 1 17 -7.1215 6.7970
12 1 19 3.5939 4.7085
12 1 21 4.8688 7.2814
12 1 23 3.8907 -3.5227
12 1 25 0.1449 -1.0930
12 1 27 3.5274 -1.5548
12 1 29 -4.1402 -5.8213
12 1 31 5.7005 4.6995
12 1 33 12.2045 -3.4449
12 1 35 -1.7099 -0.4748
12 1 37 3.5690 10.4734
12 1 39 1.6240 -1.6522
12 1 41 3.9733 1.1949
12 1 43 -4.7689 -2.4262
12 1 45 -2.2816 -0.4981
12 1 47 3.6974 2.2204
12 2 0 9.4817 -0.4815
12 2 2 -6.5053 -4.6558
12 2 4 -1.5958 2.6430
12 2 6 -7.7243 -5.1192
12 2 8 -0.5822 7.9405
12 2 10 3.1627 -3.9885
12 2 12 0.2542 4.5357
12 2 14 5.0140 6.0395
12 2 16 5.4809 -15.0658
12 2 18 5.4231 2.1944
12 2 20 -9.1785 -2.6258
12 2 22 0.3035 -5.4889
12 2 24 14.0517 -2.5725
12 2 26 13.8868 -8.1852
12 2 28 -2.5097 7.8470
12 2 30 -0.5800 9.4428
12 2 32 11.4704 -0.4766
12 2 34 2.3774 2.6656
12 2 36 -2.3843 8.9298
12 2 38 -5.1600 3.7325
12 2 40 -0.9392 8.4891
12 2 42 0.6480 4.7783
12 2 44 -6.0895 7.8638
12 2 46 10.7919 3.3626
12 3 1 0.9641 -1.6294
12 3 3 1.6075 4.9306
12 3 5 -0.5592 1.8808
12 3 7 -3.4488 -4.4719
12 3 9 -6.2303 -8.9461
12 3 11 -7.2233 0.8488
12 3 13 4.2420 0.4442
12 3 15 1.2694 -1.6057
12 3 17 7.8491 -0.8102
12 3 19 -5.0688 -5.2737
12 3 21 0.1816 -6.3874
12 3 23 5.1353 5.0218
12 3 25 13.5643 -3.0916
12 3 27 9.9682 2.4066
12 3 29 -3.3480 4.3675
12 3 31 -0.1941 1.6190
12 3 33 -2.1435 5.5407
12 3 35 -1.6748 -3.3677
12 3 37 -7.1547 -4.3687
12 3 39 -3.0460 1.9173
12 3 41 2.7071 1.8946
12 3 43 1.5657 0.9647
12 3 45 1.0343 2.1479
12 3 47 4.1200 3.0191
12 4 0 -3.8162 -0.4326
12 4 2 -1.1651 -5.6341
12 4 4 -5.1040 2.8042
12 4 6 3.0796 1.8942
12 4 8 2.6836 2.6594
12 4 10 -9.7899 2.7463
12 4 12 2.5936 -7.5132
12 4 14 -4.3550 -2.6635
12 4 16 5.3218 5.5765
12 4 18 5.3276 4.7568
12 4 20 3.7411 3.1430
12 4 22 -0.5258 -3.0832
12 4 24 8.3137 3.8341
12 4 26 -8.1083 -10.8491
12 4 28 -0.8300 -2.9797
12 4 30 -3.2494 4.6342
12 4 32 -1.0717 -7.0809
12 4 34 1.9798 2.9687
12 4 36 -2.8202 -8.9775
12 4 38 -5.6365 3.5456
12 4 40 -10.5124 -0.5047
12 4 42 3.1570 3.2593
12 4 44 4.1330 4.5026
12 4 46 0.5654 -0.5381
12 5 1 -3.1805 -6.0238
12 5 3 -0.3316 0.4390
12 5 5 -6.6657 7.1146
12 5 7 9.2519 4.5989
12 5 9 6.4956 -11.2791
12 5 11 7.7785 7.4401
12 5 13 1.1981 -4.0173
12 5 15 -4.9904 -4.0368
12 5 17 3.2920 2.7352
12 5 19 6.4801 4.2368
12 5 21 -9.1763 -12.4954
12 5 23 2.9650 -2.5960
12 5 25 -12.5295 -0.1886
12 5 27 2.1304 1.6184
12 5 29 3.7577 0.6069
12 5 31 3.8090 1.0140
12 5 33 2.5181 -1.4577
12 5 35 2.6624 -1.3139
12 5 37 4.5375 2.9535
12 5 39 0.3214 -2.9936
12 5 41 3.3945 2.1999
12 5 43 1.0311 5.7428
12 5 45 -0.5395 -4.7295
12 6 0 1.1725 -0.3678
12 6 2 -1.7198 3.2563
12 6 4 -3.3631 -4.3552
12 6 6 -4.4922 4.4140
12 6 8 -2.5916 3.4001
12 6 10 -3.7081 0.2622
12 6 12 -23.4361 -2.5285
12 6 14 10.3740 -0.0387
12 6 16 -14.7071 1.5089
12 6 18 3.6802 0.7245
12 6 20 4.5211 -0.4222
12 6 22 -4.1442 -5.5028
12 6 24 2.8469 -3.1977
12 6 26 -5.0771 0.4292
12 6 28 2.6440 1.1969
12 6 30 0.9895 -2.7927
12 6 32 -6.0083 -1.0536
12 6 34 0.7981 -8.5446
12 6 36 -1.4660 -4.0454
12 6 38 -0.2625 -4.5902
12 6 40 4.9621 10.6578
12 6 42 -4.1750 -2.0950
12 6 44 -2.3851 -2.8978
12 7 1 0.6026 4.9806
12 7 3 8.4247 -0.3752
12 7 5 6.5022 -4.5915
12 7 7 -0.8003 16.9903
12 7 9 -1.1276 2.3235
12 7 11 -9.4243 -4.7185
12 7 13 1.5233 -0.5339
12 7 15 -0.2137 2.7909
12 7 17 -4.4341 5.7525
12 7 19 -4.8706 2.4190
12 7 21 -5.0188 2.9682
12 7 23 -2.2820 -0.7882
12 7 25 1.4790 -3.3807
12 7 27 -3.5993 5.6410
12 7 29 -0.4308 -1.2106
12 7 31 -3.2603 2.3301
12 7 33 -1.6494 -2.8379
12 7 35 -2.5581 0.5645
12 7 37 -0.3252 -3.9804
12 7 39 0.4323 -1.3924
12 7 41 3.0165 -1.1237
12 8 0 -3.1635 -0.2815
12 8 2 7.7813 -4.1633
12 8 4 0.6537 -0.8641
12 8 6 -4.2655 10.9198
12 8 8 5.9827 -13.7994
12 8 10 2.6938 4.4114
12 8 12 5.5142 1.9879
12 8 14 -3.8523 5.4488
12 8 16 3.9835 2.0530
12 8 18 2.8011 1.4807
12 8 20 0.2304 -0.9918
12 8 22 -2.2893 -0.0349
12 8 24 -1.1730 11.6787
12 8 26 0.4753 -2.0001
12 8 28 -1.0312 5.4430
12 8 30 5.3194 -0.8877
12 8 32 6.7461 0.2946
12 8 34 -2.9891 -6.3674
12 8 36 -1.4507 5.8365
12 8 38 0.1782 -3.0125
12 8 40 1.9575 0.4820
12 9 1 8.2479 -5.2426
12 9 3 2.8396 -3.1830
12 9 5 -3.8151 4.8062
12 9 7 -3.5906 2.0000
12 9 9 3.3558 -3.9103
12 9 11 4.6422 -0.7602
12 9 13 0.2024 -2.8495
12 9 15 -1.5137 1.6320
12 9 17 -4.1428 2.0969
12 9 19 5.8485 -1.7761
12 9 21 -8.4205 -0.4315
12 9 23 -1.8240 3.7834
12 9 25 -3.7823 -3.8098
12 9 27 -11.3079 -6.1301
12 9 29 3.8905 1.8809
12 9 31 -1.9688 3.2967
12 9 33 -4.0732 -4.0996
12 9 35 1.8138 -1.1225
12 9 37 -5.6762 -3.3663
12 10 0 10.6511 -0.2138
12 10 2 4.3492 -3.0126
12 10 4 7.8271 6.1903
12 10 6 1.1503 0.9264
12 10 8 1.3815 14.1945
12 10 10 -2.0137 0.4042
12 10 12 2.6988 -4.9908
12 10 14 6.1498 -0.5876
12 10 16 -2.5253 -1.1854
12 10 18 0.3113 1.2346
12 10 20 7.3746 3.9497
12 10 22 5.8729 -11.1570
12 10 24 -1.5904 0.2901
12 10 26 -1.1777 -5.0402
12 10 28 1.2405 0.5655
12 10 30 7.5303 -7.1829
12 10 32 7.0275 -1.0210
12 10 34 -2.7690 2.4963
12 11 1 0.2190 -13.8481
12 11 3 0.9304 1.3309
12 11 5 8.0549 5.6105
12 11 7 -2.2518 -0.8136
12 11 9 1.6019 -4.4373
12 11 11 2.0980 -4.4535
12 11 13 -3.2793 -3.8145
12 11 15 -9.2871 2.5485
12 11 17 -1.2887 0.9599
12 11 19 6.8743 4.1140
12 11 21 0.4265 2.8575
12 11 23 0.3871 -5.7756
12 11 25 1.9913 0.6976
12 11 27 -4.9697 7.1698
12 11 29 -2.6332 3.1210
12 11 31 -4.2801 3.7021
12 12 0 -3.9433 -0.1669
12 12 2 1.4142 3.5933
12 12 4 12.6014 -4.9799
12 12 6 -4.9323 3.0905
12 12 8 8.7406 -3.1339
12 12 10 -1.5270 -5.3258
12 12 12 4.4100 -1.9585
12 12 14 4.9452 4.3801
12 12 16 -0.4627 4.4611
12 12 18 -3.4209 3.2124
12 12 20 0.0094 -1.1891
12 12 22 -0.6034 -6.9847
12 12 24 -3.1498 -1.1238
12 12 26 4.9278 1.3572
12 12 28 -0.9264 -0.1280
12 13 1 -1.0225 2.9859
12 13 3 -4.1170 0.7756
12 13 5 -3.3572 0.5238
12 13 7 0.3081 -0.1936
12 13 9 5.1317 -5.4558
12 13 11 -0.5095 1.6573
12 13 13 -0.8485 4.9476
12 13 15 -6.4995 -5.1256
12 13 17 0.2302 2.6310
12 13 19 -2.4080 5.2287
12 13 21 0.0088 0.0809
12 13 23 -4.9235 -1.1989
12 14 0 2.5342 -0.1134
12 14 2 -0.5527 -1.5962
12 14 4 2.6018 2.1532
12 14 6 1.5284 4.0252
12 14 8 -4.6336 5.0622
12 14 10 -1.0539 1.0059
12 14 12 1.7336 -4.3764
12 14 14 -2.7361 5.3291
12 14 16 -1.2824 -4.4737
13 1 0 -1.7864 0.3854
13 1 2 -2.8967 -3.1083
13 1 4 1.1227 -1.7336
13 1 6 -0.3422 -1.2703
13 1 8 -7.8590 -1.9069
13 1 10 1.0270 -0.6195
13 1 12 -14.3591 -7.8550
13 1 14 7.9668 7.7546
13 1 16 1.0750 -4.7833
13 1 18 6.1529 -3.9740
13 1 20 1.5655 1.1767
13 1 22 -1.6668 -0.9012
13 1 24 -3.8025 2.3450
13 1 26 3.1770 2.5711
13 1 28 -2.4010 -1.8006
13 1 30 -3.3128 6.4785
13 1 32 -13.0192 0.1896
13 1 34 3.4075 7.5453
13 1 36 -1.4250 5.4469
13 1 38 4.8978 -3.8662
13 1 40 8.1445 0.0586
13 1 42 1.0240 -2.3205
13 1 44 -0.5570 -4.2026
13 2 1 -5.3007 -1.5352
13 2 3 1.3572 3.5126
13 2 5 0.9158 -8.8184
13 2 7 -4.1131 2.9202
13 2 9 4.5964 -0.4613
13 2 11 2.4189 -0.7631
13 2 13 -0.3724 -7.0635
13 2 15 -4.5227 2.9931
13 2 17 3.0408 2.5253
13 2 19 4.5625 2.8699
13 2 21 1.0100 -1.2764
13 2 23 2.9655 -16.7784
13 2 25 -8.8193 -2.1856
13 2 27 -1.6735 10.3315
13 2 29 0.9437 -4.5158
13 2 31 -1.1923 -0.3420
13 2 33 6.9447 7.5031
13 2 35 -3.5795 5.9859
13 2 37 -1.8561 -1.1384
13 2 39 2.4738 -0.0747
13 2 41 2.0709 1.7544
13 2 43 1.5295 0.1373
13 3 0 2.3764 0.3637
13 3 2 8.5606 -0.9006
13 3 4 1.7423 -0.0790
13 3 6 -12.7597 1.6152
13 3 8 -5.4072 2.3402
13 3 10 5.0711 -3.2719
13 3 12 1.7689 1.5965
13 3 14 -0.1915 -5.7754
13 3 16 -4.4051 -4.9949
13 3 18 -5.8709 -3.5050
13 3 20 -6.7489 -7.7315
13 3 22 0.9550 -7.0072
13 3 24 -3.7096 3.5393
13 3 26 -6.8644 -6.2597
13 3 28 -1.1690 3.6394
13 3 30 0.0682 4.0281
13 3 32 -2.5416 -1.9300
13 3 34 5.4706 5.0272
13 3 36 1.1455 -7.0471
13 3 38 0.7906 3.1898
13 3 40 8.1714 -8.4320
13 3 42 4.5251 0.3648
13 3 44 -4.5900 11.3331
13 4 1 -4.8706 -0.6191
13 4 3 -6.2576 5.2171
13 4 5 -4.1266 0.3851
13 4 7 -0.8499 0.1939
13 4 9 -4.8129 -4.0393
13 4 11 2.0600 1.9849
13 4 13 2.5477 -0.0195
13 4 15 -0.6823 2.4844
13 4 17 -10.0714 2.5361
13 4 19 -0.0206 7.2639
13 4 21 -0.0980 -5.2846
13 4 23 -10.1142 4.4018
13 4 25 -0.9665 -5.4649
13 4 27 -7.7045 -1.3744
13 4 29 -3.6047 6.2951
13 4 31 0.1920 -0.4839
13 4 33 1.2365 -5.6998
13 4 35 2.0266 -6.7425
13 4 37 0.3011 -1.2355
13 4 39 4.6730 -0.7306
13 4 41 -4.1463 -3.8579
13 4 43 3.1111 -0.9631
13 5 0 0.1157 0.3307
13 5 2 8.1774 4.8540
13 5 4 2.1587 3.3023
13 5 6 0.1858 -0.4718
13 5 8 -2.7355 8.1190
13 5 10 0.7387 3.7552
13 5 12 2.3033 2.8307
13 5 14 -6.1933 -2.6865
13 5 16 3.4399 0.6794
13 5 18 -8.9869 -2.8190
13 5 20 4.2412 0.0684
13 5 22 -10.7114 -11.4312
13 5 24 2.9372 -2.9339
13 5 26 -2.4041 0.0437
13 5 28 -3.2980 4.4953
13 5 30 -2.2612 -0.2465
13 5 32 2.8824 0.5611
13 5 34 -6.6427 -2.7900
13 5 36 3.4385 -4.6318
13 5 38 -3.7881 0.2058
13 5 40 0.5902 4.4323
13 5 42 1.5956 1.9226
13 6 1 -1.3204 -6.6129
13 6 3 -2.3801 -4.2290
13 6 5 -0.1019 -4.3645
13 6 7 2.0255 -3.9377
13 6 9 7.9376 1.6132
13 6 11 2.6393 7.0056
13 6 13 -1.9527 -2.6128
13 6 15 -4.9702 1.4879
13 6 17 -0.0921 0.0145
13 6 19 1.4383 -6.7891
13 6 21 1.5729 -0.2555
13 6 23 -1.7236 -4.4246
13 6 25 1.7574 2.6962
13 6 27 -3.2180 4.2680
13 6 29 4.0944 0.5212
13 6 31 -3.7774 -0.4710
13 6 33 0.8811 -1.3613
13 6 35 -2.1561 1.6943
13 6 37 3.3139 -1.2195
13 6 39 -3.2273 1.0725
13 7 0 4.4870 0.2693
13 7 2 -3.6074 -0.1770
13 7 4 2.7325 -4.1691
13 7 6 4.9595 2.7020
13 7 8 1.7818 4.6484
13 7 10 -6.6657 -2.8206
13 7 12 -0.5754 0.7270
13 7 14 3.4750 7.1147
13 7 16 6.4432 -4.6779
13 7 18 3.8756 2.9898
13 7 20 4.7241 -0.1005
13 7 22 -3.4803 4.1612
13 7 24 -8.5576 1.6067
13 7 26 -3.0486 0.7951
13 7 28 -2.6868 2.7027
13 7 30 -4.7421 -0.5422
13 7 32 -4.5396 0.7630
13 7 34 -7.9683 -6.5730
13 7 36 -2.0962 -0.8296
13 7 38 2.5275 -3.5531
13 8 1 5.1759 -1.7220
13 8 3 3.4740 3.7678
13 8 5 -0.8063 -6.0177
13 8 7 -17.1622 -4.5408
13 8 9 2.8673 4.1583
13 8 11 -0.8804 2.6608
13 8 13 -2.6356 5.3882
13 8 15 -0.6504 -3.0780
13 8 17 -5.2667 1.9463
13 8 19 -4.0431 2.5185
13 8 21 3.9819 -6.8593
13 8 23 2.7414 -1.9973
13 8 25 -3.3385 2.2312
13 8 27 0.0028 -8.8442
13 8 29 9.4786 -0.2489
13 8 31 1.3027 1.2867
13 8 33 1.7775 1.4665
13 8 35 -0.1645 0.7409
13 8 37 -5.5656 -3.9741
13 9 0 -9.7163 0.2160
13 9 2 4.5765 6.5950
13 9 4 7.1749 -1.2472
13 9 6 -3.4336 -3.6680
13 9 8 4.3298 -3.7881
13 9 10 -1.1574 -2.5213
13 9 12 16.5531 0.6072
13 9 14 -6.2565 2.4321
13 9 16 -0.8106 0.9909
13 9 18 5.5160 5.2549
13 9 20 -0.0108 -1.9207
13 9 22 0.5208 -2.1325
13 9 24 3.2059 3.4874
13 9 26 3.9521 2.3350
13 9 28 0.0596 4.3557
13 9 30 2.9173 -3.0426
13 9 32 -1.1105 -0.2505
13 9 34 -6.8218 -1.0488
13 10 1 1.5084 5.8791
13 10 3 -1.8027 -1.9839
13 10 5 -1.1153 0.8846
13 10 7 -1.1419 0.9056
13 10 9 -3.9990 1.6493
13 10 11 0.2637 1.8542
13 10 13 10.1963 1.7543
13 10 15 2.2870 -5.4438
13 10 17 3.0799 -2.2404
13 10 19 0.1989 0.0624
13 10 21 -6.6531 0.5111
13 10 23 0.9318 5.1568
13 10 25 -0.8864 -0.4392
13 10 27 9.0068 5.6601
13 10 29 0.7012 3.4210
13 10 31 1.5328 -0.9572
13 11 0 0.8841 0.1645
13 11 2 -2.5626 -3.0639
13 11 4 0.7256 -1.1184
13 11 6 -5.7320 0.9650
13 11 8 1.2291 1.2758
13 11 10 3.8102 -8.6933
13 11 12 -6.2314 2.2803
13 11 14 -4.3916 4.0706
13 11 16 -2.8504 -4.1446
13 11 18 5.4726 -0.2191
13 11 20 4.0528 4.0130
13 11 22 -2.0948 -11.0509
13 11 24 0.1521 0.3851
13 11 26 4.0697 -1.6201
13 11 28 1.3378 1.2429
13 12 1 5.2140 -4.2794
13 12 3 2.7190 -0.9632
13 12 5 5.0208 1.3118
13 12 7 0.5454 0.7349
13 12 9 0.4552 4.4365
13 12 11 2.3190 2.7931
13 12 13 -1.9582 -1.9278
13 12 15 3.3358 0.5258
13 12 17 -0.9004 -2.0914
13 12 19 -1.0423 2.1313
13 12 21 -1.5454 -0.8317
13 12 23 -2.5152 -0.0595
13 13 0 -4.3173 0.1224
13 13 2 -5.1247 -2.0778
13 13 4 -7.2162 -1.2340
13 13 6 -2.5745 2.1027
13 13 8 1.4890 -1.6867
13 13 10 3.7230 -5.5057
13 13 12 12.6308 -4.1205
13 13 14 0.6477 -1.3298
13 13 16 -3.0789 -1.6655
14 1 1 -0.9433 1.8420
14 1 3 1.4160 -1.2383
14 1 5 6.5137 0.9532
14 1 7 1.1338 -1.4986
14 1 9 -5.3746 -0.5712
14 1 11 -1.6640 3.0935
14 1 13 -4.1291 -0.3578
14 1 15 -3.7563 -4.7168
14 1 17 2.4206 1.4408
14 1 19 2.7049 -4.2729
14 1 21 0.6782 8.9056
14 1 23 0.1209 -2.0780
14 1 25 -11.6989 0.2385
14 1 27 -5.8359 0.6107
14 1 29 -5.7559 3.0434
14 1 31 0.6020 6.2497
14 1 33 5.0917 -4.2815
14 1 35 -3.2492 -2.2755
14 1 37 0.4228 -1.8139
14 1 39 -0.8533 0.6017
14 1 41 1.8198 -5.4114
14 2 0 2.9856 -0.3029
14 2 2 5.7980 -1.6507
14 2 4 -1.9327 -3.0600
14 2 6 3.2191 5.9214
14 2 8 -1.5074 -2.8526
14 2 10 4.1290 2.5110
14 2 12 1.1326 -7.0722
14 2 14 -8.3191 -0.5278
14 2 16 -0.3018 2.0145
14 2 18 -3.1721 -1.9575
14 2 20 -9.0927 -0.1141
14 2 22 0.2591 4.7693
14 2 24 -10.6634 4.1130
14 2 26 -2.0229 -2.1195
14 2 28 0.0309 -1.4861
14 2 30 -0.3098 -1.9353
14 2 32 3.4915 3.5625
14 2 34 8.6229 0.7753
14 2 36 2.9924 0.4958
14 2 38 -4.1491 -1.6428
14 2 40 5.3144 -2.7996
14 3 1 0.2152 -0.2930
14 3 3 5.1634 -0.2819
14 3 5 1.5595 1.0913
14 3 7 -3.7802 -4.2655
14 3 9 0.6189 -0.0070
14 3 11 3.0462 -2.7471
14 3 13 6.0828 2.8113
14 3 15 -0.3134 3.2629
14 3 17 0.7535 -1.4689
14 3 19 -4.0507 -7.0949
14 3 21 -10.8071 -15.2637
14 3 23 -5.7532 -2.1832
14 3 25 2.1897 -4.8355
14 3 27 -0.1780 2.6587
14 3 29 -0.0151 -3.7758
14 3 31 2.5010 -1.8561
14 3 33 1.2494 2.4692
14 3 35 0.1480 0.7156
14 3 37 -1.8361 0.7535
14 3 39 1.9034 5.2271
14 4 0 -0.0980 -0.2818
14 4 2 5.2700 -4.7659
14 4 4 -1.9363 6.7547
14 4 6 -1.5201 2.7057
14 4 8 -1.4820 -0.9989
14 4 10 -0.9667 -3.3757
14 4 12 -2.5580 -5.8422
14 4 14 -2.3525 1.7644
14 4 16 2.4636 0.8053
14 4 18 -4.9393 4.0648
14 4 20 6.0477 -1.4638
14 4 22 0.3274 -6.0000
14 4 24 0.2946 2.2329
14 4 26 -4.6215 3.2466
14 4 28 -3.3768 3.9542
14 4 30 -1.6316 1.2139
14 4 32 -5.4857 -3.1154
14 4 34 -1.5684 0.4424
14 4 36 2.6977 -1.8913
14 4 38 -3.9415 0.8030
14 4 40 4.1707 -1.4850
14 5 1 2.1926 5.0421
14 5 3 -8.0132 2.0697
14 5 5 3.6809 -1.8081
14 5 7 -2.6598 -1.4264
14 5 9 3.9109 4.3687
14 5 11 3.5569 2.8959
14 5 13 -4.0656 0.5446
14 5 15 4.0573 2.2509
14 5 17 -4.1772 -1.9065
14 5 19 -1.1424 4.2646
14 5 21 0.9287 -4.1499
14 5 23 -3.3132 -2.1741
14 5 25 -4.8108 -0.3556
14 5 27 3.1781 -4.8281
14 5 29 1.8472 0.3461
14 5 31 2.8810 1.7011
14 5 33 -4.8194 -0.5716
14 5 35 -1.7280 -0.8864
14 5 37 -0.3313 6.0948
14 6 0 4.0399 -0.2463
14 6 2 -6.0970 3.0751
14 6 4 0.2062 -3.8880
14 6 6 2.3889 1.4974
14 6 8 2.3536 -3.7751
14 6 10 2.2173 -3.2277
14 6 12 1.4827 0.6573
14 6 14 -1.0942 4.3961
14 6 16 -1.0508 -3.9552
14 6 18 -5.6696 -0.7890
14 6 20 -0.8525 3.9704
14 6 22 -0.3766 -5.4972
14 6 24 5.8921 1.1050
14 6 26 0.5282 -3.0200
14 6 28 -0.4987 -2.7390
14 6 30 3.5788 2.1896
14 6 32 -4.4180 1.9507
14 6 34 -4.0944 -3.5451
14 6 36 -1.3874 0.5007
14 7 1 -1.0226 -2.9998
14 7 3 -2.0574 1.2824
14 7 5 0.3856 3.3438
14 7 7 -2.6883 1.0002
14 7 9 0.8713 1.6570
14 7 11 -11.5227 3.0595
14 7 13 -2.6963 -1.5874
14 7 15 3.0763 0.7592
14 7 17 -2.0658 1.3291
14 7 19 0.3288 -2.4403
14 7 21 -3.3626 3.9886
14 7 23 1.4422 -1.5518
14 7 25 1.9920 -2.4606
14 7 27 -0.5511 -1.8522
14 7 29 3.0234 2.6136
14 7 31 -2.0832 -0.0063
14 7 33 -3.9530 4.9937
14 7 35 0.9269 0.3402
14 8 0 2.0843 -0.2107
14 8 2 -3.5071 -5.0963
14 8 4 -7.9695 -6.1739
14 8 6 5.0943 0.6406
14 8 8 -0.2051 -0.9499
14 8 10 1.0291 -0.1052
14 8 12 -1.1138 -4.6145
14 8 14 0.6118 -1.2608
14 8 16 4.9621 -0.3581
14 8 18 -0.3283 -2.7430
14 8 20 -1.2265 -0.8321
14 8 22 -0.2038 -0.5386
14 8 24 -0.6947 -1.8544
14 8 26 3.7888 5.6221
14 8 28 -5.4736 2.8377
14 8 30 -2.3779 5.5818
14 8 32 5.3500 -2.2220
14 9 1 -0.6343 -2.8000
14 9 3 4.0352 -0.6263
14 9 5 0.4537 3.0160
14 9 7 -3.3041 2.8081
14 9 9 -0.4687 -1.7279
14 9 11 1.3286 2.2836
14 9 13 -4.8638 2.7834
14 9 15 -0.9950 -3.8032
14 9 17 -1.3976 -3.7645
14 9 19 -0.6585 4.4562
14 9 21 7.0120 1.8146
14 9 23 -0.0284 -4.2855
14 9 25 -0.7298 0.7098
14 9 27 -0.2146 -4.6391
14 9 29 0.8219 1.9021
14 10 0 0.0898 -0.1682
14 10 2 6.1692 4.0820
14 10 4 -1.5874 -2.5802
14 10 6 -1.4251 -0.2512
14 10 8 -1.1982 4.9326
14 10 10 -2.2774 4.5102
14 10 12 4.0701 -3.6098
14 10 14 2.0011 -3.2831
14 10 16 4.7698 1.4237
14 10 18 -2.9563 0.2898
14 10 20 2.2099 -1.4703
14 10 22 -0.9786 0.8964
14 10 24 0.2704 -1.5904
14 10 26 -9.1687 0.1643
14 11 1 -3.4628 -1.5574
14 11 3 -2.9454 4.9326
14 11 5 0.5964 -3.1243
14 11 7 -1.2223 -2.5672
14 11 9 1.1789 0.1146
14 11 11 -1.3797 -4.4113
14 11 13 -7.5291 -3.1398
14 11 15 -0.0639 -2.4837
14 11 17 3.6829 0.4997
14 11 19 0.8015 -1.6393
14 11 21 2.2346 -0.2120
14 12 0 4.3428 -0.1270
14 12 2 -0.1826 -0.6328
14 12 4 4.3641 3.5393
14 12 6 1.6761 0.1227
14 12 8 3.2638 -6.7355
14 12 10 -1.9642 -0.2219
14 12 12 1.7161 0.3053
14 12 14 0.3210 -0.1996
15 1 0 -3.1728 0.2417
15 1 2 7.8798 -0.9331
15 1 4 5.2274 -2.1132
15 1 6 -1.9272 -3.2271
15 1 8 -4.0073 -2.8720
15 1 10 -1.9047 5.1660
15 1 12 -3.9885 0.3688
15 1 14 1.5495 -1.7648
15 1 16 -3.3821 -0.7207
15 1 18 -1.5592 0.3654
15 1 20 2.2325 -0.7015
15 1 22 3.1732 -0.9187
15 1 24 -0.4731 -7.2869
15 1 26 -0.7103 -1.2106
15 1 28 -3.3545 -0.4261
15 1 30 -1.8157 -0.8195
15 1 32 0.2416 2.0149
15 1 34 -2.8146 1.5958
15 1 36 -0.5159 3.2235
15 1 38 -4.6545 5.0013
15 2 1 -0.8098 -2.5121
15 2 3 1.3604 1.9195
15 2 5 -1.5580 -2.3066
15 2 7 4.0252 1.1420
15 2 9 0.1438 -4.4018
15 2 11 0.1789 -0.6319
15 2 13 2.8644 0.9142
15 2 15 -5.1883 -2.6444
15 2 17 3.7923 0.0672
15 2 19 0.2298 1.6814
15 2 21 -2.3191 -6.3403
15 2 23 5.3644 1.3971
15 2 25 -1.7265 1.1404
15 2 27 -1.5241 -0.2298
15 2 29 -0.2968 2.9573
15 2 31 1.2550 1.1865
15 2 33 0.5374 -0.2501
15 2 35 0.0811 -1.9236
15 2 37 1.0733 -1.2110
15 3 0 -4.7727 0.2308
15 3 2 3.6009 -3.1294
15 3 4 0.5961 2.9796
15 3 6 1.3654 -2.8751
15 3 8 -0.4385 -1.2458
15 3 10 -2.6833 -1.5925
15 3 12 4.5609 1.1343
15 3 14 2.7466 0.2719
15 3 16 4.1577 -2.6756
15 3 18 -0.5924 7.3730
15 3 20 0.9816 -2.1975
15 3 22 1.8951 2.2922
15 3 24 -3.9647 -2.4671
15 3 26 4.9230 -2.8013
15 3 28 -1.4107 1.2912
15 3 30 -2.1862 4.1479
15 3 32 5.2493 0.1924
15 3 34 -1.7755 5.6768
15 3 36 1.5152 -3.3958
15 4 1 1.1925 2.8334
15 4 3 0.3789 0.7301
15 4 5 1.0079 -1.5432
15 4 7 -3.4086 -0.3582
15 4 9 3.9698 0.5902
15 4 11 -0.9116 -6.0162
15 4 13 0.9523 0.2397
15 4 15 -0.4786 1.3112
15 4 17 -7.0562 5.5118
15 4 19 -3.6688 -3.9597
15 4 21 -2.3910 -5.7339
15 4 23 -1.6559 -0.5224
15 4 25 -0.9942 4.6774
15 4 27 0.3765 1.9035
15 4 29 3.1197 -1.8638
15 4 31 3.1519 -1.1607
15 4 33 -0.8458 -1.2587
15 4 35 0.5502 1.2689
15 5 0 5.3980 0.2060
15 5 2 -5.7037 0.0564
15 5 4 -1.7493 7.7097
15 5 6 -0.0889 -1.7361
15 5 8 -4.3126 0.9640
15 5 10 2.9162 3.0926
15 5 12 0.9758 0.3484
15 5 14 -1.5281 1.3269
15 5 16 1.3022 8.3420
15 5 18 -10.6799 10.4812
15 5 20 1.3018 3.6284
15 5 22 0.4841 1.8228
15 5 24 -3.8006 -0.7755
15 5 26 1.1062 -2.1016
15 5 28 0.8238 3.9997
15 5 30 1.0404 -0.4659
15 5 32 -2.4567 0.7836
15 5 34 -2.0082 2.3006
15 6 1 1.3931 1.6748
15 6 3 1.4336 1.7747
15 6 5 -0.7458 2.9885
15 6 7 0.9187 -4.4657
15 6 9 5.5338 3.7272
15 6 11 -4.7389 -0.8158
15 6 13 -1.3763 -4.3421
15 6 15 -3.0082 -2.6959
15 6 17 -0.3543 -3.9958
15 6 19 -2.8516 -3.5663
15 6 21 2.7606 -0.7239
15 6 23 1.1361 -2.3318
15 6 25 3.8608 0.5499
15 6 27 4.4050 -1.5526
15 6 29 1.1393 -5.6374
15 6 31 1.1051 -1.7660
15 6 33 -2.7778 6.6210
15 7 0 -1.4414 0.1840
15 7 2 1.7958 2.7757
15 7 4 0.5495 -4.3072
15 7 6 0.5597 1.4589
15 7 8 -1.3223 -3.1777
15 7 10 -9.1798 0.4727
15 7 12 4.2077 -0.7960
15 7 14 4.6392 1.5423
15 7 16 -1.5924 -2.0466
15 7 18 0.9113 -2.7787
15 7 20 4.1733 2.0481
15 7 22 1.4486 -0.0437
15 7 24 -2.0899 1.3378
15 7 26 4.7469 -2.3643
15 7 28 -5.5900 0.2304
15 7 30 -3.4119 -2.0129
15 8 1 -1.7692 1.4017
15 8 3 6.1246 -4.0397
15 8 5 -1.8373 -1.2650
15 8 7 4.6756 -0.2216
15 8 9 2.1294 1.9198
15 8 11 0.1836 4.7329
15 8 13 0.3105 -2.1003
15 8 15 -0.8843 -5.2114
15 8 17 -1.5748 -1.5883
15 8 19 -0.5533 4.0900
15 8 21 2.7343 -2.7091
15 8 23 -1.9862 3.6010
15 8 25 -5.3561 1.1954
15 8 27 -1.5201 -2.5238
15 9 0 0.0217 0.1473
15 9 2 -5.2185 -2.0072
15 9 4 -1.6475 0.6286
15 9 6 1.3718 -2.5153
15 9 8 0.7623 -1.8036
15 9 10 -3.2563 2.6270
15 9 12 -2.2725 -1.5226
15 9 14 -0.4905 -3.8078
15 9 16 -3.3967 -4.4753
15 9 18 -0.2488 2.1491
15 9 20 -0.4284 -4.0969
15 9 22 4.9823 0.2565
15 9 24 -0.8350 1.0703
15 10 1 3.0362 -2.0078
15 10 3 1.3354 4.1295
15 10 5 1.8680 0.3615
15 10 7 3.3625 7.5271
15 10 9 2.9577 3.6961
15 10 11 -2.9451 0.1654
15 10 13 1.4949 -1.2304
15 10 15 0.0983 2.1257
15 10 17 4.5073 0.5519
15 10 19 -1.3908 1.0670
15 11 0 2.5210 0.1320
15 11 2 -0.6076 2.9476
15 11 4 -5.7929 2.9364
15 11 6 -2.2599 0.3313
15 11 8 1.6623 -5.1756
15 11 10 1.9975 -1.7796
15 11 12 -3.2516 -5.4532
16 1 1 0.9268 -1.8290
16 1 3 -0.7691 0.0155
16 1 5 0.6477 -0.2391
16 1 7 -0.1828 1.1351
16 1 9 -0.5790 -1.2714
16 1 11 0.2235 -2.2864
16 1 13 -1.3201 0.1903
16 1 15 3.0824 0.2699
16 1 17 1.9261 6.3879
16 1 19 1.9081 -1.6720
16 1 21 1.4495 -3.6365
16 1 23 -2.2424 -6.8612
16 1 25 -0.9021 0.8544
16 1 27 0.3808 1.1206
16 1 29 -3.2191 2.9917
16 1 31 -0.0054 5.0319
16 1 33 -0.6394 2.0607
16 2 0 0.4274 -0.1738
16 2 2 0.4796 2.3495
16 2 4 -1.1092 -4.7850
16 2 6 -0.2967 -1.0136
16 2 8 1.8661 0.1081
16 2 10 6.1295 -2.2684
16 2 12 1.6892 -1.0190
16 2 14 -3.6466 5.1772
16 2 16 -5.7212 -8.6611
16 2 18 1.6671 -1.5250
16 2 20 0.1780 0.2811
16 2 22 -2.1353 2.3195
16 2 24 -0.7950 2.4711
16 2 26 -0.8192 3.7367
16 2 28 1.6009 1.6812
16 2 30 -1.3811 -2.1106
16 2 32 6.4105 1.7197
16 3 1 4.5551 0.3466
16 3 3 -0.2986 0.2164
16 3 5 -2.8000 2.7895
16 3 7 1.6983 1.8833
16 3 9 5.6368 -0.8416
16 3 11 -1.9009 1.5951
16 3 13 3.2775 5.6108
16 3 15 2.4459 -3.1502
16 3 17 -0.0555 1.6282
16 3 19 -7.7436 0.9006
16 3 21 0.3445 0.8315
16 3 23 2.4226 -1.3431
16 3 25 -1.4124 -3.2808
16 3 27 -1.1515 0.4263
16 3 29 2.7510 1.0129
16 3 31 -3.7358 -0.8719
16 4 0 -5.8821 -0.1621
16 4 2 1.7018 -0.1527
16 4 4 -4.7149 1.6526
16 4 6 1.5120 -1.9213
16 4 8 -0.8543 -1.7290
16 4 10 0.3808 -5.2859
16 4 12 4.2203 5.0696
16 4 14 4.8425 3.1639
16 4 16 -0.4030 -0.7573
16 4 18 3.0603 5.0885
16 4 20 0.5998 -1.8047
16 4 22 1.8784 0.1973
16 4 24 -3.6691 -3.7519
16 4 26 -1.6975 0.6305
16 4 28 -2.4755 1.5538
16 4 30 0.1659 0.2209
16 5 1 -0.7928 0.6960
16 5 3 0.0647 -0.6145
16 5 5 -1.8414 -4.7787
16 5 7 1.8784 -2.5129
16 5 9 1.5193 1.1144
16 5 11 5.2520 -1.1973
16 5 13 2.1195 -0.9800
16 5 15 2.9719 -1.3580
16 5 17 0.5751 -1.3043
16 5 19 0.1503 -3.4515
16 5 21 0.1280 0.8895
16 5 23 -0.4337 -3.0272
16 5 25 0.1503 5.6203
16 5 27 -2.0789 -1.0128
16 5 29 -2.1729 -5.7107
16 6 0 5.5700 -0.1491
16 6 2 -0.2806 3.9185
16 6 4 -0.6336 2.7656
16 6 6 -0.7032 -1.3710
16 6 8 1.2937 1.0194
16 6 10 0.1133 -2.9067
16 6 12 -1.1195 1.8858
16 6 14 -1.6791 9.1379
16 6 16 3.3074 -4.9263
16 6 18 0.5154 -0.7044
16 6 20 -3.4118 -1.4032
16 6 22 2.7924 -1.7430
16 6 24 -6.8653 3.4974
16 6 26 0.6770 -3.6247
16 7 1 -3.5198 3.2107
16 7 3 1.5225 1.5054
16 7 5 -1.1507 -3.8421
16 7 7 10.6518 3.7772
16 7 9 -0.0266 -0.4079
16 7 11 1.7109 -1.8425
16 7 13 0.9397 1.4256
16 7 15 4.1272 0.9941
16 7 17 0.2802 -1.6083
16 7 19 0.8301 1.8973
16 7 21 0.8981 -2.2277
16 7 23 2.3811 -1.8329
16 7 25 -2.5280 0.4673
16 8 0 0.5548 -0.1438
16 8 2 0.5313 -0.2050
16 8 4 -0.8729 0.1433
16 8 6 -1.6982 2.1774
16 8 8 -0.7062 1.7394
16 8 10 -10.5909 4.5127
16 8 12 0.3408 2.2887
16 8 14 4.9269 -0.4563
16 8 16 -2.5907 -1.7255
16 8 18 2.4745 1.4967
16 8 20 -3.1570 -5.1649
16 9 1 -2.6436 1.8078
16 9 3 -0.1658 2.7753
16 9 5 1.5976 -3.1251
16 9 7 2.5448 -1.7580
16 9 9 1.5901 1.2303
16 9 11 4.4533 3.2603
16 9 13 -0.8899 -0.2757
16 9 15 -5.1025 -5.2936
16 10 0 -2.1808 -0.1391
16 10 2 -1.6484 1.2258
16 10 4 -1.9757 -0.4209
16 10 6 0.4351 1.4119
16 10 8 -0.0529 2.5662
17 1 0 -2.8150 0.1363
17 1 2 3.1678 1.2745
17 1 4 1.4918 -1.0695
17 1 6 0.4029 0.0936
17 1 8 -0.2785 -3.1913
17 1 10 0.6798 5.7028
17 1 12 -5.0997 -1.0132
17 1 14 -3.5148 5.9185
17 1 16 1.3500 1.2738
17 1 18 6.1798 -1.4980
17 1 20 4.9970 -0.4134
17 1 22 -4.4828 -2.1504
17 1 24 -0.0532 -0.7902
17 1 26 0.8702 -2.6946
17 2 1 -0.4845 -0.5806
17 2 3 -0.4294 -0.5815
17 2 5 2.4735 3.0886
17 2 7 0.9720 0.0813
17 2 9 -0.1384 -0.9040
17 2 11 1.0760 -1.0764
17 2 13 -1.9095 0.2776
17 2 15 0.1409 -0.3225
17 2 17 1.7325 -4.1964
17 2 19 -0.3087 1.3152
17 2 21 -2.7784 -6.0378
17 2 23 2.4901 -2.3907
17 2 25 -3.2550 2.7240
17 2 27 2.8313 0.7682
17 3 0 -6.0550 0.1235
17 3 2 -1.0646 0.7027
17 3 4 2.7386 -4.8942
17 3 6 1.7680 -1.1164
17 3 8 0.4093 1.8726
17 3 10 -0.8643 -4.7655
17 3 12 6.4592 0.9385
17 3 14 1.6313 1.4448
17 3 16 0.2827 -0.3403
17 3 18 5.1523 -1.8222
17 3 20 -0.1060 -0.1876
17 3 22 -1.5021 -2.9128
17 3 24 1.3404 -1.6902
17 3 26 -3.0040 3.0575
17 4 1 0.7063 0.8120
17 4 3 -0.9087 -0.4013
17 4 5 1.9906 -2.2424
17 4 7 -2.5447 -0.7810
17 4 9 0.0031 -0.2204
17 4 11 3.2679 4.1149
17 4 13 -0.9068 -3.2159
17 4 15 1.7010 0.7578
17 4 17 -0.6196 1.5302
17 4 19 1.5936 0.6335
17 4 21 -0.3952 -0.8640
17 4 23 -1.6528 -5.9906
17 4 25 -8.9234 2.1451
17 5 0 3.9337 0.1238
17 5 2 -0.8681 0.9011
17 5 4 -2.6104 -3.9875
17 5 6 0.6139 -0.5328
17 5 8 -3.7842 3.0947
17 5 10 0.8811 0.2551
17 5 12 0.3884 5.1702
17 5 14 2.7443 0.5811
17 5 16 1.4185 1.6550
17 5 18 -1.1481 0.2898
17 5 20 -2.3819 -0.6515
17 5 22 -2.6786 -0.5446
17 6 1 -0.3585 1.3831
17 6 3 -0.9007 -1.1238
17 6 5 0.5604 -1.7158
17 6 7 5.0502 0.5312
17 6 9 1.8108 2.9335
17 6 11 -0.2066 1.7205
17 6 13 0.4843 -0.7786
17 6 15 3.0525 0.2127
17 6 17 -1.2197 1.9449
17 6 19 -1.4799 1.1647
17 7 0 3.0106 0.1267
17 7 2 2.4423 -0.0628
17 7 4 -2.1286 2.8728
17 7 6 -4.0481 2.2146
17 7 8 -4.9264 5.5605
17 7 10 -1.0474 -2.9806
17 7 12 -2.2209 0.7866
17 7 14 1.4073 0.2330
17 7 16 1.9628 1.9981
17 8 1 1.6546 5.3403
17 8 3 1.0143 -1.4167
17 8 5 2.8419 -1.0357
17 8 7 2.0277 1.7925
17 8 9 -1.5734 -1.0461
17 8 11 0.6272 -3.3433
18 1 1 -0.2821 -0.0581
18 1 3 1.2800 -7.2600
18 1 5 1.7184 -0.7545
18 1 7 2.1448 -0.4099
18 1 9 -7.4831 3.8097
18 1 11 -0.8682 -1.7431
18 1 13 -1.3825 1.3604
18 1 15 5.7765 -0.9886
18 1 17 1.1955 0.5012
18 1 19 -0.7367 -1.0006
18 2 0 0.8022 -0.1177
18 2 2 3.4023 -5.6325
18 2 4 1.4606 -4.7555
18 2 6 2.2501 3.2840
18 2 8 4.1543 2.1411
18 2 10 -0.7982 0.2320
18 2 12 -4.2234 -3.0535
18 2 14 1.7976 3.2895
18 2 16 -0.2286 0.4436
18 2 18 -0.6513 -2.3837
18 3 1 -0.8399 1.1924
18 3 3 2.1122 -0.6309
18 3 5 1.1623 -0.5432
18 3 7 -0.5608 -1.1707
18 3 9 -0.4301 -0.3658
18 3 11 -0.4984 1.3784
18 3 13 0.7209 -0.2870
18 3 15 -1.1609 -0.5881
18 3 17 -3.0328 -0.2263
18 4 0 -5.2699 -0.1260
18 4 2 1.3977 1.5446
18 4 4 0.4897 2.2634
18 4 6 3.3506 1.2877
18 4 8 -3.6417 3.8086
18 4 10 -0.6941 -0.0728
18 4 12 -1.4942 0.7453
18 4 14 1.0311 -3.7466
18 4 16 -1.9033 7.3920
18 5 1 -1.0778 6.7300
18 5 3 -1.0636 0.7401
18 5 5 -1.9381 3.5428
18 5 7 -0.0436 -4.4383
18 5 9 -2.9546 1.5536
18 5 11 0.7955 1.0746
18 6 0 -0.2833 -0.1153
18 6 2 0.0042 -1.6717
18 6 4 0.3238 2.9198
18 6 6 2.6188 -0.5110
19 1 0 2.7589 0.0956
19 1 2 2.8419 -5.2065
19 1 4 2.2938 -1.6730
0 0 0 0.0 0.0
;
_shelx_fab_checksum              49571
_olex2_submission_special_instructions 'No special instructions were received'
loop_
_space_group_symop_operation_xyz
'x, y, z'
'-x, -y, z'
'-y, x, z'
'y, -x, z'
'x+1/2, y+1/2, z+1/2'
'-x+1/2, -y+1/2, z+1/2'
'-y+1/2, x+1/2, z+1/2'
'y+1/2, -x+1/2, z+1/2'
loop_
_atom_site_label
_atom_site_type_symbol
_atom_site_fract_x
_atom_site_fract_y
_atom_site_fract_z
_atom_site_U_iso_or_equiv
_atom_site_adp_type
_atom_site_occupancy
_atom_site_site_symmetry_order
_atom_site_calc_flag
_atom_site_refinement_flags_posn
_atom_site_refinement_flags_adp
_atom_site_refinement_flags_occupancy
Ni51 Ni 0.5000 1.0000 0.5709 0.1092(3) Uani 1 2 d S TU P
O88 O 0.7840(3) 0.8139(3) 0.70289(10) 0.224(3) Uani 1 1 d D U .
O98 O 0.7071(3) 0.6983(4) 0.43744(9) 0.271(4) Uani 1 1 d D U .
O99 O 0.8028(3) 0.7881(3) 0.43735(9) 0.256(3) Uani 1 1 d D U .
O89 O 0.6916(4) 0.7084(4) 0.70204(9) 0.248(3) Uani 1 1 d D U .
N71 N 0.5000 1.0000 0.53428(9) 0.148(3) Uani 1 2 d DS TU P
N1 N 0.7361(2) 0.8494(2) 0.89538(6) 0.1226(13) Uani 1 1 d . U .
H1A H 0.7604 0.8219 0.9059 0.147 Uiso 1 1 calc R U .
H1B H 0.7556 0.8928 0.8905 0.147 Uiso 1 1 calc R U .
N51 N 0.5000 1.0000 0.60324(7) 0.117(2) Uani 1 2 d DS TU P
N61 N 0.57857(19) 0.91955(18) 0.56935(7) 0.1628(17) Uani 1 1 d . U .
C62 C 0.6111(3) 0.8860(3) 0.58970(6) 0.177(3) Uani 1 1 d G U .
C63 C 0.6671(3) 0.8328(3) 0.58229(9) 0.237(5) Uani 1 1 d G U .
H63 H 0.6979 0.8022 0.5923 0.200 Uiso 1 1 calc R . .
C64 C 0.6692(3) 0.8335(3) 0.55736(9) 0.224(4) Uani 1 1 d G U .
H64 H 0.7015 0.8034 0.5477 0.200 Uiso 1 1 calc R . .
C65 C 0.6144(3) 0.8871(3) 0.54936(6) 0.174(3) Uani 1 1 d DG U .
N2 N 0.6488(2) 0.7608(2) 0.89564(6) 0.1248(13) Uani 1 1 d . U .
H2A H 0.6750 0.7351 0.9062 0.150 Uiso 1 1 calc R U .
H2B H 0.6051 0.7427 0.8904 0.150 Uiso 1 1 calc R U .
N11 N 0.6238(3) 1.2113(3) 0.73513(7) 0.1668(13) Uani 1 1 d D U .
H11A H 0.6295 1.2170 0.7199 0.200 Uiso 1 1 calc DR U .
H11B H 0.5901 1.2390 0.7427 0.200 Uiso 1 1 calc R U .
N12 N 0.7087(3) 1.1269(3) 0.73641(7) 0.1668(13) Uani 1 1 d D U .
H12A H 0.7164 1.1305 0.7212 0.200 Uiso 1 1 calc DR U .
H12B H 0.7354 1.0944 0.7448 0.200 Uiso 1 1 calc R U .
C5 C 0.56532(17) 0.84032(14) 0.86142(5) 0.1153(15) Uani 1 1 d . U .
H5 H 0.5487 0.7914 0.8664 0.138 Uiso 1 1 calc R U .
C4 C 0.62897(15) 0.87361(16) 0.87169(4) 0.0921(12) Uani 1 1 d G U .
C9 C 0.65324(14) 0.94514(17) 0.86437(5) 0.1210(16) Uani 1 1 d G U .
H9 H 0.6967 0.9679 0.8714 0.145 Uiso 1 1 calc R U .
C8 C 0.61387(16) 0.98337(14) 0.84677(5) 0.1142(15) Uani 1 1 d G U .
H8 H 0.6305 1.0323 0.8418 0.137 Uiso 1 1 calc R U .
C7 C 0.55023(14) 0.95008(14) 0.83649(4) 0.0753(10) Uani 1 1 d G U .
C6 C 0.52596(14) 0.87856(15) 0.84382(4) 0.1146(16) Uani 1 1 d G U .
H6 H 0.4825 0.8558 0.8368 0.138 Uiso 1 1 calc R U .
C87 C 0.7275(6) 0.7714(6) 0.69787(17) 0.233(5) Uani 1 1 d D U .
C85 C 0.6303(3) 0.7678(3) 0.66267(9) 0.223(4) Uani 1 1 d . U .
H85 H 0.6093 0.7226 0.6691 0.200 Uiso 1 1 calc R . .
C84 C 0.6910(3) 0.8038(3) 0.67378(7) 0.226(4) Uani 1 1 d DG U .
C83 C 0.7217(2) 0.8700(3) 0.66430(8) 0.209(4) Uani 1 1 d G U .
H83 H 0.7631 0.8945 0.6719 0.200 Uiso 1 1 calc R . .
C82 C 0.6917(3) 0.9002(2) 0.64371(8) 0.200(3) Uani 1 1 d G U .
H82 H 0.7127 0.9454 0.6372 0.200 Uiso 1 1 calc R . .
C81 C 0.6311(3) 0.8642(3) 0.63260(6) 0.187(3) Uani 1 1 d DG U .
C86 C 0.6004(3) 0.7980(3) 0.64208(8) 0.232(4) Uani 1 1 d G U .
H86 H 0.5589 0.7735 0.6345 0.200 Uiso 1 1 calc R . .
C3 C 0.6753(3) 0.8273(3) 0.88751(6) 0.1095(14) Uani 1 1 d . U .
C97 C 0.7444(6) 0.7567(6) 0.44655(16) 0.261(6) Uani 1 1 d D U .
C96 C 0.7125(3) 0.8920(2) 0.49978(8) 0.187(3) Uani 1 1 d . U .
H96 H 0.7353 0.9354 0.5068 0.200 Uiso 1 1 calc R . .
C91 C 0.6460(3) 0.8616(3) 0.50918(6) 0.176(3) Uani 1 1 d G U .
C92 C 0.6126(2) 0.7981(3) 0.49888(8) 0.201(3) Uani 1 1 d G U .
H92 H 0.5672 0.7773 0.5053 0.200 Uiso 1 1 calc R . .
C93 C 0.6456(3) 0.7650(2) 0.47917(8) 0.208(3) Uani 1 1 d G U .
H93 H 0.6227 0.7216 0.4721 0.200 Uiso 1 1 calc R . .
C94 C 0.7120(3) 0.7954(3) 0.46977(7) 0.196(3) Uani 1 1 d DG U .
C95 C 0.7455(2) 0.8589(3) 0.48007(8) 0.200(3) Uani 1 1 d G U .
H95 H 0.7909 0.8797 0.4736 0.200 Uiso 1 1 calc R . .
C10 C 0.5000 1.0000 0.81956(9) 0.0691(10) Uani 1 2 d S TU P
C13 C 0.6623(4) 1.1658(4) 0.74560(10) 0.1668(13) Uani 1 1 d . U .
C15 C 0.64816(16) 1.0513(2) 0.77394(6) 0.1247(17) Uani 1 1 d . U .
H15 H 0.6904 1.0279 0.7664 0.150 Uiso 1 1 calc R U .
C14 C 0.62597(19) 1.1244(2) 0.76747(6) 0.1324(18) Uani 1 1 d DG U .
C19 C 0.5641(2) 1.15873(16) 0.77844(6) 0.146(2) Uani 1 1 d G U .
H19 H 0.5490 1.2087 0.7740 0.175 Uiso 1 1 calc R U .
C18 C 0.52449(16) 1.12002(17) 0.79588(5) 0.1239(18) Uani 1 1 d G U .
H18 H 0.4822 1.1435 0.8034 0.149 Uiso 1 1 calc R U .
C17 C 0.54668(15) 1.04697(15) 0.80235(4) 0.0775(10) Uani 1 1 d G U .
C16 C 0.60851(17) 1.01263(14) 0.79138(5) 0.1244(17) Uani 1 1 d G U .
H16 H 0.6237 0.9627 0.7958 0.149 Uiso 1 1 calc R U .
C73 C 0.5313(4) 0.9755(4) 0.49631(8) 0.212(4) Uani 1 1 d D U .
H73 H 0.5578 0.9575 0.4828 0.200 Uiso 1 1 calc R . .
C52 C 0.5415(4) 0.9513(4) 0.61869(8) 0.198(4) Uani 1 1 d D U .
C53 C 0.5240(4) 0.9697(4) 0.64278(8) 0.170(3) Uani 1 1 d D U .
H53 H 0.5428 0.9441 0.6563 0.200 Uiso 1 1 calc R . .
C66 C 0.5983(4) 0.9076(4) 0.52844(9) 0.166(3) Uani 1 1 d D U .
C72 C 0.5485(4) 0.9573(4) 0.52013(8) 0.199(4) Uani 1 1 d D U .
C56 C 0.5960(4) 0.8902(4) 0.61142(10) 0.189(3) Uani 1 1 d D U .
loop_
_atom_site_aniso_label
_atom_site_aniso_U_11
_atom_site_aniso_U_22
_atom_site_aniso_U_33
_atom_site_aniso_U_23
_atom_site_aniso_U_13
_atom_site_aniso_U_12
Ni51 0.1451(6) 0.1411(6) 0.0414(3) 0.000 0.000 0.0413(5)
O88 0.235(6) 0.212(6) 0.226(5) 0.111(4) -0.077(5) 0.039(5)
O98 0.270(6) 0.314(7) 0.230(5) -0.182(5) 0.183(5) -0.078(5)
O99 0.260(6) 0.289(6) 0.219(5) -0.197(5) 0.139(4) -0.059(5)
O89 0.269(7) 0.269(7) 0.206(5) 0.094(5) -0.128(5) -0.017(6)
N71 0.190(6) 0.203(6) 0.052(3) 0.000 0.000 0.086(5)
N1 0.148(3) 0.149(3) 0.0706(19) 0.040(2) -0.047(2) -0.021(3)
N51 0.161(5) 0.160(5) 0.029(2) 0.000 0.000 0.081(4)
N61 0.215(4) 0.177(3) 0.096(2) -0.007(3) -0.005(3) 0.127(3)
C62 0.246(7) 0.199(6) 0.087(4) -0.006(4) -0.039(4) 0.109(6)
C63 0.306(10) 0.294(10) 0.110(5) 0.019(6) -0.016(6) 0.194(9)
C64 0.288(9) 0.254(9) 0.132(6) 0.015(6) 0.005(6) 0.181(8)
C65 0.204(6) 0.203(6) 0.116(4) 0.005(4) -0.021(4) 0.118(5)
N2 0.138(3) 0.141(3) 0.095(2) 0.054(2) -0.050(2) -0.011(3)
N11 0.190(3) 0.194(3) 0.116(2) 0.085(2) 0.0651(19) 0.051(2)
N12 0.190(3) 0.194(3) 0.116(2) 0.085(2) 0.0651(19) 0.051(2)
C5 0.145(4) 0.132(4) 0.069(2) 0.042(2) -0.043(3) -0.024(3)
C4 0.107(3) 0.130(4) 0.0395(17) 0.019(2) -0.0088(19) -0.003(2)
C9 0.119(4) 0.151(4) 0.092(3) 0.046(3) -0.042(3) -0.029(3)
C8 0.104(3) 0.142(4) 0.097(3) 0.051(3) -0.033(3) -0.026(3)
C7 0.083(3) 0.100(3) 0.0432(17) -0.0033(18) -0.0008(17) 0.012(2)
C6 0.127(4) 0.127(4) 0.090(3) 0.057(3) -0.043(2) -0.026(3)
C87 0.244(12) 0.230(12) 0.225(9) 0.086(8) -0.072(8) 0.098(10)
C85 0.238(8) 0.288(10) 0.143(6) 0.095(6) -0.056(5) 0.034(8)
C84 0.253(10) 0.268(10) 0.156(7) 0.053(6) -0.055(6) 0.078(8)
C83 0.217(8) 0.251(9) 0.159(6) 0.067(6) -0.069(5) 0.046(7)
C82 0.245(8) 0.226(8) 0.127(5) 0.032(5) -0.044(5) 0.092(6)
C81 0.236(8) 0.220(8) 0.105(4) 0.026(5) -0.037(5) 0.132(6)
C86 0.286(10) 0.267(10) 0.144(6) 0.060(6) -0.076(6) 0.079(8)
C3 0.131(4) 0.143(4) 0.055(2) 0.022(2) -0.034(2) -0.001(3)
C97 0.257(10) 0.306(12) 0.221(9) -0.162(9) 0.118(8) -0.065(9)
C96 0.227(7) 0.195(6) 0.138(5) -0.064(5) 0.033(5) 0.073(6)
C91 0.203(7) 0.247(8) 0.077(3) -0.017(4) -0.005(4) 0.101(6)
C92 0.212(7) 0.254(9) 0.138(5) -0.058(5) 0.042(5) 0.078(6)
C93 0.200(7) 0.269(9) 0.155(6) -0.089(6) 0.066(5) -0.018(6)
C94 0.216(7) 0.230(8) 0.143(5) -0.079(5) 0.059(5) 0.026(6)
C95 0.210(7) 0.216(7) 0.175(6) -0.092(5) 0.072(5) 0.008(6)
C10 0.084(4) 0.079(4) 0.0445(18) 0.000 0.000 0.007(3)
C13 0.190(3) 0.194(3) 0.116(2) 0.085(2) 0.0651(19) 0.051(2)
C15 0.119(4) 0.145(4) 0.110(3) 0.054(3) 0.035(3) 0.016(3)
C14 0.144(5) 0.142(5) 0.112(3) 0.058(3) 0.046(3) -0.003(3)
C19 0.152(5) 0.156(5) 0.130(4) 0.091(4) 0.046(3) 0.034(4)
C18 0.145(4) 0.137(4) 0.090(3) 0.059(3) 0.049(3) 0.038(3)
C17 0.084(3) 0.101(3) 0.0476(17) 0.0035(18) -0.0160(18) 0.004(2)
C16 0.133(4) 0.152(4) 0.088(3) 0.047(3) 0.044(3) 0.031(3)
C73 0.320(11) 0.276(10) 0.041(3) -0.021(4) -0.006(4) 0.113(7)
C52 0.274(8) 0.269(8) 0.051(3) 0.034(4) -0.010(3) 0.144(7)
C53 0.204(8) 0.255(10) 0.052(3) 0.013(3) -0.029(3) 0.022(5)
C66 0.208(6) 0.216(6) 0.074(3) -0.009(4) -0.007(3) 0.103(5)
C72 0.264(8) 0.288(8) 0.044(3) 0.003(4) -0.001(3) 0.150(8)
C56 0.235(7) 0.241(7) 0.090(4) 0.016(4) -0.016(4) 0.117(6)
loop_
_atom_type_symbol
_atom_type_description
_atom_type_scat_dispersion_real
_atom_type_scat_dispersion_imag
_atom_type_scat_source
C C 0.0033 0.0016 'International Tables Vol C Tables 4.2.6.8 and 6.1.1.4'
H H 0.0000 0.0000 'International Tables Vol C Tables 4.2.6.8 and 6.1.1.4'
N N 0.0061 0.0033 'International Tables Vol C Tables 4.2.6.8 and 6.1.1.4'
Ni Ni 0.3393 1.1124 'International Tables Vol C Tables 4.2.6.8 and 6.1.1.4'
O O 0.0106 0.0060 'International Tables Vol C Tables 4.2.6.8 and 6.1.1.4'
loop_
_geom_angle_atom_site_label_1
_geom_angle_atom_site_label_2
_geom_angle_atom_site_label_3
_geom_angle
_geom_angle_site_symmetry_1
_geom_angle_site_symmetry_3
N51 Ni51 N71 180.0 . .
N51 Ni51 N61 92.54(12) . .
N51 Ni51 N61 92.54(12) . 2_675
N61 Ni51 N71 87.46(12) 2_675 .
N61 Ni51 N71 87.46(12) . .
N61 Ni51 N61 174.9(2) 2_675 .
C72 N71 Ni51 125.4(3) 2_675 .
C72 N71 Ni51 125.4(3) . .
C72 N71 C72 109.2(6) 2_675 .
H1A N1 H1B 120.0 . .
C3 N1 H1A 120.0 . .
C3 N1 H1B 120.0 . .
C52 N51 Ni51 128.0(3) . .
C52 N51 Ni51 128.0(3) 2_675 .
C52 N51 C52 103.9(5) 2_675 .
C62 N61 Ni51 122.8(3) . .
C65 N61 Ni51 129.2(3) . .
C65 N61 C62 108.0 . .
N61 C62 C63 108.0 . .
C56 C62 N61 133.5(4) . .
C56 C62 C63 118.2(4) . .
C62 C63 H63 126.0 . .
C64 C63 C62 108.0 . .
C64 C63 H63 126.0 . .
C63 C64 H64 126.0 . .
C63 C64 C65 108.0 . .
C65 C64 H64 126.0 . .
N61 C65 C64 108.0 . .
C66 C65 N61 122.4(4) . .
C66 C65 C64 129.5(4) . .
H2A N2 H2B 120.0 . .
C3 N2 H2A 120.0 . .
C3 N2 H2B 120.0 . .
H11A N11 H11B 120.0 . .
C13 N11 H11A 120.0 . .
C13 N11 H11B 120.0 . .
H12A N12 H12B 120.0 . .
C13 N12 H12A 120.0 . .
C13 N12 H12B 120.0 . .
C4 C5 H5 120.0 . .
C4 C5 C6 120.0 . .
C6 C5 H5 120.0 . .
C5 C4 C3 118.2(3) . .
C9 C4 C5 120.0 . .
C9 C4 C3 121.2(3) . .
C4 C9 H9 120.0 . .
C4 C9 C8 120.0 . .
C8 C9 H9 120.0 . .
C9 C8 H8 120.0 . .
C7 C8 C9 120.0 . .
C7 C8 H8 120.0 . .
C8 C7 C6 120.0 . .
C8 C7 C10 118.31(16) . .
C6 C7 C10 121.01(16) . .
C5 C6 H6 120.0 . .
C7 C6 C5 120.0 . .
C7 C6 H6 120.0 . .
O88 C87 O89 147.0(9) . .
O88 C87 C84 107.1(8) . .
O89 C87 C84 105.2(8) . .
C84 C85 H85 120.0 . .
C84 C85 C86 120.0 . .
C86 C85 H85 120.0 . .
C85 C84 C87 122.0(6) . .
C83 C84 C87 117.9(6) . .
C83 C84 C85 120.0 . .
C84 C83 H83 120.0 . .
C84 C83 C82 120.0 . .
C82 C83 H83 120.0 . .
C83 C82 H82 120.0 . .
C81 C82 C83 120.0 . .
C81 C82 H82 120.0 . .
C82 C81 C86 120.0 . .
C82 C81 C56 124.7(5) . .
C86 C81 C56 115.3(5) . .
C85 C86 H86 120.0 . .
C81 C86 C85 120.0 . .
C81 C86 H86 120.0 . .
N1 C3 N2 117.0(4) . .
N1 C3 C4 122.4(5) . .
N2 C3 C4 120.4(5) . .
O98 C97 C94 118.7(8) . .
O99 C97 O98 124.8(7) . .
O99 C97 C94 116.3(7) . .
C91 C96 H96 120.0 . .
C91 C96 C95 120.0 . .
C95 C96 H96 120.0 . .
C96 C91 C66 120.7(4) . .
C92 C91 C96 120.0 . .
C92 C91 C66 118.2(4) . .
C91 C92 H92 120.0 . .
C91 C92 C93 120.0 . .
C93 C92 H92 120.0 . .
C92 C93 H93 120.0 . .
C94 C93 C92 120.0 . .
C94 C93 H93 120.0 . .
C93 C94 C97 117.1(5) . .
C93 C94 C95 120.0 . .
C95 C94 C97 122.8(5) . .
C96 C95 H95 120.0 . .
C94 C95 C96 120.0 . .
C94 C95 H95 120.0 . .
C7 C10 C7 104.4(4) . 2_675
C17 C10 C7 113.26(15) . .
C17 C10 C7 113.3(3) 2_675 .
C17 C10 C7 113.3(3) 2_675 2_675
C17 C10 C7 113.3(2) . 2_675
C17 C10 C17 99.7(5) 2_675 .
N11 C13 C14 118.1(5) . .
N12 C13 N11 123.3(5) . .
N12 C13 C14 111.2(5) . .
C14 C15 H15 120.0 . .
C14 C15 C16 120.0 . .
C16 C15 H15 120.0 . .
C15 C14 C13 121.4(3) . .
C15 C14 C19 120.0 . .
C19 C14 C13 118.1(3) . .
C14 C19 H19 120.0 . .
C18 C19 C14 120.0 . .
C18 C19 H19 120.0 . .
C19 C18 H18 120.0 . .
C19 C18 C17 120.0 . .
C17 C18 H18 120.0 . .
C18 C17 C10 121.34(18) . .
C16 C17 C10 118.38(18) . .
C16 C17 C18 120.0 . .
C15 C16 H16 120.0 . .
C17 C16 C15 120.0 . .
C17 C16 H16 120.0 . .
C73 C73 H73 126.1 2_675 .
C73 C73 C72 107.7(3) 2_675 .
C72 C73 H73 126.1 . .
N51 C52 C53 110.0(5) . .
N51 C52 C56 125.9(4) . .
C53 C52 C56 124.1(4) . .
C52 C53 H53 126.0 . .
C53 C53 C52 108.0(3) 2_675 .
C53 C53 H53 126.0 2_675 .
C65 C66 C91 112.4(5) . .
C65 C66 C72 131.8(5) . .
C72 C66 C91 115.7(4) . .
N71 C72 C73 107.5(5) . .
C66 C72 N71 123.6(4) . .
C66 C72 C73 128.9(5) . .
C62 C56 C81 135.7(6) . .
C62 C56 C52 116.4(5) . .
C81 C56 C52 105.7(5) . .
loop_
_geom_bond_atom_site_label_1
_geom_bond_atom_site_label_2
_geom_bond_distance
_geom_bond_site_symmetry_2
Ni51 N71 2.084(5) .
Ni51 N51 1.842(4) .
Ni51 N61 1.976(2) 2_675
Ni51 N61 1.976(2) .
O88 C87 1.272(11) .
O98 C97 1.323(9) .
O99 C97 1.276(9) .
O89 C87 1.296(11) .
N71 C72 1.391(6) .
N71 C72 1.391(6) 2_675
N1 H1A 0.8800 .
N1 H1B 0.8800 .
N1 C3 1.222(5) .
N51 C52 1.427(5) .
N51 C52 1.427(5) 2_675
N61 C62 1.4200 .
N61 C65 1.4200 .
C62 C63 1.4200 .
C62 C56 1.267(6) .
C63 H63 0.9500 .
C63 C64 1.4200 .
C64 H64 0.9500 .
C64 C65 1.4200 .
C65 C66 1.276(6) .
N2 H2A 0.8800 .
N2 H2B 0.8800 .
N2 C3 1.340(5) .
N11 H11A 0.8800 .
N11 H11B 0.8800 .
N11 C13 1.204(6) .
N12 H12A 0.8800 .
N12 H12B 0.8800 .
N12 C13 1.184(6) .
C5 H5 0.9500 .
C5 C4 1.3900 .
C5 C6 1.3900 .
C4 C9 1.3900 .
C4 C3 1.460(5) .
C9 H9 0.9500 .
C9 C8 1.3900 .
C8 H8 0.9500 .
C8 C7 1.3900 .
C7 C6 1.3900 .
C7 C10 1.573(4) .
C6 H6 0.9500 .
C87 C84 1.617(9) .
C85 H85 0.9500 .
C85 C84 1.3900 .
C85 C86 1.3900 .
C84 C83 1.3900 .
C83 H83 0.9500 .
C83 C82 1.3900 .
C82 H82 0.9500 .
C82 C81 1.3900 .
C81 C86 1.3900 .
C81 C56 1.428(6) .
C86 H86 0.9500 .
C97 C94 1.591(8) .
C96 H96 0.9500 .
C96 C91 1.3900 .
C96 C95 1.3900 .
C91 C92 1.3900 .
C91 C66 1.599(6) .
C92 H92 0.9500 .
C92 C93 1.3900 .
C93 H93 0.9500 .
C93 C94 1.3900 .
C94 C95 1.3900 .
C95 H95 0.9500 .
C10 C7 1.573(4) 2_675
C10 C17 1.520(5) 2_675
C10 C17 1.521(4) .
C13 C14 1.576(5) .
C15 H15 0.9500 .
C15 C14 1.3900 .
C15 C16 1.3900 .
C14 C19 1.3900 .
C19 H19 0.9500 .
C19 C18 1.3900 .
C18 H18 0.9500 .
C18 C17 1.3900 .
C17 C16 1.3900 .
C16 H16 0.9500 .
C73 C73 1.396(9) 2_675
C73 H73 0.9500 .
C73 C72 1.425(6) .
C52 C53 1.442(6) .
C52 C56 1.495(7) .
C53 C53 1.356(9) 2_675
C53 H53 0.9500 .
C66 C72 1.323(7) .
loop_
_twin_individual_id
_twin_individual_mass_fraction_refined
1 0.530(18)
2 0.470(18)
