#------------------------------------------------------------------------------
#$Date: 2018-09-20 02:05:04 +0300 (Thu, 20 Sep 2018) $
#$Revision: 211069 $
#$URL: file:///home/coder/svn-repositories/cod/cif/7/04/75/7047592.cif $
#------------------------------------------------------------------------------
#
# This file is available in the Crystallography Open Database (COD),
# http://www.crystallography.net/
#
# All data on this site have been placed in the public domain by the
# contributors.
#
data_7047592
loop_
_publ_author_name
'Tung, Jo-Yu'
'Chen, Yi-Chun'
'Liu, Ta-Kang'
'Tsai, Wei-Joe'
'Lin, Hsiang-Yin'
'Chen, Jyh-Horung'
'Chang, Yu-Chang'
_publ_section_title
;
 The \h1-H--C&#x2026;Hg agostic interactions in mercury complexes of
 N-confused porphyrin
;
_journal_name_full               'Dalton Transactions'
_journal_paper_doi               10.1039/C8DT02895H
_journal_year                    2018
_chemical_formula_moiety         'C48 H35 Hg I N4 O2'
_chemical_formula_sum            'C48 H35 Hg I N4 O2'
_chemical_formula_weight         1027.29
_space_group_crystal_system      triclinic
_space_group_IT_number           2
_space_group_name_Hall           '-P 1'
_space_group_name_H-M_alt        'P -1'
_symmetry_space_group_name_Hall  '-P 1'
_symmetry_space_group_name_H-M   'P -1'
_atom_sites_solution_hydrogens   mixed
_audit_creation_method           SHELXL-2014/7
_audit_update_record
;
2018-06-05 deposited with the CCDC.
2018-09-19 downloaded from the CCDC.
;
_cell_angle_alpha                101.8626(18)
_cell_angle_beta                 114.2647(17)
_cell_angle_gamma                105.5241(16)
_cell_formula_units_Z            2
_cell_length_a                   13.8172(7)
_cell_length_b                   14.1312(7)
_cell_length_c                   14.8978(8)
_cell_measurement_reflns_used    9767
_cell_measurement_temperature    150(2)
_cell_measurement_theta_max      26.435
_cell_measurement_theta_min      3.027
_cell_volume                     2384.6(2)
_computing_cell_refinement       'SAINT V7.34A (Bruker AXS, 2006)'
_computing_data_collection       'APEX2 (Bruker AXS, 2010)'
_computing_data_reduction        'SAINT V7.34A (Bruker AXS, 2006)'
_computing_structure_refinement  'SHELXL-2014/7 (Sheldrick, 2014)'
_computing_structure_solution    'SHELXL-2014/7 (Sheldrick, 2014)'
_diffrn_ambient_temperature      150(2)
_diffrn_measured_fraction_theta_full 0.997
_diffrn_measured_fraction_theta_max 0.991
_diffrn_measurement_device_type  'Bruker APEX-II CCD'
_diffrn_measurement_method       '\f and \w scans'
_diffrn_radiation_probe          x-ray
_diffrn_radiation_type           MoK\a
_diffrn_radiation_wavelength     0.71073
_diffrn_reflns_av_R_equivalents  0.0341
_diffrn_reflns_av_unetI/netI     0.0299
_diffrn_reflns_Laue_measured_fraction_full 0.997
_diffrn_reflns_Laue_measured_fraction_max 0.991
_diffrn_reflns_limit_h_max       17
_diffrn_reflns_limit_h_min       -17
_diffrn_reflns_limit_k_max       17
_diffrn_reflns_limit_k_min       -17
_diffrn_reflns_limit_l_max       18
_diffrn_reflns_limit_l_min       -18
_diffrn_reflns_number            39556
_diffrn_reflns_point_group_measured_fraction_full 0.997
_diffrn_reflns_point_group_measured_fraction_max 0.991
_diffrn_reflns_theta_full        25.242
_diffrn_reflns_theta_max         26.473
_diffrn_reflns_theta_min         2.911
_exptl_absorpt_coefficient_mu    3.912
_exptl_absorpt_correction_T_max  0.9281
_exptl_absorpt_correction_T_min  0.6212
_exptl_absorpt_correction_type   multi-scan
_exptl_absorpt_process_details   'SADABS V2012/1 (Bruker AXS Inc.)'
_exptl_crystal_colour            blue
_exptl_crystal_density_diffrn    1.431
_exptl_crystal_description       parallelepiped
_exptl_crystal_F_000             1000
_exptl_crystal_size_max          0.520
_exptl_crystal_size_mid          0.480
_exptl_crystal_size_min          0.320
_refine_diff_density_max         3.386
_refine_diff_density_min         -1.846
_refine_diff_density_rms         0.142
_refine_ls_extinction_method     none
_refine_ls_goodness_of_fit_ref   1.038
_refine_ls_hydrogen_treatment    mixed
_refine_ls_matrix_type           full
_refine_ls_number_parameters     516
_refine_ls_number_reflns         9775
_refine_ls_number_restraints     1
_refine_ls_restrained_S_all      1.038
_refine_ls_R_factor_all          0.0427
_refine_ls_R_factor_gt           0.0374
_refine_ls_shift/su_max          0.002
_refine_ls_shift/su_mean         0.000
_refine_ls_structure_factor_coef Fsqd
_refine_ls_weighting_details
'w=1/[\s^2^(Fo^2^)+(0.0478P)^2^+12.2598P] where P=(Fo^2^+2Fc^2^)/3'
_refine_ls_weighting_scheme      calc
_refine_ls_wR_factor_gt          0.0955
_refine_ls_wR_factor_ref         0.0988
_reflns_Friedel_coverage         0.000
_reflns_number_gt                8883
_reflns_number_total             9775
_reflns_threshold_expression     'I > 2\s(I)'
_cod_data_source_file            c8dt02895h2.cif
_cod_data_source_block           1060210hgi2_sq
_cod_database_code               7047592
_shelx_shelxl_version_number     2014/7
_shelx_space_group_comment
;
The symmetry employed for this shelxl refinement is uniquely defined
by the following loop, which should always be used as a source of
symmetry information in preference to the above space-group names.
They are only intended as comments.
;
_shelx_estimated_absorpt_t_min   0.235
_shelx_estimated_absorpt_t_max   0.367
_shelx_res_file
;

    1060210hgi2_sq.res created by SHELXL-2014/7


TITL 1060210hgi2 in P-1
CELL 0.71073  13.81720  14.13120  14.89780 101.8626 114.2647 105.5241
ZERR    2.00   0.00070   0.00070   0.00080   0.0018   0.0017   0.0016
LATT 1
SFAC C  H  N  O  I  Hg
UNIT 96  70  8  4  2  2
ACTA
L.S. 10
BOND $H
FMAP 2
PLAN 10
EADP C47 C47'
EADP C48 C48'
DELU 0.002 N4 C45
SIZE 0.32 0.48 0.52
TEMP -123.150
ABIN
WGHT    0.047800   12.259800
FVAR       0.10088   0.72856
HG    6    0.237167    0.310463    0.432890    11.00000    0.02095    0.01931 =
         0.01636    0.00820    0.00597    0.00935
I     5    0.025296    0.266909    0.282482    11.00000    0.02001    0.06880 =
         0.04202    0.03202    0.00258    0.00970
O1    4    0.072025    0.109860   -0.114125    11.00000    0.05759    0.07945 =
         0.04691    0.00792    0.01709    0.00906
O2    4    0.243554    0.252757   -0.021265    11.00000    0.05213    0.07258 =
         0.06091    0.02260    0.02656    0.01263
N1    3    0.320548    0.185586    0.427662    11.00000    0.02552    0.01756 =
         0.01326    0.00658    0.00845    0.01112
N2    3    0.330178    0.334588    0.604066    11.00000    0.02264    0.01631 =
         0.01289    0.00434    0.00688    0.00908
N3    3    0.339864    0.495753    0.504164    11.00000    0.02191    0.01384 =
         0.01473    0.00469    0.00860    0.00662
N4    3    0.230114    0.270728    0.161583    11.00000    0.03514    0.02325 =
         0.02308    0.01191    0.01176    0.01169
C1    1    0.324871    0.130315    0.342861    11.00000    0.02710    0.01627 =
         0.01897    0.00642    0.01089    0.00825
C2    1    0.346892    0.038977    0.359703    11.00000    0.03193    0.01931 =
         0.02078    0.00787    0.01194    0.01355
AFIX  43
H2A   2    0.355878   -0.011444    0.314090    11.00000   -1.20000
AFIX   0
C3    1    0.352256    0.038876    0.452203    11.00000    0.02967    0.02083 =
         0.02379    0.01392    0.01422    0.01269
AFIX  43
H3A   2    0.365155   -0.011795    0.483707    11.00000   -1.20000
AFIX   0
C4    1    0.334552    0.130991    0.494428    11.00000    0.02053    0.01542 =
         0.01844    0.00800    0.00730    0.00659
C5    1    0.330489    0.158206    0.589860    11.00000    0.02018    0.01552 =
         0.01567    0.00687    0.00851    0.00645
C6    1    0.328925    0.252300    0.639367    11.00000    0.01891    0.02084 =
         0.01468    0.00859    0.00648    0.00925
C7    1    0.336607    0.282566    0.741913    11.00000    0.02687    0.02382 =
         0.02015    0.01265    0.01290    0.01346
AFIX  43
H7A   2    0.336113    0.239798    0.783416    11.00000   -1.20000
AFIX   0
C8    1    0.344556    0.382343    0.767399    11.00000    0.02834    0.02793 =
         0.01861    0.01040    0.01446    0.01552
AFIX  43
H8A   2    0.351099    0.423092    0.830469    11.00000   -1.20000
AFIX   0
C9    1    0.341328    0.416725    0.680810    11.00000    0.01913    0.02207 =
         0.01783    0.00701    0.01016    0.01047
C10   1    0.354107    0.516919    0.679082    11.00000    0.02087    0.02236 =
         0.01822    0.00742    0.01070    0.01165
C11   1    0.358214    0.555009    0.598046    11.00000    0.01820    0.01679 =
         0.01388    0.00283    0.00634    0.00897
C12   1    0.387067    0.664809    0.606719    11.00000    0.02360    0.01585 =
         0.01943    0.00309    0.01061    0.00780
AFIX  43
H12A  2    0.404913    0.722203    0.665143    11.00000   -1.20000
AFIX   0
C13   1    0.383565    0.669266    0.515920    11.00000    0.02609    0.01595 =
         0.02435    0.00914    0.01259    0.01062
AFIX  43
H13A  2    0.398622    0.730631    0.498527    11.00000   -1.20000
AFIX   0
C14   1    0.352686    0.563509    0.449848    11.00000    0.02034    0.01899 =
         0.02027    0.00842    0.01152    0.01071
C15   1    0.335229    0.531208    0.347566    11.00000    0.02235    0.01729 =
         0.01757    0.00812    0.01106    0.01063
C16   1    0.316856    0.425765    0.293599    11.00000    0.01937    0.01989 =
         0.01694    0.01024    0.01126    0.00914
C17   1    0.358012    0.355410    0.334345    11.00000    0.01917    0.01886 =
         0.01196    0.00415    0.00684    0.00991
H17A  2    0.418254    0.375838    0.401921    11.00000    0.00846
C18   1    0.303252    0.257034    0.252260    11.00000    0.02574    0.01834 =
         0.01510    0.00666    0.00930    0.00873
C19   1    0.238649    0.369399    0.185156    11.00000    0.01872    0.01389 =
         0.01432    0.00770    0.00595    0.00755
AFIX  43
H19A  2    0.198320    0.397720    0.136516    11.00000   -1.20000
AFIX   0
C20   1    0.308041    0.157132    0.254623    11.00000    0.02582    0.01711 =
         0.01597    0.00475    0.00872    0.00841
C21   1    0.334942    0.080221    0.644921    11.00000    0.03222    0.01823 =
         0.02029    0.01018    0.01457    0.01395
C22   1    0.436160    0.064654    0.694856    11.00000    0.04389    0.05387 =
         0.04892    0.03856    0.03062    0.03211
AFIX  43
H22A  2    0.502439    0.101727    0.691797    11.00000   -1.20000
AFIX   0
C23   1    0.441385   -0.004506    0.749146    11.00000    0.06871    0.07730 =
         0.06214    0.05526    0.04193    0.05919
AFIX  43
H23A  2    0.512109   -0.011890    0.785607    11.00000   -1.20000
AFIX   0
C24   1    0.346227   -0.061579    0.750477    11.00000    0.09356    0.04605 =
         0.05809    0.04425    0.05412    0.04592
AFIX  43
H24A  2    0.349668   -0.110732    0.785461    11.00000   -1.20000
AFIX   0
C25   1    0.243927   -0.048177    0.700775    11.00000    0.06944    0.05442 =
         0.07563    0.04411    0.05217    0.02551
AFIX  43
H25A  2    0.177911   -0.086940    0.703285    11.00000   -1.20000
AFIX   0
C26   1    0.237579    0.022177    0.646978    11.00000    0.03622    0.05039 =
         0.05666    0.03357    0.03142    0.01789
AFIX  43
H26A  2    0.167036    0.030333    0.611942    11.00000   -1.20000
AFIX   0
C27   1    0.369964    0.595899    0.773739    11.00000    0.02756    0.01851 =
         0.01838    0.00861    0.01491    0.01053
C28   1    0.467588    0.630769    0.871433    11.00000    0.03532    0.02908 =
         0.01910    0.00878    0.01267    0.01462
AFIX  43
H28A  2    0.526141    0.604808    0.879059    11.00000   -1.20000
AFIX   0
C29   1    0.480590    0.703825    0.958830    11.00000    0.05601    0.03157 =
         0.01659    0.00615    0.01495    0.00629
AFIX  43
H29A  2    0.547275    0.726513    1.025832    11.00000   -1.20000
AFIX   0
C30   1    0.397164    0.742960    0.948138    11.00000    0.07072    0.01749 =
         0.03981    0.00829    0.04444    0.01405
AFIX  43
H30A  2    0.406903    0.793560    1.007516    11.00000   -1.20000
AFIX   0
C31   1    0.299723    0.709131    0.851842    11.00000    0.05436    0.02226 =
         0.04445    0.00875    0.03644    0.01986
AFIX  43
H31A  2    0.241652    0.735528    0.845121    11.00000   -1.20000
AFIX   0
C32   1    0.285681    0.636655    0.764397    11.00000    0.03891    0.02120 =
         0.03229    0.00983    0.02228    0.01572
AFIX  43
H32A  2    0.218611    0.614480    0.697794    11.00000   -1.20000
AFIX   0
C33   1    0.326191    0.601927    0.287364    11.00000    0.02578    0.01973 =
         0.02065    0.01022    0.01333    0.00886
C34   1    0.263184    0.664154    0.286318    11.00000    0.03291    0.03135 =
         0.03364    0.01785    0.01767    0.01845
AFIX  43
H34A  2    0.228375    0.665630    0.329609    11.00000   -1.20000
AFIX   0
C35   1    0.250696    0.724726    0.221794    11.00000    0.04863    0.04162 =
         0.06102    0.03549    0.02584    0.03205
AFIX  43
H35A  2    0.207750    0.767143    0.221983    11.00000   -1.20000
AFIX   0
C36   1    0.300035    0.723276    0.158275    11.00000    0.05042    0.04993 =
         0.05559    0.04436    0.02658    0.02660
AFIX  43
H36A  2    0.290650    0.764094    0.114383    11.00000   -1.20000
AFIX   0
C37   1    0.363300    0.662300    0.158451    11.00000    0.04871    0.04835 =
         0.03975    0.03204    0.02620    0.01956
AFIX  43
H37A  2    0.397458    0.661336    0.114617    11.00000   -1.20000
AFIX   0
C38   1    0.377196    0.602431    0.222374    11.00000    0.02737    0.02711 =
         0.02665    0.01330    0.01391    0.01204
AFIX  43
H38A  2    0.421514    0.561333    0.222404    11.00000   -1.20000
AFIX   0
C39   1    0.292073    0.081701    0.159480    11.00000    0.02796    0.01779 =
         0.01567    0.00496    0.00644    0.01263
C40   1    0.352614    0.115778    0.108477    11.00000    0.03515    0.01855 =
         0.01836    0.00671    0.01073    0.01341
AFIX  43
H40A  2    0.405315    0.186994    0.136483    11.00000   -1.20000
AFIX   0
C41   1    0.336673    0.047374    0.018347    11.00000    0.04346    0.03561 =
         0.02064    0.01311    0.01710    0.02348
AFIX  43
H41A  2    0.379012    0.071018   -0.014973    11.00000   -1.20000
AFIX   0
C42   1    0.257602   -0.057410   -0.024043    11.00000    0.04786    0.02689 =
         0.01921   -0.00150    0.00935    0.02196
AFIX  43
H42A  2    0.245883   -0.104610   -0.086611    11.00000   -1.20000
AFIX   0
C43   1    0.196968   -0.092135    0.024539    11.00000    0.04177    0.01675 =
         0.02703    0.00282    0.01064    0.01310
AFIX  43
H43A  2    0.143532   -0.163193   -0.004545    11.00000   -1.20000
AFIX   0
C44   1    0.213706   -0.023414    0.116222    11.00000    0.03648    0.01638 =
         0.02181    0.00266    0.01276    0.00897
AFIX  43
H44A  2    0.171838   -0.047839    0.149655    11.00000   -1.20000
AFIX   0
C45   1    0.133567    0.191776    0.063217    11.00000    0.04548    0.05099 =
         0.03379    0.00741    0.01006    0.01337
AFIX  23
H45A  2    0.063723    0.206985    0.047995    11.00000   -1.20000
H45B  2    0.118097    0.121769    0.069986    11.00000   -1.20000
AFIX   0
C46   1    0.157672    0.189754   -0.026187    11.00000    0.04125    0.05014 =
         0.04239    0.01067    0.01197    0.01009
PART   1
C47   1    0.081902    0.098902   -0.208429    21.00000    0.06936    0.04691 =
         0.04554   -0.00429    0.04663    0.00680
AFIX  23
H47A  2    0.146683    0.077734   -0.201281    21.00000   -1.20000
H47B  2    0.096785    0.166653   -0.219989    21.00000   -1.20000
AFIX   0
C48   1   -0.028535    0.017194   -0.298285    21.00000    0.05014    0.06893 =
         0.03889    0.00409    0.02132    0.01279
AFIX  33
H48A  2   -0.024444    0.007992   -0.363473    21.00000   -1.50000
H48B  2   -0.042247   -0.049503   -0.286085    21.00000   -1.50000
H48C  2   -0.091946    0.039060   -0.304718    21.00000   -1.50000
AFIX   0
PART   2
C47'  1    0.012741    0.090651   -0.225218   -21.00000    0.06936    0.04691 =
         0.04554   -0.00429    0.04663    0.00680
AFIX  23
H47C  2    0.043774    0.164226   -0.220893   -21.00000   -1.20000
H47D  2   -0.064867    0.079768   -0.233874   -21.00000   -1.20000
AFIX   0
C48'  1   -0.027159    0.033680   -0.346959   -21.00000    0.05014    0.06893 =
         0.03889    0.00409    0.02132    0.01279
AFIX  33
H48D  2   -0.076349    0.063334   -0.390517   -21.00000   -1.50000
H48E  2    0.041118    0.044897   -0.355633   -21.00000   -1.50000
H48F  2   -0.070583   -0.041939   -0.368979   -21.00000   -1.50000
PART   0

AFIX   0
HKLF 4

REM  1060210hgi2 in P-1
REM R1 =  0.0374 for    8883 Fo > 4sig(Fo)  and  0.0427 for all    9775 data
REM    516 parameters refined using      1 restraints

END

WGHT      0.0413     12.9293

REM Highest difference peak  3.386,  deepest hole -1.846,  1-sigma level  0.142
Q1    1   0.1597  0.3940  0.1014  11.00000  0.05    3.39
Q2    1  -0.0024  0.1938 -0.1155  11.00000  0.05    2.37
Q3    1  -0.0257  0.1589 -0.1974  11.00000  0.05    2.26
Q4    1   0.2648  0.3645  0.0109  11.00000  0.05    1.35
Q5    1   0.0465  0.2146  0.2711  11.00000  0.05    1.20
Q6    1   0.2853  0.0607  0.7052  11.00000  0.05    1.13
Q7    1   0.4453  0.3512  0.5801  11.00000  0.05    1.09
Q8    1   0.1213  0.0768 -0.1506  11.00000  0.05    0.88
Q9    1   0.0192  0.0309 -0.1121  11.00000  0.05    0.63
Q10   1   0.1370  0.2203  0.4044  11.00000  0.05    0.59
;
_shelx_res_checksum              97870
_shelx_fab_file
;
    2    0    0     67.14      0.00
    3    0    0     25.76      0.00
    4    0    0     11.72      0.00
    5    0    0      6.95      0.00
    6    0    0      5.94      0.00
    7    0    0      3.82      0.00
    8    0    0     -1.69      0.00
    9    0    0     -5.15      0.00
   10    0    0     -4.44      0.00
   11    0    0     -2.54      0.00
   12    0    0     -1.65      0.00
   13    0    0     -0.86      0.00
   14    0    0      0.19      0.00
  -14    1    0     -0.15      0.00
  -13    1    0      1.67      0.00
  -12    1    0      3.22      0.00
  -11    1    0      3.99      0.00
  -10    1    0      5.70      0.00
   -9    1    0      9.06      0.00
   -8    1    0     10.39      0.00
   -7    1    0      8.88      0.00
   -6    1    0     10.31      0.00
   -5    1    0     11.12      0.00
   -4    1    0      4.40      0.00
   -3    1    0     -9.83      0.00
   -2    1    0    -36.26      0.00
    2    1    0    -24.21      0.00
    3    1    0     -4.65      0.00
    4    1    0     -4.37      0.00
    5    1    0     -5.37      0.00
    6    1    0     -4.94      0.00
    7    1    0     -4.83      0.00
    8    1    0     -2.76      0.00
    9    1    0     -0.84      0.00
   10    1    0     -1.42      0.00
   11    1    0     -2.67      0.00
   12    1    0     -2.98      0.00
   13    1    0     -2.52      0.00
  -15    2    0      1.39      0.00
  -14    2    0      2.12      0.00
  -13    2    0      1.05      0.00
  -12    2    0     -0.35      0.00
  -11    2    0     -0.28      0.00
  -10    2    0     -1.25      0.00
   -9    2    0     -5.84      0.00
   -8    2    0     -9.45      0.00
   -7    2    0     -7.52      0.00
   -6    2    0     -4.88      0.00
   -5    2    0     -3.59      0.00
   -4    2    0     -1.86      0.00
   -3    2    0     -5.35      0.00
   -2    2    0    -15.48      0.00
   -1    2    0    -13.37      0.00
    0    2    0      8.17      0.00
    1    2    0     12.88      0.00
    2    2    0     -2.80      0.00
    3    2    0    -16.11      0.00
    4    2    0    -15.85      0.00
    5    2    0    -12.20      0.00
    6    2    0     -7.88      0.00
    7    2    0     -2.64      0.00
    8    2    0      0.50      0.00
    9    2    0      0.90      0.00
   10    2    0      0.64      0.00
   11    2    0      1.80      0.00
   12    2    0      3.45      0.00
   13    2    0      3.08      0.00
  -15    3    0     -1.45      0.00
  -14    3    0     -2.35      0.00
  -13    3    0     -0.65      0.00
  -12    3    0      2.02      0.00
  -11    3    0      3.36      0.00
  -10    3    0      4.08      0.00
   -9    3    0      6.38      0.00
   -8    3    0      7.43      0.00
   -7    3    0      1.81      0.00
   -6    3    0     -4.18      0.00
   -5    3    0     -2.96      0.00
   -4    3    0      2.65      0.00
   -3    3    0     11.32      0.00
   -2    3    0     20.33      0.00
   -1    3    0     13.37      0.00
    0    3    0    -12.72      0.00
    1    3    0    -22.92      0.00
    2    3    0     -9.26      0.00
    3    3    0      8.98      0.00
    4    3    0     13.27      0.00
    5    3    0      8.80      0.00
    6    3    0      3.91      0.00
    7    3    0      0.03      0.00
    8    3    0     -2.05      0.00
    9    3    0     -0.90      0.00
   10    3    0      0.27      0.00
   11    3    0     -0.90      0.00
   12    3    0     -2.10      0.00
   13    3    0     -1.36      0.00
  -15    4    0      1.04      0.00
  -14    4    0      1.54      0.00
  -13    4    0      0.33      0.00
  -12    4    0     -2.65      0.00
  -11    4    0     -4.95      0.00
  -10    4    0     -4.21      0.00
   -9    4    0     -2.80      0.00
   -8    4    0     -2.06      0.00
   -7    4    0      1.74      0.00
   -6    4    0      5.02      0.00
   -5    4    0      1.85      0.00
   -4    4    0     -3.51      0.00
   -3    4    0     -4.14      0.00
   -2    4    0     -2.00      0.00
   -1    4    0     -0.33      0.00
    0    4    0      7.81      0.00
    1    4    0     13.67      0.00
    2    4    0      8.29      0.00
    3    4    0     -4.47      0.00
    4    4    0     -8.59      0.00
    5    4    0     -5.70      0.00
    6    4    0     -2.85      0.00
    7    4    0     -1.13      0.00
    8    4    0     -0.16      0.00
    9    4    0      0.06      0.00
   10    4    0      0.02      0.00
   11    4    0     -0.48      0.00
   12    4    0     -0.47      0.00
  -15    5    0      0.49      0.00
  -14    5    0     -0.60      0.00
  -13    5    0     -0.53      0.00
  -12    5    0      1.75      0.00
  -11    5    0      3.77      0.00
  -10    5    0      2.03      0.00
   -9    5    0     -1.65      0.00
   -8    5    0     -2.24      0.00
   -7    5    0     -3.28      0.00
   -6    5    0     -8.16      0.00
   -5    5    0    -10.58      0.00
   -4    5    0     -7.93      0.00
   -3    5    0     -6.20      0.00
   -2    5    0     -3.83      0.00
   -1    5    0      4.76      0.00
    0    5    0      6.27      0.00
    1    5    0     -1.66      0.00
    2    5    0     -6.01      0.00
    3    5    0      1.52      0.00
    4    5    0      8.77      0.00
    5    5    0      9.01      0.00
    6    5    0      6.08      0.00
    7    5    0      4.06      0.00
    8    5    0      2.09      0.00
    9    5    0      0.77      0.00
   10    5    0      1.56      0.00
   11    5    0      2.42      0.00
   12    5    0      0.95      0.00
  -15    6    0     -0.39      0.00
  -14    6    0      0.89      0.00
  -13    6    0      1.74      0.00
  -12    6    0      0.72      0.00
  -11    6    0     -1.90      0.00
  -10    6    0     -2.18      0.00
   -9    6    0      0.66      0.00
   -8    6    0      0.91      0.00
   -7    6    0      1.43      0.00
   -6    6    0      6.80      0.00
   -5    6    0      9.57      0.00
   -4    6    0      3.76      0.00
   -3    6    0     -3.98      0.00
   -2    6    0     -6.59      0.00
   -1    6    0     -9.21      0.00
    0    6    0     -8.68      0.00
    1    6    0     -1.23      0.00
    2    6    0      5.35      0.00
    3    6    0      0.32      0.00
    4    6    0     -7.03      0.00
    5    6    0     -7.59      0.00
    6    6    0     -4.22      0.00
    7    6    0     -1.48      0.00
    8    6    0     -0.56      0.00
    9    6    0     -1.10      0.00
   10    6    0     -1.44      0.00
   11    6    0     -1.01      0.00
  -15    7    0      0.50      0.00
  -14    7    0     -0.67      0.00
  -13    7    0     -2.88      0.00
  -12    7    0     -3.82      0.00
  -11    7    0     -1.60      0.00
  -10    7    0      0.45      0.00
   -9    7    0     -1.72      0.00
   -8    7    0     -3.88      0.00
   -7    7    0     -3.95      0.00
   -6    7    0     -5.32      0.00
   -5    7    0     -6.57      0.00
   -4    7    0     -1.80      0.00
   -3    7    0      5.58      0.00
   -2    7    0      4.71      0.00
   -1    7    0      2.58      0.00
    0    7    0      4.15      0.00
    1    7    0      2.63      0.00
    2    7    0     -3.29      0.00
    3    7    0     -3.96      0.00
    4    7    0      0.20      0.00
    5    7    0      2.61      0.00
    6    7    0      1.00      0.00
    7    7    0     -0.63      0.00
    8    7    0      0.10      0.00
    9    7    0     -0.21      0.00
   10    7    0     -1.56      0.00
  -15    8    0     -1.42      0.00
  -14    8    0     -1.08      0.00
  -13    8    0      0.68      0.00
  -12    8    0      2.56      0.00
  -11    8    0      1.33      0.00
  -10    8    0     -1.60      0.00
   -9    8    0      0.13      0.00
   -8    8    0      3.50      0.00
   -7    8    0      3.06      0.00
   -6    8    0      2.68      0.00
   -5    8    0      5.38      0.00
   -4    8    0      4.89      0.00
   -3    8    0     -0.57      0.00
   -2    8    0     -1.57      0.00
   -1    8    0     -1.17      0.00
    0    8    0     -3.82      0.00
    1    8    0     -3.96      0.00
    2    8    0      2.69      0.00
    3    8    0      7.11      0.00
    4    8    0      4.26      0.00
    5    8    0     -0.07      0.00
    6    8    0     -0.81      0.00
    7    8    0     -0.08      0.00
    8    8    0     -0.08      0.00
    9    8    0      0.79      0.00
  -15    9    0     -0.16      0.00
  -14    9    0     -0.50      0.00
  -13    9    0     -1.88      0.00
  -12    9    0     -4.28      0.00
  -11    9    0     -4.44      0.00
  -10    9    0     -1.62      0.00
   -9    9    0     -1.44      0.00
   -8    9    0     -4.02      0.00
   -7    9    0     -4.64      0.00
   -6    9    0     -3.30      0.00
   -5    9    0     -3.60      0.00
   -4    9    0     -2.84      0.00
   -3    9    0      4.10      0.00
   -2    9    0      9.19      0.00
   -1    9    0      8.66      0.00
    0    9    0      7.36      0.00
    1    9    0      7.01      0.00
    2    9    0      3.12      0.00
    3    9    0     -1.42      0.00
    4    9    0     -1.36      0.00
    5    9    0      1.86      0.00
    6    9    0      2.64      0.00
    7    9    0      0.59      0.00
    8    9    0      0.16      0.00
    9    9    0      0.38      0.00
  -15   10    0      0.22      0.00
  -14   10    0      0.44      0.00
  -13   10    0      1.14      0.00
  -12   10    0      4.24      0.00
  -11   10    0      7.41      0.00
  -10   10    0      6.72      0.00
   -9   10    0      5.47      0.00
   -8   10    0      7.81      0.00
   -7   10    0     10.10      0.00
   -6   10    0      8.22      0.00
   -5   10    0      6.23      0.00
   -4   10    0      5.53      0.00
   -3   10    0      1.25      0.00
   -2   10    0     -2.03      0.00
   -1   10    0     -1.54      0.00
    0   10    0     -1.52      0.00
    1   10    0     -4.31      0.00
    2   10    0     -4.19      0.00
    3   10    0     -0.16      0.00
    4   10    0      2.04      0.00
    5   10    0      0.25      0.00
    6   10    0     -0.63      0.00
    7   10    0      0.58      0.00
    8   10    0      0.30      0.00
  -15   11    0      1.03      0.00
  -14   11    0      1.95      0.00
  -13   11    0      2.47      0.00
  -12   11    0      0.04      0.00
  -11   11    0     -3.67      0.00
  -10   11    0     -3.86      0.00
   -9   11    0     -1.52      0.00
   -8   11    0     -2.18      0.00
   -7   11    0     -4.78      0.00
   -6   11    0     -4.41      0.00
   -5   11    0     -3.55      0.00
   -4   11    0     -6.43      0.00
   -3   11    0     -8.82      0.00
   -2   11    0     -7.38      0.00
   -1   11    0     -3.82      0.00
    0   11    0     -1.64      0.00
    1   11    0      0.22      0.00
    2   11    0      0.56      0.00
    3   11    0     -2.03      0.00
    4   11    0     -4.66      0.00
    5   11    0     -3.48      0.00
    6   11    0     -1.09      0.00
    7   11    0     -0.50      0.00
  -14   12    0     -0.64      0.00
  -13   12    0     -1.25      0.00
  -12   12    0     -1.01      0.00
  -11   12    0      0.44      0.00
  -10   12    0      0.52      0.00
   -9   12    0     -2.26      0.00
   -8   12    0     -3.25      0.00
   -7   12    0     -0.52      0.00
   -6   12    0      1.31      0.00
   -5   12    0      1.60      0.00
   -4   12    0      4.00      0.00
   -3   12    0      5.51      0.00
   -2   12    0      2.57      0.00
   -1   12    0     -1.44      0.00
    0   12    0     -1.65      0.00
    1   12    0     -0.92      0.00
    2   12    0     -1.17      0.00
    3   12    0     -0.20      0.00
    4   12    0      2.28      0.00
    5   12    0      2.11      0.00
    6   12    0      0.24      0.00
  -14   13    0     -0.56      0.00
  -13   13    0      0.41      0.00
  -12   13    0      1.72      0.00
  -11   13    0      1.63      0.00
  -10   13    0      0.55      0.00
   -9   13    0      1.80      0.00
   -8   13    0      2.88      0.00
   -7   13    0      0.52      0.00
   -6   13    0     -2.16      0.00
   -5   13    0     -1.71      0.00
   -4   13    0     -0.16      0.00
   -3   13    0      0.17      0.00
   -2   13    0      0.45      0.00
   -1   13    0      2.20      0.00
    0   13    0      2.71      0.00
    1   13    0      1.85      0.00
    2   13    0      1.69      0.00
    3   13    0      1.60      0.00
    4   13    0     -0.16      0.00
  -13   14    0      0.07      0.00
  -12   14    0     -0.94      0.00
  -11   14    0     -1.36      0.00
  -10   14    0      0.20      0.00
   -9   14    0      0.24      0.00
   -8   14    0     -1.61      0.00
   -7   14    0     -2.23      0.00
   -6   14    0     -1.16      0.00
   -5   14    0     -1.46      0.00
   -4   14    0     -2.45      0.00
   -3   14    0     -0.95      0.00
   -2   14    0      0.95      0.00
   -1   14    0     -0.73      0.00
    0   14    0     -2.72      0.00
    1   14    0     -1.71      0.00
    2   14    0      0.01      0.00
    3   14    0      0.34      0.00
  -12   15    0     -0.63      0.00
  -11   15    0      0.20      0.00
  -10   15    0     -1.18      0.00
   -9   15    0     -1.99      0.00
   -8   15    0      0.52      0.00
   -7   15    0      3.57      0.00
   -6   15    0      3.24      0.00
   -5   15    0      1.46      0.00
   -4   15    0      0.65      0.00
   -3   15    0     -0.47      0.00
   -2   15    0     -1.69      0.00
   -1   15    0     -0.04      0.00
    0   15    0      2.48      0.00
    1   15    0      1.95      0.00
  -11   16    0     -1.06      0.00
  -10   16    0     -0.60      0.00
   -9   16    0      0.41      0.00
   -8   16    0     -0.68      0.00
   -7   16    0     -2.99      0.00
   -6   16    0     -2.75      0.00
   -5   16    0     -0.50      0.00
   -4   16    0      0.69      0.00
   -3   16    0      1.08      0.00
   -2   16    0      2.22      0.00
   -1   16    0      2.01      0.00
   -8   17    0     -0.91      0.00
   -7   17    0      0.53      0.00
   -6   17    0      1.28      0.00
   -5   17    0     -0.17      0.00
   -4   17    0     -1.01      0.00
    3  -17    1      0.39      0.00
    4  -17    1     -0.21      0.00
    5  -17    1      0.36      0.00
    6  -17    1      1.57      0.00
    7  -17    1      0.65      0.00
    8  -17    1     -1.54      0.00
    9  -17    1     -1.43      0.00
    0  -16    1     -2.18      0.00
    1  -16    1     -0.87      0.00
    2  -16    1     -0.80      0.00
    3  -16    1     -1.36      0.00
    4  -16    1     -0.62      0.00
    5  -16    1     -0.69      0.00
    6  -16    1     -2.16      0.00
    7  -16    1     -1.03      0.00
    8  -16    1      2.00      0.00
    9  -16    1      1.77      0.00
   10  -16    1     -1.13      0.00
   11  -16    1     -2.05      0.00
   -2  -15    1     -0.43      0.00
   -1  -15    1      1.04      0.00
    0  -15    1      1.94      0.00
    1  -15    1      0.42      0.00
    2  -15    1     -0.26      0.00
    3  -15    1      0.86      0.00
    4  -15    1      0.77      0.00
    5  -15    1     -0.09      0.00
    6  -15    1      0.46      0.00
    7  -15    1      0.46      0.00
    8  -15    1     -1.04      0.00
    9  -15    1     -1.20      0.00
   10  -15    1      1.31      0.00
   11  -15    1      2.87      0.00
   12  -15    1      1.18      0.00
   -4  -14    1     -0.15      0.00
   -3  -14    1     -0.87      0.00
   -2  -14    1     -0.45      0.00
   -1  -14    1     -1.98      0.00
    0  -14    1     -4.02      0.00
    1  -14    1     -3.00      0.00
    2  -14    1     -0.78      0.00
    3  -14    1     -0.78      0.00
    4  -14    1     -1.17      0.00
    5  -14    1     -0.36      0.00
    6  -14    1     -0.93      0.00
    7  -14    1     -2.61      0.00
    8  -14    1     -2.14      0.00
    9  -14    1     -0.45      0.00
   10  -14    1     -1.11      0.00
   11  -14    1     -2.43      0.00
   12  -14    1     -1.24      0.00
   13  -14    1      0.09      0.00
   -5  -13    1     -0.79      0.00
   -4  -13    1     -0.64      0.00
   -3  -13    1      0.35      0.00
   -2  -13    1      0.10      0.00
   -1  -13    1      1.40      0.00
    0  -13    1      4.18      0.00
    1  -13    1      3.50      0.00
    2  -13    1     -0.38      0.00
    3  -13    1     -0.85      0.00
    4  -13    1      1.67      0.00
    5  -13    1      2.52      0.00
    6  -13    1      2.67      0.00
    7  -13    1      4.10      0.00
    8  -13    1      4.21      0.00
    9  -13    1      1.46      0.00
   10  -13    1     -0.10      0.00
   11  -13    1      1.56      0.00
   12  -13    1      2.92      0.00
   13  -13    1      2.58      0.00
   -6  -12    1     -1.04      0.00
   -5  -12    1      0.59      0.00
   -4  -12    1      1.59      0.00
   -3  -12    1      0.67      0.00
   -2  -12    1      0.79      0.00
   -1  -12    1      1.20      0.00
    0  -12    1      0.39      0.00
    1  -12    1      0.70      0.00
    2  -12    1      3.50      0.00
    3  -12    1      4.80      0.00
    4  -12    1      3.88      0.00
    5  -12    1      3.82      0.00
    6  -12    1      5.14      0.00
    7  -12    1      4.32      0.00
    8  -12    1      2.40      0.00
    9  -12    1      3.55      0.00
   10  -12    1      4.62      0.00
   11  -12    1      1.43      0.00
   12  -12    1     -2.44      0.00
   13  -12    1     -2.82      0.00
   14  -12    1     -1.21      0.00
   -7  -11    1      0.58      0.00
   -6  -11    1      1.91      0.00
   -5  -11    1      0.34      0.00
   -4  -11    1     -1.47      0.00
   -3  -11    1     -0.17      0.00
   -2  -11    1      0.89      0.00
   -1  -11    1     -0.26      0.00
    0  -11    1      0.06      0.00
    1  -11    1      2.57      0.00
    2  -11    1      0.99      0.00
    3  -11    1     -4.35      0.00
    4  -11    1     -7.36      0.00
    5  -11    1     -7.44      0.00
    6  -11    1     -8.92      0.00
    7  -11    1     -9.14      0.00
    8  -11    1     -6.70      0.00
    9  -11    1     -5.97      0.00
   10  -11    1     -6.96      0.00
   11  -11    1     -5.63      0.00
   12  -11    1     -2.46      0.00
   13  -11    1     -1.35      0.00
   14  -11    1     -1.59      0.00
   -8  -10    1     -0.39      0.00
   -7  -10    1     -1.23      0.00
   -6  -10    1     -2.53      0.00
   -5  -10    1     -0.81      0.00
   -4  -10    1      1.97      0.00
   -3  -10    1      0.98      0.00
   -2  -10    1     -2.28      0.00
   -1  -10    1     -3.44      0.00
    0  -10    1     -3.66      0.00
    1  -10    1     -5.36      0.00
    2  -10    1     -4.28      0.00
    3  -10    1      0.23      0.00
    4  -10    1      2.71      0.00
    5  -10    1      0.67      0.00
    6  -10    1      0.50      0.00
    7  -10    1      2.09      0.00
    8  -10    1      1.09      0.00
    9  -10    1     -0.14      0.00
   10  -10    1      2.03      0.00
   11  -10    1      4.05      0.00
   12  -10    1      2.33      0.00
   13  -10    1      0.50      0.00
   14  -10    1      0.48      0.00
   15  -10    1      0.56      0.00
   -9   -9    1      0.72      0.00
   -8   -9    1      1.73      0.00
   -7   -9    1      1.59      0.00
   -6   -9    1      2.75      0.00
   -5   -9    1      1.97      0.00
   -4   -9    1     -1.42      0.00
   -3   -9    1     -1.58      0.00
   -2   -9    1      2.74      0.00
   -1   -9    1      4.77      0.00
    0   -9    1      2.26      0.00
    1   -9    1      2.49      0.00
    2   -9    1      5.82      0.00
    3   -9    1      5.02      0.00
    4   -9    1      0.66      0.00
    5   -9    1      0.93      0.00
    6   -9    1      1.19      0.00
    7   -9    1     -1.21      0.00
    8   -9    1     -1.50      0.00
    9   -9    1     -0.12      0.00
   10   -9    1     -1.75      0.00
   11   -9    1     -4.28      0.00
   12   -9    1     -2.93      0.00
   13   -9    1     -0.50      0.00
   14   -9    1      0.14      0.00
   15   -9    1      0.27      0.00
  -10   -8    1     -0.31      0.00
   -9   -8    1     -1.72      0.00
   -8   -8    1     -1.27      0.00
   -7   -8    1     -0.67      0.00
   -6   -8    1     -3.04      0.00
   -5   -8    1     -4.32      0.00
   -4   -8    1     -1.25      0.00
   -3   -8    1      2.23      0.00
   -2   -8    1      0.93      0.00
   -1   -8    1     -2.65      0.00
    0   -8    1     -3.34      0.00
    1   -8    1     -6.36      0.00
    2   -8    1    -12.68      0.00
    3   -8    1    -12.83      0.00
    4   -8    1     -4.56      0.00
    5   -8    1     -0.16      0.00
    6   -8    1     -0.19      0.00
    7   -8    1      0.68      0.00
    8   -8    1      2.20      0.00
    9   -8    1      1.72      0.00
   10   -8    1      1.89      0.00
   11   -8    1      4.34      0.00
   12   -8    1      4.79      0.00
   13   -8    1      2.87      0.00
   14   -8    1      1.07      0.00
   15   -8    1     -0.08      0.00
  -11   -7    1      1.22      0.00
  -10   -7    1      0.37      0.00
   -9   -7    1     -0.10      0.00
   -8   -7    1     -0.28      0.00
   -7   -7    1      0.11      0.00
   -6   -7    1      2.31      0.00
   -5   -7    1      3.92      0.00
   -4   -7    1     -0.61      0.00
   -3   -7    1     -8.99      0.00
   -2   -7    1    -10.31      0.00
   -1   -7    1     -2.82      0.00
    0   -7    1      1.68      0.00
    1   -7    1      2.56      0.00
    2   -7    1      6.03      0.00
    3   -7    1      8.29      0.00
    4   -7    1      1.74      0.00
    5   -7    1     -2.49      0.00
    6   -7    1      0.60      0.00
    7   -7    1      2.78      0.00
    8   -7    1      1.16      0.00
    9   -7    1      1.90      0.00
   10   -7    1      3.58      0.00
   11   -7    1      1.55      0.00
   12   -7    1     -0.65      0.00
   13   -7    1     -0.28      0.00
   14   -7    1      0.81      0.00
   15   -7    1      1.36      0.00
  -11   -6    1     -1.03      0.00
  -10   -6    1      0.67      0.00
   -9   -6    1     -0.02      0.00
   -8   -6    1     -1.55      0.00
   -7   -6    1     -1.89      0.00
   -6   -6    1     -2.69      0.00
   -5   -6    1     -3.47      0.00
   -4   -6    1     -0.12      0.00
   -3   -6    1      7.27      0.00
   -2   -6    1     10.73      0.00
   -1   -6    1      5.23      0.00
    0   -6    1      2.37      0.00
    1   -6    1      5.32      0.00
    2   -6    1      4.40      0.00
    3   -6    1     -1.51      0.00
    4   -6    1      0.39      0.00
    5   -6    1      4.42      0.00
    6   -6    1      3.00      0.00
    7   -6    1      0.00      0.00
    8   -6    1     -0.39      0.00
    9   -6    1     -1.52      0.00
   10   -6    1     -3.61      0.00
   11   -6    1     -2.75      0.00
   12   -6    1     -0.53      0.00
   13   -6    1     -0.19      0.00
   14   -6    1     -0.80      0.00
   15   -6    1     -1.08      0.00
  -12   -5    1      0.64      0.00
  -11   -5    1      0.66      0.00
  -10   -5    1      0.72      0.00
   -9   -5    1      1.13      0.00
   -8   -5    1      1.30      0.00
   -7   -5    1      1.59      0.00
   -6   -5    1      2.37      0.00
   -5   -5    1      5.26      0.00
   -4   -5    1      7.53      0.00
   -3   -5    1      1.54      0.00
   -2   -5    1     -8.82      0.00
   -1   -5    1     -9.60      0.00
    0   -5    1     -4.61      0.00
    1   -5    1     -0.99      0.00
    2   -5    1      1.43      0.00
    3   -5    1      6.23      0.00
    4   -5    1      3.44      0.00
    5   -5    1     -4.96      0.00
    6   -5    1     -7.48      0.00
    7   -5    1     -2.62      0.00
    8   -5    1      0.06      0.00
    9   -5    1     -0.37      0.00
   10   -5    1      0.46      0.00
   11   -5    1      0.65      0.00
   12   -5    1     -0.92      0.00
   13   -5    1     -1.83      0.00
   14   -5    1     -1.64      0.00
   15   -5    1     -0.60      0.00
  -13   -4    1      1.50      0.00
  -12   -4    1      1.18      0.00
  -11   -4    1     -0.93      0.00
  -10   -4    1     -1.42      0.00
   -9   -4    1     -0.21      0.00
   -8   -4    1     -0.46      0.00
   -7   -4    1     -2.20      0.00
   -6   -4    1     -4.53      0.00
   -5   -4    1     -9.09      0.00
   -4   -4    1    -12.82      0.00
   -3   -4    1     -7.31      0.00
   -2   -4    1      5.74      0.00
   -1   -4    1      8.57      0.00
    0   -4    1     -2.45      0.00
    1   -4    1    -12.93      0.00
    2   -4    1     -9.66      0.00
    3   -4    1     -5.07      0.00
    4   -4    1      0.25      0.00
    5   -4    1      7.27      0.00
    6   -4    1      8.41      0.00
    7   -4    1      3.03      0.00
    8   -4    1      1.03      0.00
    9   -4    1      3.16      0.00
   10   -4    1      2.98      0.00
   11   -4    1      1.20      0.00
   12   -4    1      1.47      0.00
   13   -4    1      2.48      0.00
   14   -4    1      2.17      0.00
   15   -4    1      0.44      0.00
  -13   -3    1     -1.76      0.00
  -12   -3    1     -1.73      0.00
  -11   -3    1     -0.59      0.00
  -10   -3    1     -0.07      0.00
   -9   -3    1     -0.17      0.00
   -8   -3    1      0.09      0.00
   -7   -3    1      0.88      0.00
   -6   -3    1      1.67      0.00
   -5   -3    1      3.00      0.00
   -4   -3    1      7.68      0.00
   -3   -3    1      9.99      0.00
   -1   -3    1     -5.05      0.00
    0   -3    1     -1.45      0.00
    1   -3    1      8.13      0.00
    2   -3    1      8.60      0.00
    3   -3    1      8.92      0.00
    4   -3    1     10.24      0.00
    5   -3    1      8.18      0.00
    6   -3    1      4.20      0.00
    7   -3    1      3.28      0.00
    8   -3    1      2.87      0.00
    9   -3    1      0.39      0.00
   10   -3    1     -0.15      0.00
   11   -3    1      1.50      0.00
   12   -3    1      1.35      0.00
   13   -3    1      0.03      0.00
   14   -3    1     -0.66      0.00
  -14   -2    1     -0.82      0.00
  -13   -2    1      0.18      0.00
  -12   -2    1      1.76      0.00
  -11   -2    1      1.73      0.00
  -10   -2    1      0.31      0.00
   -9   -2    1      1.19      0.00
   -8   -2    1      4.54      0.00
   -7   -2    1      8.08      0.00
   -6   -2    1     11.21      0.00
   -5   -2    1     12.52      0.00
   -4   -2    1      7.30      0.00
   -3   -2    1      2.37      0.00
   -2   -2    1     15.36      0.00
   -1   -2    1     43.74      0.00
    0   -2    1     57.13      0.00
    1   -2    1     34.37      0.00
    2   -2    1      7.51      0.00
    3   -2    1     -7.46      0.00
    4   -2    1    -13.78      0.00
    5   -2    1    -13.01      0.00
    6   -2    1     -6.60      0.00
    7   -2    1     -4.37      0.00
    8   -2    1     -6.76      0.00
    9   -2    1     -7.30      0.00
   10   -2    1     -6.75      0.00
   11   -2    1     -7.01      0.00
   12   -2    1     -5.89      0.00
   13   -2    1     -3.19      0.00
   14   -2    1     -0.73      0.00
  -14   -1    1      1.53      0.00
  -13   -1    1      1.08      0.00
  -12   -1    1     -0.08      0.00
  -11   -1    1      0.10      0.00
  -10   -1    1      1.20      0.00
   -9   -1    1      0.31      0.00
   -8   -1    1     -2.49      0.00
   -7   -1    1     -5.00      0.00
   -6   -1    1     -4.88      0.00
   -5   -1    1     -4.36      0.00
   -4   -1    1     -1.47      0.00
   -3   -1    1      1.91      0.00
   -2   -1    1    -11.56      0.00
    2   -1    1     -7.34      0.00
    3   -1    1     -3.88      0.00
    4   -1    1     -5.90      0.00
    5   -1    1     -6.23      0.00
    6   -1    1     -7.57      0.00
    7   -1    1     -6.04      0.00
    8   -1    1     -1.03      0.00
    9   -1    1      1.80      0.00
   10   -1    1      2.01      0.00
   11   -1    1      2.65      0.00
   12   -1    1      2.55      0.00
   13   -1    1      1.13      0.00
   14   -1    1      0.22      0.00
  -14    0    1      0.20      0.00
  -13    0    1      0.23      0.00
  -12    0    1      1.12      0.00
  -11    0    1      2.42      0.00
  -10    0    1      1.94      0.00
   -9    0    1     -0.02      0.00
   -8    0    1     -1.40      0.00
   -7    0    1     -2.72      0.00
   -6    0    1     -5.92      0.00
   -5    0    1     -6.63      0.00
   -4    0    1    -10.04      0.00
   -3    0    1    -25.45      0.00
   -2    0    1    -41.72      0.00
    1    0    1     -8.14      0.00
    2    0    1     -6.32      0.00
    3    0    1      0.26      0.00
    4    0    1      5.65      0.00
    5    0    1      3.99      0.00
    6    0    1      3.58      0.00
    7    0    1      5.04      0.00
    8    0    1      4.06      0.00
    9    0    1      2.77      0.00
   10    0    1      2.35      0.00
   11    0    1      1.25      0.00
   12    0    1      0.48      0.00
   13    0    1      0.28      0.00
  -15    1    1     -0.37      0.00
  -14    1    1     -0.61      0.00
  -13    1    1      0.17      0.00
  -12    1    1      0.21      0.00
  -11    1    1     -1.16      0.00
  -10    1    1     -0.78      0.00
   -9    1    1      1.71      0.00
   -8    1    1      3.26      0.00
   -7    1    1      2.22      0.00
   -6    1    1      2.28      0.00
   -5    1    1      2.93      0.00
   -4    1    1      9.25      0.00
   -3    1    1     32.08      0.00
   -2    1    1     57.00      0.00
    1    1    1    -23.38      0.00
    2    1    1    -15.81      0.00
    3    1    1     -6.39      0.00
    4    1    1     -3.01      0.00
    5    1    1      0.47      0.00
    6    1    1      0.28      0.00
    7    1    1     -2.59      0.00
    8    1    1     -3.06      0.00
    9    1    1     -1.08      0.00
   10    1    1      0.49      0.00
   11    1    1      1.12      0.00
   12    1    1      1.20      0.00
   13    1    1      0.91      0.00
  -15    2    1     -0.65      0.00
  -14    2    1     -0.61      0.00
  -13    2    1     -2.58      0.00
  -12    2    1     -4.76      0.00
  -11    2    1     -4.76      0.00
  -10    2    1     -4.23      0.00
   -9    2    1     -5.65      0.00
   -8    2    1     -7.31      0.00
   -7    2    1     -6.58      0.00
   -6    2    1     -9.68      0.00
   -5    2    1    -16.22      0.00
   -4    2    1    -21.68      0.00
   -3    2    1    -27.38      0.00
   -2    2    1    -26.56      0.00
   -1    2    1     -1.68      0.00
    0    2    1     35.83      0.00
    1    2    1     44.86      0.00
    2    2    1     29.41      0.00
    3    2    1     13.98      0.00
    4    2    1      9.99      0.00
    5    2    1      8.28      0.00
    6    2    1      6.53      0.00
    7    2    1      6.26      0.00
    8    2    1      5.11      0.00
    9    2    1      2.18      0.00
   10    2    1      0.12      0.00
   11    2    1     -1.10      0.00
   12    2    1     -1.59      0.00
   13    2    1     -1.05      0.00
  -15    3    1     -0.14      0.00
  -14    3    1     -1.54      0.00
  -13    3    1     -0.90      0.00
  -12    3    1      0.74      0.00
  -11    3    1     -0.57      0.00
  -10    3    1     -3.47      0.00
   -9    3    1     -2.87      0.00
   -8    3    1      1.33      0.00
   -7    3    1      4.63      0.00
   -6    3    1      9.40      0.00
   -5    3    1     14.40      0.00
   -4    3    1     12.48      0.00
   -3    3    1      5.58      0.00
   -2    3    1      5.86      0.00
   -1    3    1      7.63      0.00
    0    3    1     -4.63      0.00
    1    3    1    -14.85      0.00
    2    3    1    -12.25      0.00
    3    3    1     -4.79      0.00
    4    3    1     -3.79      0.00
    5    3    1     -3.29      0.00
    6    3    1     -1.59      0.00
    7    3    1     -1.19      0.00
    8    3    1     -1.93      0.00
    9    3    1     -1.62      0.00
   10    3    1      0.13      0.00
   11    3    1      1.83      0.00
   12    3    1      1.55      0.00
  -15    4    1      0.17      0.00
  -14    4    1      2.78      0.00
  -13    4    1      3.57      0.00
  -12    4    1      3.09      0.00
  -11    4    1      4.49      0.00
  -10    4    1      7.41      0.00
   -9    4    1      7.42      0.00
   -8    4    1      2.61      0.00
   -7    4    1      0.63      0.00
   -6    4    1      3.12      0.00
   -5    4    1      5.31      0.00
   -4    4    1      7.28      0.00
   -3    4    1      6.44      0.00
   -2    4    1     -5.51      0.00
   -1    4    1    -18.43      0.00
    0    4    1    -11.56      0.00
    1    4    1      3.50      0.00
    2    4    1      8.42      0.00
    3    4    1      1.34      0.00
    4    4    1     -3.69      0.00
    5    4    1     -4.44      0.00
    6    4    1     -4.45      0.00
    7    4    1     -3.63      0.00
    8    4    1     -1.47      0.00
    9    4    1     -1.41      0.00
   10    4    1     -2.91      0.00
   11    4    1     -2.84      0.00
   12    4    1     -1.21      0.00
  -16    5    1      1.90      0.00
  -15    5    1      0.85      0.00
  -14    5    1     -1.57      0.00
  -13    5    1     -3.29      0.00
  -12    5    1     -2.38      0.00
  -11    5    1     -0.56      0.00
  -10    5    1     -1.04      0.00
   -9    5    1     -1.93      0.00
   -8    5    1      0.70      0.00
   -7    5    1      1.02      0.00
   -6    5    1     -2.52      0.00
   -5    5    1     -3.04      0.00
   -4    5    1      1.12      0.00
   -3    5    1      4.82      0.00
   -2    5    1      6.86      0.00
   -1    5    1      9.57      0.00
    0    5    1      5.02      0.00
    1    5    1     -5.91      0.00
    2    5    1    -10.98      0.00
    3    5    1     -3.87      0.00
    4    5    1      2.50      0.00
    5    5    1      3.58      0.00
    6    5    1      2.97      0.00
    7    5    1      2.16      0.00
    8    5    1      1.58      0.00
    9    5    1      1.63      0.00
   10    5    1      1.39      0.00
   11    5    1      1.19      0.00
  -16    6    1     -2.38      0.00
  -15    6    1     -2.32      0.00
  -14    6    1     -0.09      0.00
  -13    6    1      2.10      0.00
  -12    6    1      1.11      0.00
  -11    6    1     -1.96      0.00
  -10    6    1     -2.45      0.00
   -9    6    1      0.75      0.00
   -8    6    1      1.03      0.00
   -7    6    1     -1.13      0.00
   -6    6    1     -0.62      0.00
   -5    6    1      0.66      0.00
   -4    6    1     -0.62      0.00
   -3    6    1      0.44      0.00
   -2    6    1      5.50      0.00
   -1    6    1      4.26      0.00
    0    6    1      1.45      0.00
    1    6    1      6.22      0.00
    2    6    1     13.15      0.00
    3    6    1     11.01      0.00
    4    6    1      4.42      0.00
    5    6    1      0.53      0.00
    6    6    1     -0.27      0.00
    7    6    1     -0.85      0.00
    8    6    1     -0.84      0.00
    9    6    1      0.44      0.00
   10    6    1      0.66      0.00
  -16    7    1      1.51      0.00
  -15    7    1      1.67      0.00
  -14    7    1      0.71      0.00
  -13    7    1     -0.76      0.00
  -12    7    1     -0.62      0.00
  -11    7    1      2.56      0.00
  -10    7    1      4.48      0.00
   -9    7    1      1.12      0.00
   -8    7    1     -0.20      0.00
   -7    7    1      2.16      0.00
   -6    7    1      1.06      0.00
   -5    7    1     -3.45      0.00
   -4    7    1     -5.01      0.00
   -3    7    1     -3.50      0.00
   -2    7    1     -4.22      0.00
   -1    7    1     -2.21      0.00
    0    7    1      1.05      0.00
    1    7    1     -2.70      0.00
    2    7    1    -11.58      0.00
    3    7    1    -12.58      0.00
    4    7    1     -6.00      0.00
    5    7    1     -0.24      0.00
    6    7    1      1.81      0.00
    7    7    1      1.78      0.00
    8    7    1      1.37      0.00
    9    7    1      1.21      0.00
   10    7    1      1.54      0.00
  -16    8    1      0.73      0.00
  -15    8    1      0.66      0.00
  -14    8    1      1.09      0.00
  -13    8    1      2.85      0.00
  -12    8    1      3.96      0.00
  -11    8    1      1.28      0.00
  -10    8    1     -2.47      0.00
   -9    8    1     -1.46      0.00
   -8    8    1      0.85      0.00
   -7    8    1      0.47      0.00
   -6    8    1     -0.02      0.00
   -5    8    1      1.76      0.00
   -4    8    1      0.67      0.00
   -3    8    1     -5.99      0.00
   -2    8    1     -8.12      0.00
   -1    8    1     -6.80      0.00
    0    8    1     -7.13      0.00
    1    8    1     -5.71      0.00
    2    8    1      0.39      0.00
    3    8    1      3.50      0.00
    4    8    1      0.38      0.00
    5    8    1     -4.14      0.00
    6    8    1     -4.57      0.00
    7    8    1     -2.61      0.00
    8    8    1     -2.64      0.00
    9    8    1     -2.62      0.00
  -15    9    1     -0.09      0.00
  -14    9    1     -0.04      0.00
  -13    9    1     -1.13      0.00
  -12    9    1     -3.22      0.00
  -11    9    1     -2.72      0.00
  -10    9    1      0.88      0.00
   -9    9    1      0.95      0.00
   -8    9    1     -2.77      0.00
   -7    9    1     -3.90      0.00
   -6    9    1     -1.92      0.00
   -5    9    1     -1.82      0.00
   -4    9    1     -1.97      0.00
   -3    9    1      1.49      0.00
   -2    9    1      2.14      0.00
   -1    9    1      1.13      0.00
    0    9    1      3.05      0.00
    1    9    1      5.78      0.00
    3    9    1     -0.83      0.00
    4    9    1     -0.60      0.00
    5    9    1      2.49      0.00
    6    9    1      3.32      0.00
    7    9    1      2.51      0.00
    8    9    1      2.46      0.00
  -15   10    1      0.20      0.00
  -14   10    1     -0.49      0.00
  -13   10    1     -0.75      0.00
  -12   10    1      0.83      0.00
  -11   10    1      1.30      0.00
  -10   10    1     -1.43      0.00
   -9   10    1     -2.65      0.00
   -8   10    1      0.49      0.00
   -7   10    1      3.56      0.00
   -6   10    1      3.09      0.00
   -5   10    1      3.48      0.00
   -4   10    1      6.96      0.00
   -3   10    1      6.99      0.00
   -2   10    1      4.52      0.00
   -1   10    1      2.86      0.00
    0   10    1      1.78      0.00
    1   10    1     -0.63      0.00
    2   10    1     -0.58      0.00
    3   10    1      2.05      0.00
    4   10    1      2.95      0.00
    5   10    1     -0.08      0.00
    6   10    1     -2.79      0.00
    7   10    1     -2.61      0.00
  -15   11    1     -0.98      0.00
  -14   11    1     -0.92      0.00
  -13   11    1      0.08      0.00
  -12   11    1     -0.40      0.00
  -11   11    1     -1.64      0.00
  -10   11    1     -0.51      0.00
   -9   11    1      1.52      0.00
   -8   11    1     -0.99      0.00
   -7   11    1     -6.24      0.00
   -6   11    1     -8.02      0.00
   -5   11    1     -7.84      0.00
   -4   11    1     -8.59      0.00
   -3   11    1     -6.21      0.00
   -2   11    1     -2.65      0.00
   -1   11    1     -1.55      0.00
    0   11    1     -2.26      0.00
    1   11    1     -0.67      0.00
    2   11    1      1.10      0.00
    3   11    1      0.49      0.00
    4   11    1     -0.55      0.00
    5   11    1      1.34      0.00
    6   11    1      2.74      0.00
  -15   12    1     -0.33      0.00
  -14   12    1     -1.09      0.00
  -13   12    1     -2.87      0.00
  -12   12    1     -2.76      0.00
  -11   12    1     -0.75      0.00
  -10   12    1     -0.15      0.00
   -9   12    1     -2.26      0.00
   -8   12    1     -1.52      0.00
   -7   12    1      3.28      0.00
   -6   12    1      6.11      0.00
   -5   12    1      4.61      0.00
   -4   12    1      3.06      0.00
   -3   12    1      2.74      0.00
   -2   12    1      2.23      0.00
   -1   12    1      0.49      0.00
    0   12    1     -0.04      0.00
    1   12    1     -0.63      0.00
    2   12    1     -1.84      0.00
    3   12    1     -2.19      0.00
    4   12    1     -1.05      0.00
    5   12    1     -1.20      0.00
  -14   13    1      1.50      0.00
  -13   13    1      2.50      0.00
  -12   13    1      2.49      0.00
  -11   13    1      1.15      0.00
  -10   13    1      0.15      0.00
   -9   13    1      2.80      0.00
   -8   13    1      5.15      0.00
   -7   13    1      3.43      0.00
   -6   13    1      1.07      0.00
   -5   13    1      1.23      0.00
   -4   13    1      0.65      0.00
   -3   13    1     -1.12      0.00
   -2   13    1     -0.87      0.00
   -1   13    1      2.01      0.00
    0   13    1      2.85      0.00
    1   13    1      1.61      0.00
    2   13    1      1.03      0.00
    3   13    1      1.29      0.00
    4   13    1      0.15      0.00
  -13   14    1      0.58      0.00
  -12   14    1      0.41      0.00
  -11   14    1      0.40      0.00
  -10   14    1      1.15      0.00
   -9   14    1     -0.62      0.00
   -8   14    1     -3.31      0.00
   -7   14    1     -2.99      0.00
   -6   14    1      0.17      0.00
   -5   14    1      2.12      0.00
   -4   14    1      1.82      0.00
   -3   14    1      1.07      0.00
   -2   14    1      0.74      0.00
   -1   14    1     -0.75      0.00
    0   14    1     -1.50      0.00
    1   14    1     -0.62      0.00
    2   14    1     -0.21      0.00
  -12   15    1     -0.14      0.00
  -11   15    1      1.59      0.00
  -10   15    1      1.43      0.00
   -9   15    1      0.93      0.00
   -8   15    1      1.20      0.00
   -7   15    1      0.71      0.00
   -6   15    1     -1.92      0.00
   -5   15    1     -3.27      0.00
   -4   15    1     -1.62      0.00
   -3   15    1     -0.14      0.00
   -2   15    1     -1.15      0.00
   -1   15    1     -1.58      0.00
    0   15    1     -0.68      0.00
    1   15    1     -0.16      0.00
  -11   16    1     -2.94      0.00
  -10   16    1     -2.72      0.00
   -9   16    1     -0.40      0.00
   -8   16    1      0.51      0.00
   -7   16    1     -0.60      0.00
   -6   16    1     -0.21      0.00
   -5   16    1      1.03      0.00
   -4   16    1      0.40      0.00
   -3   16    1     -1.14      0.00
   -2   16    1     -0.55      0.00
   -8   17    1     -1.27      0.00
   -7   17    1      0.59      0.00
   -6   17    1      0.71      0.00
    2  -17    2      0.94      0.00
    3  -17    2      1.05      0.00
    4  -17    2      0.26      0.00
    5  -17    2      1.12      0.00
    6  -17    2      2.01      0.00
    7  -17    2     -0.14      0.00
    8  -17    2     -2.15      0.00
   -1  -16    2     -0.80      0.00
    0  -16    2     -0.94      0.00
    1  -16    2      0.32      0.00
    2  -16    2      0.22      0.00
    3  -16    2     -0.35      0.00
    4  -16    2      0.06      0.00
    5  -16    2     -0.09      0.00
    6  -16    2     -1.36      0.00
    7  -16    2     -0.76      0.00
    8  -16    2      1.44      0.00
    9  -16    2      1.61      0.00
   10  -16    2     -0.78      0.00
   -3  -15    2     -0.33      0.00
   -2  -15    2     -0.88      0.00
   -1  -15    2      0.93      0.00
    0  -15    2      2.34      0.00
    1  -15    2      0.89      0.00
    2  -15    2     -0.17      0.00
    3  -15    2      0.62      0.00
    4  -15    2      0.68      0.00
    5  -15    2      0.47      0.00
    6  -15    2      2.57      0.00
    7  -15    2      3.16      0.00
    8  -15    2      0.27      0.00
    9  -15    2     -1.59      0.00
   10  -15    2      0.07      0.00
   11  -15    2      1.17      0.00
   12  -15    2      0.02      0.00
   -4  -14    2     -0.62      0.00
   -3  -14    2      0.19      0.00
   -2  -14    2      1.95      0.00
   -1  -14    2      0.65      0.00
    0  -14    2     -2.04      0.00
    1  -14    2     -1.48      0.00
    2  -14    2     -0.10      0.00
    3  -14    2     -1.56      0.00
    4  -14    2     -3.11      0.00
    5  -14    2     -2.97      0.00
    6  -14    2     -3.84      0.00
    7  -14    2     -4.48      0.00
    8  -14    2     -2.50      0.00
    9  -14    2      0.28      0.00
   10  -14    2     -0.54      0.00
   12  -14    2     -3.01      0.00
   -6  -13    2      1.22      0.00
   -5  -13    2      0.24      0.00
   -4  -13    2     -0.19      0.00
   -3  -13    2     -0.80      0.00
   -2  -13    2     -3.24      0.00
   -1  -13    2     -3.52      0.00
    0  -13    2     -0.84      0.00
    1  -13    2      0.47      0.00
    2  -13    2     -0.64      0.00
    3  -13    2     -0.64      0.00
    4  -13    2      0.07      0.00
    5  -13    2     -1.27      0.00
    6  -13    2     -2.23      0.00
    7  -13    2     -0.88      0.00
    8  -13    2     -0.36      0.00
    9  -13    2     -1.95      0.00
   10  -13    2     -1.01      0.00
   11  -13    2      2.08      0.00
   12  -13    2      2.50      0.00
   13  -13    2      0.37      0.00
   -7  -12    2      0.74      0.00
   -6  -12    2      0.64      0.00
   -5  -12    2      2.11      0.00
   -4  -12    2      2.88      0.00
   -3  -12    2      2.45      0.00
   -2  -12    2      4.10      0.00
   -1  -12    2      5.22      0.00
    0  -12    2      1.78      0.00
    1  -12    2     -1.95      0.00
    2  -12    2     -0.26      0.00
    3  -12    2      2.34      0.00
    4  -12    2      2.07      0.00
    5  -12    2      2.16      0.00
    6  -12    2      3.26      0.00
    7  -12    2      2.32      0.00
    8  -12    2      0.49      0.00
    9  -12    2      1.52      0.00
   10  -12    2      3.30      0.00
   11  -12    2      2.69      0.00
   12  -12    2      1.45      0.00
   13  -12    2      1.89      0.00
   14  -12    2      2.28      0.00
   -8  -11    2     -1.12      0.00
   -7  -11    2     -1.25      0.00
   -6  -11    2     -0.92      0.00
   -5  -11    2     -2.75      0.00
   -4  -11    2     -4.28      0.00
   -3  -11    2     -3.06      0.00
   -2  -11    2     -2.44      0.00
   -1  -11    2     -3.00      0.00
    0  -11    2     -1.18      0.00
    1  -11    2      2.00      0.00
    2  -11    2      1.78      0.00
    3  -11    2      0.22      0.00
    4  -11    2      1.22      0.00
    5  -11    2      3.08      0.00
    6  -11    2      2.01      0.00
    7  -11    2      1.16      0.00
    8  -11    2      2.40      0.00
    9  -11    2      0.73      0.00
   10  -11    2     -3.42      0.00
   11  -11    2     -4.01      0.00
   12  -11    2     -1.04      0.00
   13  -11    2      0.07      0.00
   14  -11    2     -0.94      0.00
   -9  -10    2     -0.66      0.00
   -8  -10    2     -0.47      0.00
   -7  -10    2     -0.18      0.00
   -6  -10    2     -1.17      0.00
   -5  -10    2     -0.20      0.00
   -4  -10    2      1.52      0.00
   -3  -10    2     -0.31      0.00
   -2  -10    2     -3.08      0.00
   -1  -10    2     -2.14      0.00
    0  -10    2     -1.04      0.00
    1  -10    2     -5.31      0.00
    2  -10    2     -9.37      0.00
    3  -10    2     -7.67      0.00
    4  -10    2     -4.40      0.00
    5  -10    2     -3.75      0.00
    6  -10    2     -1.47      0.00
    7  -10    2      1.23      0.00
    8  -10    2      1.48      0.00
    9  -10    2      2.52      0.00
   10  -10    2      5.67      0.00
   11  -10    2      6.44      0.00
   12  -10    2      3.28      0.00
   13  -10    2      1.16      0.00
   14  -10    2      1.08      0.00
  -10   -9    2     -0.17      0.00
   -9   -9    2      0.40      0.00
   -8   -9    2     -0.49      0.00
   -7   -9    2     -1.03      0.00
   -6   -9    2      0.91      0.00
   -5   -9    2      1.55      0.00
   -4   -9    2     -0.47      0.00
   -3   -9    2     -0.70      0.00
   -2   -9    2      2.06      0.00
   -1   -9    2      3.41      0.00
    0   -9    2      3.92      0.00
    1   -9    2      9.55      0.00
    2   -9    2     15.80      0.00
    3   -9    2     14.18      0.00
    4   -9    2      6.93      0.00
    5   -9    2      3.72      0.00
    6   -9    2      2.57      0.00
    7   -9    2      0.21      0.00
    8   -9    2     -0.99      0.00
    9   -9    2     -0.81      0.00
   10   -9    2     -3.06      0.00
   11   -9    2     -5.99      0.00
   12   -9    2     -5.06      0.00
   13   -9    2     -2.65      0.00
   14   -9    2     -1.46      0.00
  -10   -8    2      2.60      0.00
   -9   -8    2      2.43      0.00
   -8   -8    2      2.67      0.00
   -7   -8    2      3.53      0.00
   -6   -8    2      2.36      0.00
   -5   -8    2      1.90      0.00
   -4   -8    2      5.75      0.00
   -3   -8    2      8.87      0.00
   -2   -8    2      5.73      0.00
   -1   -8    2      1.14      0.00
    0   -8    2      1.32      0.00
    1   -8    2     -0.18      0.00
    2   -8    2     -6.84      0.00
    3   -8    2     -9.48      0.00
    4   -8    2     -3.51      0.00
    5   -8    2     -0.93      0.00
    6   -8    2     -2.42      0.00
    7   -8    2     -2.20      0.00
    8   -8    2     -1.74      0.00
    9   -8    2     -2.91      0.00
   10   -8    2     -1.49      0.00
   11   -8    2      2.12      0.00
   12   -8    2      2.69      0.00
   13   -8    2      1.10      0.00
   14   -8    2      0.63      0.00
  -11   -7    2     -0.70      0.00
  -10   -7    2     -2.15      0.00
   -9   -7    2     -0.70      0.00
   -8   -7    2     -0.58      0.00
   -7   -7    2     -2.22      0.00
   -6   -7    2     -1.84      0.00
   -5   -7    2     -0.17      0.00
   -4   -7    2     -1.11      0.00
   -3   -7    2     -3.97      0.00
   -2   -7    2     -3.20      0.00
   -1   -7    2      0.70      0.00
    0   -7    2     -0.59      0.00
    1   -7    2     -2.09      0.00
    2   -7    2      4.26      0.00
    3   -7    2     10.93      0.00
    4   -7    2      6.46      0.00
    5   -7    2      0.19      0.00
    6   -7    2     -1.07      0.00
    7   -7    2     -0.26      0.00
    8   -7    2     -0.35      0.00
    9   -7    2      0.29      0.00
   10   -7    2      0.25      0.00
   11   -7    2     -2.01      0.00
   12   -7    2     -3.37      0.00
   13   -7    2     -2.55      0.00
   14   -7    2     -1.49      0.00
  -12   -6    2     -0.73      0.00
  -11   -6    2     -0.90      0.00
  -10   -6    2     -0.53      0.00
   -9   -6    2     -0.33      0.00
   -8   -6    2      0.41      0.00
   -7   -6    2      1.05      0.00
   -6   -6    2     -1.14      0.00
   -5   -6    2     -7.23      0.00
   -4   -6    2    -10.19      0.00
   -3   -6    2     -4.50      0.00
   -2   -6    2      0.90      0.00
   -1   -6    2     -2.62      0.00
    0   -6    2     -5.99      0.00
    1   -6    2     -6.04      0.00
    2   -6    2     -9.68      0.00
    3   -6    2    -16.03      0.00
    4   -6    2    -10.48      0.00
    5   -6    2      0.53      0.00
    6   -6    2      3.95      0.00
    7   -6    2      1.79      0.00
    8   -6    2      1.76      0.00
    9   -6    2      1.32      0.00
   10   -6    2     -0.33      0.00
   11   -6    2      0.56      0.00
   12   -6    2      2.81      0.00
   13   -6    2      2.81      0.00
   14   -6    2      1.47      0.00
  -13   -5    2     -2.36      0.00
  -12   -5    2     -0.89      0.00
  -11   -5    2      0.74      0.00
  -10   -5    2     -0.14      0.00
   -9   -5    2     -1.09      0.00
   -8   -5    2     -0.53      0.00
   -7   -5    2      0.69      0.00
   -6   -5    2      3.88      0.00
   -5   -5    2      9.48      0.00
   -4   -5    2     11.98      0.00
   -3   -5    2      6.07      0.00
   -2   -5    2     -0.90      0.00
   -1   -5    2      3.42      0.00
    0   -5    2     10.55      0.00
    1   -5    2      9.51      0.00
    2   -5    2      5.27      0.00
    3   -5    2      7.25      0.00
    4   -5    2      3.77      0.00
    5   -5    2     -4.45      0.00
    6   -5    2     -7.61      0.00
    7   -5    2     -5.62      0.00
    8   -5    2     -4.50      0.00
    9   -5    2     -2.99      0.00
   10   -5    2     -0.11      0.00
   11   -5    2      0.70      0.00
   13   -5    2     -1.30      0.00
   14   -5    2     -0.70      0.00
  -13   -4    2      2.62      0.00
  -12   -4    2      2.71      0.00
  -11   -4    2      2.16      0.00
  -10   -4    2      1.77      0.00
   -9   -4    2      1.60      0.00
   -8   -4    2      1.21      0.00
   -7   -4    2      0.72      0.00
   -6   -4    2      0.39      0.00
   -5   -4    2     -2.55      0.00
   -4   -4    2     -9.51      0.00
   -3   -4    2    -11.62      0.00
   -2   -4    2     -6.50      0.00
   -1   -4    2     -5.49      0.00
    0   -4    2     -7.97      0.00
    1   -4    2     -7.72      0.00
    2   -4    2     -4.37      0.00
    3   -4    2     -8.25      0.00
    4   -4    2    -10.06      0.00
    5   -4    2     -3.35      0.00
    6   -4    2      4.33      0.00
    7   -4    2      4.47      0.00
    8   -4    2      1.65      0.00
    9   -4    2     -0.03      0.00
   10   -4    2     -1.98      0.00
   11   -4    2     -3.19      0.00
   12   -4    2     -1.79      0.00
   13   -4    2     -0.19      0.00
   14   -4    2      1.01      0.00
  -14   -3    2      0.13      0.00
  -13   -3    2     -2.47      0.00
  -12   -3    2     -4.77      0.00
  -11   -3    2     -4.02      0.00
  -10   -3    2     -2.33      0.00
   -9   -3    2     -3.09      0.00
   -8   -3    2     -4.08      0.00
   -7   -3    2     -4.35      0.00
   -6   -3    2     -3.69      0.00
   -5   -3    2      1.41      0.00
   -4   -3    2     12.80      0.00
   -3   -3    2     19.47      0.00
   -2   -3    2     11.13      0.00
   -1   -3    2     -2.65      0.00
    0   -3    2     -5.48      0.00
    1   -3    2      3.66      0.00
    2   -3    2      7.16      0.00
    3   -3    2      9.92      0.00
    4   -3    2      9.94      0.00
    5   -3    2      2.38      0.00
    6   -3    2     -5.30      0.00
    7   -3    2     -3.40      0.00
    8   -3    2      1.80      0.00
    9   -3    2      3.60      0.00
   10   -3    2      4.38      0.00
   11   -3    2      5.41      0.00
   12   -3    2      3.72      0.00
   13   -3    2      0.76      0.00
   14   -3    2     -1.15      0.00
  -14   -2    2     -0.14      0.00
  -13   -2    2      2.82      0.00
  -12   -2    2      5.43      0.00
  -11   -2    2      5.15      0.00
  -10   -2    2      3.46      0.00
   -9   -2    2      2.97      0.00
   -8   -2    2      1.98      0.00
   -7   -2    2     -1.10      0.00
   -6   -2    2     -6.24      0.00
   -5   -2    2    -11.64      0.00
   -4   -2    2    -21.75      0.00
   -3   -2    2    -32.47      0.00
   -2   -2    2    -30.37      0.00
   -1   -2    2    -17.24      0.00
    0   -2    2     -9.51      0.00
    1   -2    2    -12.01      0.00
    2   -2    2     -6.45      0.00
    3   -2    2      0.74      0.00
    4   -2    2      4.21      0.00
    5   -2    2      6.11      0.00
    6   -2    2      7.99      0.00
    7   -2    2      5.62      0.00
    8   -2    2      1.45      0.00
    9   -2    2      0.23      0.00
   10   -2    2     -0.15      0.00
   11   -2    2     -1.79      0.00
   12   -2    2     -1.46      0.00
   13   -2    2      0.18      0.00
   14   -2    2      1.07      0.00
  -14   -1    2     -0.38      0.00
  -13   -1    2     -2.76      0.00
  -12   -1    2     -6.19      0.00
  -11   -1    2     -7.71      0.00
  -10   -1    2     -5.70      0.00
   -9   -1    2     -3.73      0.00
   -8   -1    2     -2.57      0.00
   -7   -1    2     -0.87      0.00
   -6   -1    2      0.86      0.00
   -5   -1    2      0.56      0.00
   -4   -1    2      7.39      0.00
   -3   -1    2     24.77      0.00
   -2   -1    2     35.75      0.00
    0   -1    2     -9.19      0.00
    1   -1    2    -18.70      0.00
    2   -1    2    -17.67      0.00
    3   -1    2    -14.56      0.00
    4   -1    2     -8.47      0.00
    5   -1    2     -1.56      0.00
    6   -1    2     -1.18      0.00
    7   -1    2     -2.00      0.00
    8   -1    2     -0.26      0.00
    9   -1    2      0.69      0.00
   10   -1    2      0.92      0.00
   11   -1    2      2.42      0.00
   12   -1    2      2.63      0.00
   13   -1    2      0.98      0.00
  -15    0    2     -1.31      0.00
  -14    0    2     -2.06      0.00
  -13    0    2     -1.52      0.00
  -12    0    2      0.65      0.00
  -11    0    2      1.80      0.00
  -10    0    2     -0.27      0.00
   -9    0    2     -1.88      0.00
   -8    0    2     -0.42      0.00
   -7    0    2      3.34      0.00
   -6    0    2      4.95      0.00
   -5    0    2      6.21      0.00
   -4    0    2      3.76      0.00
   -3    0    2     -4.81      0.00
   -2    0    2     -1.09      0.00
    0    0    2     76.42      0.00
    1    0    2     74.45      0.00
    2    0    2     50.45      0.00
    3    0    2     30.22      0.00
    4    0    2     16.96      0.00
    5    0    2      7.25      0.00
    6    0    2      4.34      0.00
    7    0    2      3.57      0.00
    8    0    2      0.75      0.00
    9    0    2     -1.77      0.00
   10    0    2     -2.46      0.00
   11    0    2     -3.34      0.00
   12    0    2     -2.95      0.00
   13    0    2     -0.63      0.00
  -15    1    2      1.69      0.00
  -14    1    2      2.71      0.00
  -13    1    2      3.74      0.00
  -12    1    2      3.48      0.00
  -11    1    2      2.52      0.00
  -10    1    2      4.29      0.00
   -9    1    2      7.83      0.00
   -8    1    2      9.26      0.00
   -7    1    2      9.29      0.00
   -6    1    2     14.63      0.00
   -5    1    2     18.79      0.00
   -4    1    2     15.48      0.00
   -3    1    2      7.93      0.00
   -2    1    2     -2.89      0.00
   -1    1    2    -25.64      0.00
    0    1    2    -49.36      0.00
    1    1    2    -46.52      0.00
    2    1    2    -29.98      0.00
    3    1    2    -19.21      0.00
    4    1    2    -16.06      0.00
    5    1    2    -10.51      0.00
    6    1    2     -6.01      0.00
    7    1    2     -4.70      0.00
    8    1    2     -3.60      0.00
    9    1    2     -2.55      0.00
   10    1    2     -2.45      0.00
   11    1    2     -1.80      0.00
   12    1    2     -1.69      0.00
   13    1    2     -2.10      0.00
  -15    2    2      0.92      0.00
  -14    2    2      1.64      0.00
  -13    2    2      1.45      0.00
  -12    2    2      2.21      0.00
  -11    2    2      4.74      0.00
  -10    2    2      4.07      0.00
   -9    2    2     -1.32      0.00
   -8    2    2     -7.39      0.00
   -7    2    2    -10.77      0.00
   -6    2    2    -15.15      0.00
   -5    2    2    -16.19      0.00
   -4    2    2     -9.89      0.00
   -3    2    2     -8.62      0.00
   -2    2    2    -24.64      0.00
   -1    2    2    -33.92      0.00
    0    2    2    -17.99      0.00
    1    2    2     -4.15      0.00
    2    2    2     -2.16      0.00
    3    2    2     -2.00      0.00
    4    2    2      0.38      0.00
    5    2    2     -1.79      0.00
    6    2    2     -3.94      0.00
    7    2    2     -2.30      0.00
    8    2    2      0.79      0.00
    9    2    2      2.32      0.00
   10    2    2      3.01      0.00
   11    2    2      3.36      0.00
   12    2    2      3.36      0.00
  -16    3    2      0.08      0.00
  -15    3    2     -1.02      0.00
  -14    3    2     -2.48      0.00
  -13    3    2     -2.44      0.00
  -12    3    2     -2.10      0.00
  -11    3    2     -3.35      0.00
  -10    3    2     -3.49      0.00
   -9    3    2      0.38      0.00
   -8    3    2      5.41      0.00
   -7    3    2      4.11      0.00
   -6    3    2      0.89      0.00
   -5    3    2      0.25      0.00
   -4    3    2      1.72      0.00
   -3    3    2     10.64      0.00
   -2    3    2     29.33      0.00
   -1    3    2     36.15      0.00
    0    3    2     18.44      0.00
    1    3    2      0.69      0.00
    2    3    2     -2.68      0.00
    3    3    2      2.44      0.00
    4    3    2      4.22      0.00
    5    3    2      5.00      0.00
    6    3    2      5.80      0.00
    7    3    2      4.37      0.00
    8    3    2      1.84      0.00
    9    3    2      0.95      0.00
   10    3    2     -0.09      0.00
   11    3    2     -1.24      0.00
   12    3    2     -1.44      0.00
  -16    4    2     -1.03      0.00
  -15    4    2     -0.40      0.00
  -14    4    2      1.21      0.00
  -13    4    2      0.93      0.00
  -12    4    2     -1.90      0.00
  -11    4    2     -3.08      0.00
  -10    4    2     -1.74      0.00
   -9    4    2     -1.64      0.00
   -8    4    2     -3.61      0.00
   -7    4    2     -2.29      0.00
   -6    4    2     -1.60      0.00
   -5    4    2     -6.39      0.00
   -4    4    2    -11.59      0.00
   -3    4    2    -11.21      0.00
   -2    4    2    -11.27      0.00
   -1    4    2    -13.10      0.00
    0    4    2     -5.65      0.00
    1    4    2      5.19      0.00
    2    4    2      6.82      0.00
    3    4    2      0.12      0.00
    4    4    2     -2.48      0.00
    5    4    2     -2.37      0.00
    6    4    2     -2.92      0.00
    7    4    2     -3.34      0.00
    8    4    2     -2.43      0.00
    9    4    2     -1.08      0.00
   10    4    2     -0.15      0.00
   11    4    2     -0.22      0.00
  -16    5    2      1.51      0.00
  -15    5    2      1.30      0.00
  -14    5    2     -0.24      0.00
  -13    5    2     -0.18      0.00
  -12    5    2      2.35      0.00
  -11    5    2      3.58      0.00
  -10    5    2      0.88      0.00
   -9    5    2     -3.13      0.00
   -8    5    2     -2.17      0.00
   -7    5    2      0.24      0.00
   -6    5    2      0.56      0.00
   -5    5    2      0.96      0.00
   -4    5    2     -0.42      0.00
   -3    5    2     -6.17      0.00
   -2    5    2     -7.20      0.00
   -1    5    2      1.59      0.00
    0    5    2      5.36      0.00
    1    5    2     -0.94      0.00
    2    5    2     -6.52      0.00
    3    5    2     -3.46      0.00
    4    5    2      0.38      0.00
    5    5    2      1.40      0.00
    6    5    2      2.30      0.00
    7    5    2      3.31      0.00
    8    5    2      2.14      0.00
    9    5    2      0.95      0.00
   10    5    2      1.30      0.00
   11    5    2      1.35      0.00
  -16    6    2     -0.54      0.00
  -15    6    2     -1.07      0.00
  -14    6    2     -0.48      0.00
  -13    6    2      0.64      0.00
  -12    6    2     -0.33      0.00
  -11    6    2     -2.88      0.00
  -10    6    2     -2.01      0.00
   -9    6    2      2.33      0.00
   -8    6    2      2.16      0.00
   -7    6    2      0.69      0.00
   -6    6    2      3.92      0.00
   -5    6    2      8.40      0.00
   -4    6    2      9.27      0.00
   -3    6    2      7.40      0.00
   -2    6    2      4.47      0.00
   -1    6    2     -2.85      0.00
    0    6    2     -7.32      0.00
    1    6    2     -1.57      0.00
    2    6    2      6.53      0.00
    3    6    2      5.26      0.00
    4    6    2      0.46      0.00
    5    6    2     -1.69      0.00
    6    6    2     -1.89      0.00
    7    6    2     -1.46      0.00
    8    6    2     -1.31      0.00
    9    6    2     -1.89      0.00
   10    6    2     -2.14      0.00
  -16    7    2     -0.05      0.00
  -15    7    2      0.94      0.00
  -14    7    2     -0.06      0.00
  -13    7    2     -2.63      0.00
  -12    7    2     -2.77      0.00
  -11    7    2      0.66      0.00
  -10    7    2      2.63      0.00
   -9    7    2     -0.64      0.00
   -8    7    2     -3.08      0.00
   -7    7    2     -2.94      0.00
   -6    7    2     -4.37      0.00
   -5    7    2     -6.65      0.00
   -4    7    2     -4.10      0.00
   -3    7    2      1.38      0.00
   -2    7    2      2.00      0.00
   -1    7    2      3.71      0.00
    0    7    2      7.22      0.00
    1    7    2      5.33      0.00
    2    7    2     -0.96      0.00
    3    7    2     -2.34      0.00
    4    7    2      0.58      0.00
    5    7    2      2.13      0.00
    6    7    2      0.55      0.00
    7    7    2     -0.64      0.00
    8    7    2     -0.02      0.00
    9    7    2     -0.07      0.00
  -16    8    2     -0.71      0.00
  -15    8    2     -1.69      0.00
  -14    8    2     -1.74      0.00
  -13    8    2     -0.13      0.00
  -12    8    2      1.34      0.00
  -11    8    2     -0.97      0.00
  -10    8    2     -4.29      0.00
   -9    8    2     -1.80      0.00
   -8    8    2      1.94      0.00
   -7    8    2      1.76      0.00
   -6    8    2      1.18      0.00
   -5    8    2      2.99      0.00
   -4    8    2      3.52      0.00
   -3    8    2      0.96      0.00
   -2    8    2      1.22      0.00
   -1    8    2      0.38      0.00
    0    8    2     -3.92      0.00
    1    8    2     -5.90      0.00
    2    8    2     -1.41      0.00
    3    8    2      2.28      0.00
    4    8    2      1.64      0.00
    5    8    2     -0.02      0.00
    6    8    2     -0.13      0.00
    7    8    2      0.01      0.00
    8    8    2     -0.25      0.00
  -16    9    2     -0.81      0.00
  -15    9    2      0.02      0.00
  -14    9    2      1.25      0.00
  -13    9    2      0.50      0.00
  -12    9    2     -1.66      0.00
  -11    9    2     -0.49      0.00
  -10    9    2      3.33      0.00
   -9    9    2      3.14      0.00
   -8    9    2     -0.53      0.00
   -7    9    2     -2.44      0.00
   -6    9    2     -2.09      0.00
   -5    9    2     -3.86      0.00
   -4    9    2     -6.04      0.00
   -3    9    2     -2.68      0.00
   -2    9    2      0.03      0.00
   -1    9    2      0.59      0.00
    0    9    2      2.32      0.00
    1    9    2      4.29      0.00
    2    9    2      1.64      0.00
    3    9    2     -2.41      0.00
    4    9    2     -3.24      0.00
    5    9    2     -0.63      0.00
    6    9    2      0.89      0.00
    7    9    2      0.69      0.00
  -15   10    2      0.68      0.00
  -14   10    2     -0.25      0.00
  -13   10    2     -0.05      0.00
  -12   10    2      2.55      0.00
  -11   10    2      3.82      0.00
  -10   10    2      1.32      0.00
   -9   10    2      0.14      0.00
   -8   10    2      4.00      0.00
   -7   10    2      8.21      0.00
   -6   10    2      8.68      0.00
   -5   10    2      8.53      0.00
   -4   10    2      8.24      0.00
   -3   10    2      4.18      0.00
   -2   10    2      1.48      0.00
   -1   10    2      1.33      0.00
    0   10    2      1.05      0.00
    1   10    2     -1.11      0.00
    2   10    2     -1.05      0.00
    3   10    2      1.33      0.00
    4   10    2      2.51      0.00
    5   10    2      0.90      0.00
    6   10    2      0.21      0.00
    7   10    2      0.45      0.00
  -15   11    2      1.11      0.00
  -14   11    2      3.12      0.00
  -13   11    2      4.42      0.00
  -12   11    2      2.27      0.00
  -11   11    2     -0.56      0.00
  -10   11    2      0.09      0.00
   -9   11    2      2.49      0.00
   -8   11    2      0.99      0.00
   -7   11    2     -3.16      0.00
   -6   11    2     -4.11      0.00
   -5   11    2     -2.87      0.00
   -4   11    2     -4.09      0.00
   -3   11    2     -4.79      0.00
   -2   11    2     -3.69      0.00
   -1   11    2     -2.12      0.00
    0   11    2     -1.82      0.00
    1   11    2     -0.20      0.00
    2   11    2      1.17      0.00
    3   11    2      0.52      0.00
    4   11    2     -1.27      0.00
    5   11    2     -0.91      0.00
  -15   12    2     -1.32      0.00
  -14   12    2     -3.09      0.00
  -13   12    2     -4.95      0.00
  -12   12    2     -4.30      0.00
  -11   12    2     -1.78      0.00
  -10   12    2     -1.56      0.00
   -9   12    2     -5.44      0.00
   -8   12    2     -7.04      0.00
   -7   12    2     -4.55      0.00
   -6   12    2     -3.06      0.00
   -5   12    2     -2.71      0.00
   -4   12    2     -0.27      0.00
   -3   12    2      0.86      0.00
   -2   12    2     -0.26      0.00
   -1   12    2     -1.66      0.00
    0   12    2     -1.10      0.00
    1   12    2     -1.21      0.00
    2   12    2     -2.26      0.00
    3   12    2     -2.23      0.00
    4   12    2     -0.25      0.00
  -14   13    2      0.78      0.00
  -13   13    2      2.20      0.00
  -12   13    2      2.27      0.00
  -11   13    2      0.52      0.00
  -10   13    2     -0.63      0.00
   -9   13    2      2.10      0.00
   -8   13    2      4.28      0.00
   -7   13    2      2.33      0.00
   -6   13    2     -0.94      0.00
   -5   13    2     -1.53      0.00
   -4   13    2     -0.49      0.00
   -3   13    2      0.25      0.00
   -2   13    2      0.04      0.00
   -1   13    2      0.47      0.00
    0   13    2      0.12      0.00
    1   13    2     -0.06      0.00
    2   13    2      0.83      0.00
    3   13    2      1.61      0.00
  -13   14    2     -0.72      0.00
  -12   14    2     -1.31      0.00
  -11   14    2     -0.75      0.00
  -10   14    2      1.41      0.00
   -9   14    2      1.01      0.00
   -8   14    2     -0.80      0.00
   -7   14    2     -0.41      0.00
   -6   14    2      1.46      0.00
   -5   14    2      1.26      0.00
   -4   14    2      0.31      0.00
   -3   14    2      0.69      0.00
   -2   14    2      1.96      0.00
   -1   14    2      1.59      0.00
    0   14    2      0.92      0.00
    1   14    2      1.02      0.00
    2   14    2      1.08      0.00
  -12   15    2      0.91      0.00
  -11   15    2      0.56      0.00
  -10   15    2     -1.95      0.00
   -9   15    2     -2.61      0.00
   -8   15    2      0.08      0.00
   -7   15    2      3.38      0.00
   -6   15    2      3.58      0.00
   -5   15    2      1.63      0.00
   -4   15    2     -0.05      0.00
   -3   15    2     -0.59      0.00
   -2   15    2     -1.04      0.00
   -1   15    2     -0.02      0.00
    0   15    2      1.07      0.00
  -11   16    2      0.95      0.00
  -10   16    2      2.12      0.00
   -9   16    2      2.34      0.00
   -8   16    2     -0.27      0.00
   -7   16    2     -3.87      0.00
   -6   16    2     -3.72      0.00
   -5   16    2     -0.62      0.00
   -4   16    2      1.62      0.00
   -3   16    2      1.54      0.00
    1  -17    3      1.39      0.00
    2  -17    3      2.40      0.00
    3  -17    3      1.91      0.00
    4  -17    3      0.48      0.00
    5  -17    3      0.91      0.00
    6  -17    3      2.59      0.00
    7  -17    3      1.90      0.00
    8  -17    3      0.04      0.00
   -1  -16    3     -1.06      0.00
    0  -16    3     -1.83      0.00
    1  -16    3     -0.93      0.00
    2  -16    3     -1.12      0.00
    3  -16    3     -1.16      0.00
    4  -16    3     -0.01      0.00
    5  -16    3     -0.63      0.00
    6  -16    3     -3.10      0.00
    7  -16    3     -2.03      0.00
    8  -16    3      1.16      0.00
    9  -16    3      1.54      0.00
   10  -16    3     -0.71      0.00
   -3  -15    3     -0.49      0.00
   -2  -15    3     -1.41      0.00
   -1  -15    3      0.58      0.00
    0  -15    3      2.15      0.00
    1  -15    3      0.70      0.00
    2  -15    3     -0.07      0.00
    3  -15    3      0.79      0.00
    4  -15    3      1.06      0.00
    5  -15    3      1.03      0.00
    6  -15    3      2.34      0.00
    7  -15    3      2.11      0.00
    8  -15    3     -0.39      0.00
    9  -15    3     -1.49      0.00
   10  -15    3      1.49      0.00
   11  -15    3      3.38      0.00
   -5  -14    3      0.75      0.00
   -4  -14    3      0.29      0.00
   -3  -14    3      0.55      0.00
   -2  -14    3      1.95      0.00
   -1  -14    3      0.46      0.00
    0  -14    3     -2.24      0.00
    1  -14    3     -1.78      0.00
    2  -14    3      0.15      0.00
    3  -14    3      0.05      0.00
    4  -14    3     -0.15      0.00
    5  -14    3      1.24      0.00
    6  -14    3      0.36      0.00
    7  -14    3     -1.49      0.00
    8  -14    3     -0.66      0.00
    9  -14    3      0.88      0.00
   10  -14    3     -0.88      0.00
   11  -14    3     -2.57      0.00
   12  -14    3     -1.25      0.00
   -6  -13    3     -0.99      0.00
   -5  -13    3     -1.86      0.00
   -4  -13    3     -1.72      0.00
   -3  -13    3     -1.70      0.00
   -2  -13    3     -4.01      0.00
   -1  -13    3     -3.60      0.00
    0  -13    3      0.57      0.00
    1  -13    3      1.80      0.00
    2  -13    3     -1.10      0.00
    3  -13    3     -2.06      0.00
    4  -13    3     -0.86      0.00
    5  -13    3     -0.84      0.00
    6  -13    3      0.09      0.00
    7  -13    3      2.47      0.00
    8  -13    3      2.86      0.00
    9  -13    3     -0.43      0.00
   10  -13    3     -2.23      0.00
   11  -13    3     -0.60      0.00
   12  -13    3      0.90      0.00
   13  -13    3      0.58      0.00
   -7  -12    3     -0.40      0.00
   -6  -12    3     -0.29      0.00
   -5  -12    3      1.53      0.00
   -4  -12    3      2.31      0.00
   -3  -12    3      2.13      0.00
   -2  -12    3      4.27      0.00
   -1  -12    3      5.61      0.00
    0  -12    3      3.39      0.00
    1  -12    3      1.50      0.00
    2  -12    3      3.27      0.00
    3  -12    3      4.37      0.00
    4  -12    3      2.41      0.00
    5  -12    3      1.16      0.00
    6  -12    3      1.28      0.00
    7  -12    3     -0.06      0.00
    8  -12    3     -0.61      0.00
    9  -12    3      3.08      0.00
   10  -12    3      5.42      0.00
   11  -12    3      2.57      0.00
   12  -12    3     -1.21      0.00
   13  -12    3     -1.46      0.00
   -8  -11    3      1.73      0.00
   -7  -11    3      2.11      0.00
   -6  -11    3      2.50      0.00
   -5  -11    3      1.18      0.00
   -4  -11    3      0.49      0.00
   -3  -11    3      2.00      0.00
   -2  -11    3      1.11      0.00
   -1  -11    3     -2.56      0.00
    0  -11    3     -2.41      0.00
    1  -11    3      2.02      0.00
    2  -11    3      2.51      0.00
    3  -11    3     -0.80      0.00
    4  -11    3     -2.15      0.00
    5  -11    3     -1.95      0.00
    6  -11    3     -3.10      0.00
    7  -11    3     -3.54      0.00
    8  -11    3     -2.88      0.00
    9  -11    3     -4.35      0.00
   10  -11    3     -6.56      0.00
   11  -11    3     -5.57      0.00
   12  -11    3     -2.24      0.00
   13  -11    3     -1.15      0.00
   -9  -10    3     -0.16      0.00
   -8  -10    3     -0.39      0.00
   -7  -10    3     -1.08      0.00
   -6  -10    3     -2.90      0.00
   -5  -10    3     -2.75      0.00
   -4  -10    3     -1.42      0.00
   -3  -10    3     -2.24      0.00
   -2  -10    3     -2.40      0.00
   -1  -10    3      0.29      0.00
    0  -10    3      0.35      0.00
    1  -10    3     -4.87      0.00
    2  -10    3     -7.59      0.00
    3  -10    3     -4.42      0.00
    4  -10    3     -1.17      0.00
    5  -10    3     -2.18      0.00
    6  -10    3     -2.73      0.00
    7  -10    3     -2.37      0.00
    8  -10    3     -3.87      0.00
    9  -10    3     -3.62      0.00
   10  -10    3      0.69      0.00
   11  -10    3      3.69      0.00
   12  -10    3      2.38      0.00
   13  -10    3      1.18      0.00
   14  -10    3      1.61      0.00
  -10   -9    3     -3.36      0.00
   -9   -9    3     -1.42      0.00
   -8   -9    3      0.05      0.00
   -7   -9    3      0.62      0.00
   -6   -9    3      1.74      0.00
   -5   -9    3      0.68      0.00
   -4   -9    3     -2.84      0.00
   -3   -9    3     -3.61      0.00
   -2   -9    3     -1.69      0.00
   -1   -9    3     -2.89      0.00
    0   -9    3     -6.20      0.00
    1   -9    3     -3.55      0.00
    2   -9    3      2.58      0.00
    3   -9    3      3.57      0.00
    4   -9    3      0.78      0.00
    5   -9    3      2.01      0.00
    6   -9    3      3.93      0.00
    7   -9    3      4.62      0.00
    8   -9    3      6.18      0.00
    9   -9    3      6.42      0.00
   10   -9    3      2.59      0.00
   11   -9    3     -1.29      0.00
   12   -9    3     -1.29      0.00
   13   -9    3     -0.71      0.00
   14   -9    3     -1.33      0.00
  -11   -8    3      1.00      0.00
  -10   -8    3      1.59      0.00
   -9   -8    3     -1.25      0.00
   -8   -8    3     -2.30      0.00
   -7   -8    3     -1.39      0.00
   -6   -8    3     -1.72      0.00
   -5   -8    3     -2.18      0.00
   -4   -8    3     -0.12      0.00
   -3   -8    3      1.71      0.00
   -2   -8    3      0.38      0.00
   -1   -8    3      0.24      0.00
    0   -8    3      3.85      0.00
    1   -8    3      2.38      0.00
    2   -8    3     -6.30      0.00
    3   -8    3    -11.72      0.00
    4   -8    3     -7.68      0.00
    5   -8    3     -3.77      0.00
    6   -8    3     -3.20      0.00
    7   -8    3     -3.02      0.00
    8   -8    3     -2.92      0.00
    9   -8    3     -3.84      0.00
   10   -8    3     -2.38      0.00
   11   -8    3      1.27      0.00
   12   -8    3      2.76      0.00
   13   -8    3      2.01      0.00
   14   -8    3      1.08      0.00
  -12   -7    3      2.14      0.00
  -11   -7    3      1.44      0.00
  -10   -7    3      0.09      0.00
   -9   -7    3      0.32      0.00
   -8   -7    3      0.08      0.00
   -7   -7    3     -0.80      0.00
   -6   -7    3      0.98      0.00
   -5   -7    3      4.41      0.00
   -4   -7    3      2.93      0.00
   -3   -7    3     -2.59      0.00
   -2   -7    3     -3.73      0.00
   -1   -7    3     -0.33      0.00
    0   -7    3     -0.72      0.00
    1   -7    3     -1.05      0.00
    2   -7    3      6.49      0.00
    3   -7    3     14.93      0.00
    4   -7    3     11.66      0.00
    5   -7    3      5.94      0.00
    6   -7    3      4.96      0.00
    7   -7    3      4.97      0.00
    8   -7    3      4.52      0.00
    9   -7    3      6.01      0.00
   10   -7    3      5.86      0.00
   11   -7    3      2.36      0.00
   12   -7    3     -0.24      0.00
   13   -7    3     -0.01      0.00
   14   -7    3      0.20      0.00
  -12   -6    3     -2.50      0.00
  -11   -6    3     -1.96      0.00
  -10   -6    3      0.52      0.00
   -9   -6    3      0.72      0.00
   -8   -6    3      0.16      0.00
   -7   -6    3      0.64      0.00
   -6   -6    3      0.22      0.00
   -5   -6    3     -1.37      0.00
   -4   -6    3     -0.23      0.00
   -3   -6    3      5.53      0.00
   -2   -6    3      8.79      0.00
   -1   -6    3      5.24      0.00
    0   -6    3      5.57      0.00
    1   -6    3     10.97      0.00
    2   -6    3      9.23      0.00
    3   -6    3     -1.18      0.00
    4   -6    3     -4.55      0.00
    5   -6    3     -2.07      0.00
    6   -6    3     -1.07      0.00
    7   -6    3     -2.10      0.00
    8   -6    3     -2.47      0.00
    9   -6    3     -3.47      0.00
   10   -6    3     -4.28      0.00
   11   -6    3     -2.96      0.00
   12   -6    3     -0.81      0.00
   13   -6    3     -0.18      0.00
   14   -6    3      0.27      0.00
  -13   -5    3      0.67      0.00
  -12   -5    3      0.78      0.00
  -11   -5    3      0.09      0.00
  -10   -5    3     -0.53      0.00
   -9   -5    3     -0.22      0.00
   -8   -5    3      0.12      0.00
   -7   -5    3     -1.44      0.00
   -6   -5    3     -3.57      0.00
   -5   -5    3     -1.27      0.00
   -4   -5    3      3.37      0.00
   -3   -5    3      0.41      0.00
   -2   -5    3     -7.06      0.00
   -1   -5    3     -8.70      0.00
    0   -5    3     -9.66      0.00
    1   -5    3    -14.03      0.00
    2   -5    3    -13.07      0.00
    3   -5    3      0.06      0.00
    4   -5    3      7.37      0.00
    5   -5    3      3.21      0.00
    6   -5    3     -1.10      0.00
    7   -5    3     -0.14      0.00
    8   -5    3      0.20      0.00
    9   -5    3      0.08      0.00
   10   -5    3      1.47      0.00
   11   -5    3      1.76      0.00
   12   -5    3     -0.50      0.00
   13   -5    3     -1.66      0.00
   14   -5    3     -1.40      0.00
  -13   -4    3      1.11      0.00
  -12   -4    3      2.47      0.00
  -11   -4    3      1.78      0.00
  -10   -4    3      1.30      0.00
   -9   -4    3      1.82      0.00
   -8   -4    3      1.52      0.00
   -7   -4    3      1.61      0.00
   -6   -4    3      0.98      0.00
   -5   -4    3     -3.69      0.00
   -4   -4    3    -10.26      0.00
   -3   -4    3     -7.74      0.00
   -2   -4    3      3.77      0.00
   -1   -4    3      9.17      0.00
    0   -4    3      5.14      0.00
    1   -4    3      1.76      0.00
    2   -4    3      1.82      0.00
    3   -4    3     -5.34      0.00
    4   -4    3     -9.14      0.00
    5   -4    3     -4.39      0.00
    6   -4    3      0.27      0.00
    7   -4    3      0.17      0.00
    8   -4    3      0.48      0.00
    9   -4    3      1.26      0.00
   10   -4    3      0.01      0.00
   11   -4    3     -1.04      0.00
   12   -4    3      0.73      0.00
   13   -4    3      1.59      0.00
   14   -4    3      0.99      0.00
  -14   -3    3      0.93      0.00
  -13   -3    3     -1.74      0.00
  -12   -3    3     -3.61      0.00
  -11   -3    3     -3.41      0.00
  -10   -3    3     -2.46      0.00
   -9   -3    3     -2.36      0.00
   -8   -3    3     -1.02      0.00
   -7   -3    3      1.38      0.00
   -6   -3    3      2.33      0.00
   -5   -3    3      2.12      0.00
   -3   -3    3      9.07      0.00
   -2   -3    3      6.05      0.00
   -1   -3    3      5.74      0.00
    1   -3    3     12.32      0.00
    2   -3    3      5.28      0.00
    3   -3    3      4.81      0.00
    4   -3    3      9.76      0.00
    5   -3    3     10.65      0.00
    6   -3    3      5.56      0.00
    7   -3    3      1.54      0.00
    8   -3    3     -0.74      0.00
    9   -3    3     -2.41      0.00
   10   -3    3     -1.61      0.00
   11   -3    3      0.75      0.00
   12   -3    3      0.80      0.00
   13   -3    3      0.18      0.00
  -14   -2    3     -2.01      0.00
  -13   -2    3     -0.38      0.00
  -12   -2    3      2.70      0.00
  -11   -2    3      3.79      0.00
  -10   -2    3      2.82      0.00
   -9   -2    3      4.07      0.00
   -8   -2    3      6.08      0.00
   -7   -2    3      8.87      0.00
   -6   -2    3     14.71      0.00
   -5   -2    3     21.84      0.00
   -4   -2    3     19.88      0.00
   -3   -2    3     10.08      0.00
   -2   -2    3      4.41      0.00
   -1   -2    3      9.87      0.00
    0   -2    3     15.81      0.00
    1   -2    3     12.55      0.00
    2   -2    3     10.58      0.00
    3   -2    3      3.36      0.00
    4   -2    3     -8.58      0.00
    5   -2    3    -13.35      0.00
    6   -2    3     -7.19      0.00
    7   -2    3     -1.63      0.00
    8   -2    3     -0.24      0.00
    9   -2    3      0.02      0.00
   10   -2    3     -1.31      0.00
   11   -2    3     -4.40      0.00
   12   -2    3     -4.80      0.00
   13   -2    3     -2.78      0.00
  -15   -1    3      1.70      0.00
  -14   -1    3      4.56      0.00
  -13   -1    3      4.95      0.00
  -12   -1    3      2.67      0.00
  -11   -1    3      1.28      0.00
  -10   -1    3      1.57      0.00
   -9   -1    3     -0.94      0.00
   -8   -1    3     -6.14      0.00
   -7   -1    3    -11.71      0.00
   -6   -1    3    -15.76      0.00
   -5   -1    3    -21.05      0.00
   -4   -1    3    -20.84      0.00
   -3   -1    3    -13.62      0.00
   -2   -1    3    -12.18      0.00
   -1   -1    3    -25.01      0.00
    0   -1    3    -34.30      0.00
    1   -1    3    -26.16      0.00
    2   -1    3    -18.30      0.00
    3   -1    3    -12.58      0.00
    4   -1    3     -6.38      0.00
    5   -1    3     -2.48      0.00
    6   -1    3     -4.70      0.00
    7   -1    3     -6.56      0.00
    8   -1    3     -4.87      0.00
    9   -1    3     -2.72      0.00
   10   -1    3     -0.76      0.00
   11   -1    3      2.29      0.00
   12   -1    3      3.21      0.00
   13   -1    3      2.11      0.00
  -15    0    3     -0.43      0.00
  -14    0    3     -2.96      0.00
  -13    0    3     -4.25      0.00
  -12    0    3     -2.58      0.00
  -11    0    3     -0.26      0.00
  -10    0    3     -0.77      0.00
   -9    0    3     -1.23      0.00
   -8    0    3     -0.68      0.00
   -7    0    3     -2.13      0.00
   -6    0    3     -6.77      0.00
   -5    0    3     -6.90      0.00
   -4    0    3     -6.70      0.00
   -3    0    3    -15.87      0.00
   -2    0    3    -32.82      0.00
   -1    0    3    -37.70      0.00
    0    0    3    -27.77      0.00
    1    0    3    -21.05      0.00
    2    0    3    -12.40      0.00
    3    0    3     -0.51      0.00
    4    0    3      6.23      0.00
    5    0    3      4.40      0.00
    6    0    3      4.38      0.00
    7    0    3      6.62      0.00
    8    0    3      7.01      0.00
    9    0    3      6.49      0.00
   10    0    3      5.91      0.00
   11    0    3      3.53      0.00
   12    0    3      1.18      0.00
  -15    1    3     -1.47      0.00
  -14    1    3     -0.59      0.00
  -13    1    3      0.68      0.00
  -12    1    3     -0.64      0.00
  -11    1    3     -3.90      0.00
  -10    1    3     -3.98      0.00
   -9    1    3     -1.21      0.00
   -8    1    3      1.75      0.00
   -7    1    3      3.12      0.00
   -6    1    3      5.33      0.00
   -5    1    3      5.21      0.00
   -4    1    3      8.14      0.00
   -3    1    3     28.32      0.00
   -2    1    3     61.83      0.00
   -1    1    3     72.17      0.00
    0    1    3     51.77      0.00
    1    1    3     32.54      0.00
    2    1    3     19.40      0.00
    3    1    3      8.08      0.00
    4    1    3      1.99      0.00
    5    1    3      3.52      0.00
    6    1    3      3.40      0.00
    7    1    3     -0.08      0.00
    8    1    3     -2.75      0.00
    9    1    3     -3.47      0.00
   10    1    3     -3.80      0.00
   11    1    3     -2.48      0.00
   12    1    3     -0.68      0.00
  -16    2    3     -0.22      0.00
  -15    2    3      0.18      0.00
  -14    2    3     -0.39      0.00
  -13    2    3     -2.88      0.00
  -12    2    3     -4.06      0.00
  -11    2    3     -1.58      0.00
  -10    2    3      0.25      0.00
   -9    2    3     -1.06      0.00
   -8    2    3     -1.58      0.00
   -7    2    3      1.87      0.00
   -6    2    3      1.31      0.00
   -5    2    3     -3.94      0.00
   -4    2    3    -11.36      0.00
   -3    2    3    -23.16      0.00
   -2    2    3    -37.36      0.00
   -1    2    3    -35.22      0.00
    0    2    3    -14.87      0.00
    1    2    3     -0.95      0.00
    2    2    3      1.06      0.00
    3    2    3      0.45      0.00
    4    2    3      2.64      0.00
    5    2    3      1.70      0.00
    6    2    3      0.09      0.00
    7    2    3      0.84      0.00
    8    2    3      1.86      0.00
    9    2    3      1.49      0.00
   10    2    3      1.07      0.00
   11    2    3     -0.06      0.00
   12    2    3     -0.61      0.00
  -16    3    3      1.03      0.00
  -15    3    3      0.32      0.00
  -14    3    3     -0.49      0.00
  -13    3    3      1.36      0.00
  -12    3    3      3.50      0.00
  -11    3    3      0.90      0.00
  -10    3    3     -3.47      0.00
   -9    3    3     -5.13      0.00
   -8    3    3     -4.56      0.00
   -7    3    3     -4.01      0.00
   -6    3    3      1.92      0.00
   -5    3    3     11.06      0.00
   -4    3    3     13.04      0.00
   -3    3    3      7.61      0.00
   -2    3    3      9.55      0.00
   -1    3    3     14.41      0.00
    0    3    3      7.99      0.00
    1    3    3      0.61      0.00
    2    3    3      0.58      0.00
    3    3    3      1.73      0.00
    4    3    3     -1.43      0.00
    5    3    3     -2.27      0.00
    6    3    3     -0.70      0.00
    7    3    3     -0.21      0.00
    8    3    3     -1.26      0.00
    9    3    3     -1.11      0.00
   10    3    3      0.11      0.00
   11    3    3      1.14      0.00
  -16    4    3     -2.07      0.00
  -15    4    3     -1.11      0.00
  -14    4    3      1.29      0.00
  -13    4    3      1.97      0.00
  -12    4    3      1.43      0.00
  -11    4    3      3.81      0.00
  -10    4    3      8.86      0.00
   -9    4    3     11.54      0.00
   -8    4    3      8.28      0.00
   -7    4    3      5.37      0.00
   -6    4    3      3.81      0.00
   -5    4    3      2.27      0.00
   -4    4    3      4.40      0.00
   -3    4    3      7.13      0.00
   -2    4    3     -1.36      0.00
   -1    4    3    -15.13      0.00
    0    4    3    -16.68      0.00
    1    4    3     -8.76      0.00
    2    4    3     -3.43      0.00
    3    4    3     -4.10      0.00
    4    4    3     -3.43      0.00
    5    4    3     -2.06      0.00
    6    4    3     -2.24      0.00
    7    4    3     -2.15      0.00
    8    4    3     -1.06      0.00
    9    4    3     -1.77      0.00
   10    4    3     -2.83      0.00
   11    4    3     -2.59      0.00
  -16    5    3      2.93      0.00
  -15    5    3      2.68      0.00
  -14    5    3     -0.49      0.00
  -13    5    3     -3.61      0.00
  -12    5    3     -3.00      0.00
  -11    5    3     -1.69      0.00
  -10    5    3     -3.51      0.00
   -9    5    3     -5.54      0.00
   -8    5    3     -3.71      0.00
   -7    5    3     -4.20      0.00
   -6    5    3     -7.57      0.00
   -5    5    3     -7.53      0.00
   -4    5    3     -3.43      0.00
   -3    5    3      0.34      0.00
   -2    5    3      4.84      0.00
   -1    5    3     12.19      0.00
    0    5    3     12.46      0.00
    1    5    3      3.30      0.00
    2    5    3     -3.07      0.00
    3    5    3     -0.41      0.00
    4    5    3      1.78      0.00
    5    5    3      0.84      0.00
    6    5    3     -0.26      0.00
    7    5    3     -0.23      0.00
    8    5    3      0.37      0.00
    9    5    3      1.33      0.00
   10    5    3      1.94      0.00
  -16    6    3     -2.92      0.00
  -15    6    3     -2.86      0.00
  -14    6    3      0.61      0.00
  -13    6    3      4.26      0.00
  -12    6    3      3.60      0.00
  -11    6    3      0.05      0.00
  -10    6    3     -0.95      0.00
   -9    6    3      2.48      0.00
   -8    6    3      3.92      0.00
   -7    6    3      3.42      0.00
   -6    6    3      3.65      0.00
   -5    6    3      1.96      0.00
   -4    6    3     -1.97      0.00
   -3    6    3     -2.30      0.00
   -2    6    3      1.02      0.00
   -1    6    3     -0.61      0.00
    0    6    3     -2.67      0.00
    1    6    3      1.44      0.00
    2    6    3      6.65      0.00
    3    6    3      5.44      0.00
    4    6    3      2.46      0.00
    5    6    3      2.24      0.00
    6    6    3      3.01      0.00
    7    6    3      2.40      0.00
    8    6    3      2.07      0.00
    9    6    3      2.09      0.00
  -16    7    3      1.20      0.00
  -15    7    3      2.09      0.00
  -14    7    3      1.39      0.00
  -13    7    3     -1.32      0.00
  -12    7    3     -2.17      0.00
  -11    7    3      1.70      0.00
  -10    7    3      4.31      0.00
   -9    7    3      0.79      0.00
   -8    7    3     -0.62      0.00
   -7    7    3      2.05      0.00
   -6    7    3      2.88      0.00
   -5    7    3      0.71      0.00
   -4    7    3     -1.34      0.00
   -3    7    3     -2.60      0.00
   -2    7    3     -5.42      0.00
   -1    7    3     -3.67      0.00
    0    7    3      1.22      0.00
    1    7    3      0.71      0.00
    2    7    3     -4.99      0.00
    3    7    3     -6.24      0.00
    4    7    3     -3.51      0.00
    5    7    3     -1.29      0.00
    6    7    3     -0.63      0.00
    7    7    3     -0.53      0.00
    8    7    3     -0.53      0.00
  -16    8    3      1.25      0.00
  -15    8    3     -0.46      0.00
  -14    8    3     -0.95      0.00
  -13    8    3      1.69      0.00
  -12    8    3      3.38      0.00
  -11    8    3     -0.22      0.00
  -10    8    3     -4.82      0.00
   -9    8    3     -4.06      0.00
   -8    8    3     -2.36      0.00
   -7    8    3     -3.45      0.00
   -6    8    3     -3.78      0.00
   -5    8    3     -0.43      0.00
   -4    8    3      1.51      0.00
   -3    8    3     -1.31      0.00
   -2    8    3     -1.82      0.00
   -1    8    3     -2.63      0.00
    0    8    3     -5.34      0.00
    1    8    3     -5.20      0.00
    2    8    3     -0.43      0.00
    3    8    3      2.38      0.00
    4    8    3      1.24      0.00
    5    8    3     -0.77      0.00
    6    8    3     -0.22      0.00
    7    8    3      0.54      0.00
    8    8    3     -0.46      0.00
  -16    9    3     -0.47      0.00
  -15    9    3      0.10      0.00
  -14    9    3      0.39      0.00
  -13    9    3     -1.26      0.00
  -12    9    3     -3.94      0.00
  -11    9    3     -2.69      0.00
  -10    9    3      1.90      0.00
   -9    9    3      2.39      0.00
   -8    9    3     -0.77      0.00
   -7    9    3     -2.03      0.00
   -6    9    3     -1.44      0.00
   -5    9    3     -2.31      0.00
   -4    9    3     -3.00      0.00
   -3    9    3     -0.59      0.00
   -2    9    3     -0.32      0.00
   -1    9    3     -0.88      0.00
    0    9    3      0.25      0.00
    1    9    3      2.30      0.00
    2    9    3      1.01      0.00
    3    9    3     -1.26      0.00
    4    9    3     -1.79      0.00
    5    9    3     -1.19      0.00
    6    9    3     -1.92      0.00
    7    9    3     -2.12      0.00
  -16   10    3      0.04      0.00
  -15   10    3     -0.27      0.00
  -14   10    3     -1.95      0.00
  -13   10    3     -2.27      0.00
  -12   10    3      0.15      0.00
  -11   10    3      0.61      0.00
  -10   10    3     -2.80      0.00
   -9   10    3     -4.75      0.00
   -8   10    3     -2.19      0.00
   -7   10    3      0.48      0.00
   -6   10    3     -0.52      0.00
   -5   10    3     -0.65      0.00
   -4   10    3      2.89      0.00
   -3   10    3      4.36      0.00
   -2   10    3      4.97      0.00
   -1   10    3      5.50      0.00
    0   10    3      4.59      0.00
    1   10    3      1.21      0.00
    2   10    3     -0.15      0.00
    3   10    3      0.96      0.00
    4   10    3      2.19      0.00
    5   10    3      1.11      0.00
    6   10    3      0.47      0.00
  -15   11    3     -0.22      0.00
  -14   11    3      1.27      0.00
  -13   11    3      2.78      0.00
  -12   11    3      1.73      0.00
  -11   11    3      0.46      0.00
  -10   11    3      2.78      0.00
   -9   11    3      6.40      0.00
   -8   11    3      5.59      0.00
   -7   11    3      2.64      0.00
   -6   11    3      2.26      0.00
   -5   11    3      1.70      0.00
   -4   11    3     -1.17      0.00
   -3   11    3     -2.18      0.00
   -2   11    3     -2.36      0.00
   -1   11    3     -2.31      0.00
    0   11    3     -2.36      0.00
    1   11    3     -0.66      0.00
    2   11    3      0.89      0.00
    3   11    3      0.92      0.00
    4   11    3      0.04      0.00
    5   11    3      0.85      0.00
  -15   12    3      0.45      0.00
  -14   12    3     -0.57      0.00
  -13   12    3     -2.40      0.00
  -12   12    3     -2.06      0.00
  -11   12    3     -0.23      0.00
  -10   12    3     -0.61      0.00
   -9   12    3     -4.23      0.00
   -8   12    3     -5.13      0.00
   -7   12    3     -1.53      0.00
   -6   12    3      1.30      0.00
   -5   12    3      1.09      0.00
   -4   12    3      1.32      0.00
   -3   12    3      1.84      0.00
   -2   12    3      1.70      0.00
   -1   12    3      1.04      0.00
    0   12    3      2.01      0.00
    1   12    3      1.89      0.00
    2   12    3      0.13      0.00
    3   12    3     -1.42      0.00
    4   12    3     -0.88      0.00
  -14   13    3     -0.08      0.00
  -13   13    3      1.36      0.00
  -12   13    3      1.92      0.00
  -11   13    3      0.32      0.00
  -10   13    3     -1.00      0.00
   -9   13    3      1.84      0.00
   -8   13    3      3.91      0.00
   -7   13    3      1.99      0.00
   -6   13    3      0.16      0.00
   -5   13    3      0.18      0.00
   -4   13    3     -0.92      0.00
   -3   13    3     -2.01      0.00
   -2   13    3     -2.24      0.00
   -1   13    3     -1.70      0.00
    0   13    3     -2.23      0.00
    1   13    3     -2.45      0.00
    2   13    3     -1.18      0.00
  -13   14    3     -0.20      0.00
  -12   14    3     -0.71      0.00
  -11   14    3      0.25      0.00
  -10   14    3      1.99      0.00
   -9   14    3      0.59      0.00
   -8   14    3     -2.21      0.00
   -7   14    3     -3.37      0.00
   -6   14    3     -2.32      0.00
   -5   14    3     -0.98      0.00
   -4   14    3     -0.01      0.00
   -3   14    3      0.52      0.00
   -2   14    3      1.09      0.00
   -1   14    3      0.44      0.00
    0   14    3      0.32      0.00
    1   14    3      0.79      0.00
  -12   15    3      0.12      0.00
  -11   15    3      0.85      0.00
  -10   15    3     -0.12      0.00
   -9   15    3     -0.43      0.00
   -8   15    3      0.75      0.00
   -7   15    3      1.67      0.00
   -6   15    3      1.20      0.00
   -5   15    3      1.09      0.00
   -4   15    3      1.23      0.00
   -3   15    3      1.12      0.00
   -2   15    3      0.11      0.00
   -1   15    3     -0.27      0.00
  -10   16    3     -1.09      0.00
   -9   16    3      1.23      0.00
   -8   16    3      2.59      0.00
   -7   16    3      1.35      0.00
   -6   16    3     -0.56      0.00
   -5   16    3     -1.61      0.00
   -4   16    3     -1.80      0.00
    1  -17    4     -0.02      0.00
    2  -17    4      0.55      0.00
    3  -17    4      0.06      0.00
    4  -17    4     -1.00      0.00
    5  -17    4      0.14      0.00
    6  -17    4      1.37      0.00
    7  -17    4     -0.37      0.00
    8  -17    4     -1.68      0.00
   -2  -16    4      1.04      0.00
   -1  -16    4     -1.30      0.00
    0  -16    4     -1.76      0.00
    1  -16    4     -0.30      0.00
    2  -16    4     -0.07      0.00
    3  -16    4      0.32      0.00
    4  -16    4      1.58      0.00
    5  -16    4      1.48      0.00
    6  -16    4     -0.64      0.00
    7  -16    4     -0.70      0.00
    8  -16    4      1.45      0.00
    9  -16    4      1.84      0.00
   10  -16    4     -0.74      0.00
   -4  -15    4     -1.24      0.00
   -3  -15    4     -1.93      0.00
   -2  -15    4     -2.29      0.00
   -1  -15    4      0.59      0.00
    0  -15    4      3.14      0.00
    1  -15    4      2.19      0.00
    2  -15    4      0.74      0.00
    3  -15    4      0.04      0.00
    4  -15    4     -1.55      0.00
    5  -15    4     -2.00      0.00
    6  -15    4      1.42      0.00
    7  -15    4      3.22      0.00
    8  -15    4      1.01      0.00
    9  -15    4     -1.03      0.00
   10  -15    4      0.41      0.00
   11  -15    4      1.63      0.00
   -5  -14    4      0.53      0.00
   -4  -14    4      0.57      0.00
   -3  -14    4      1.59      0.00
   -2  -14    4      3.97      0.00
   -1  -14    4      2.04      0.00
    0  -14    4     -1.73      0.00
    1  -14    4     -1.51      0.00
    2  -14    4      0.64      0.00
    3  -14    4      0.86      0.00
    4  -14    4      0.40      0.00
    5  -14    4      0.08      0.00
    6  -14    4     -2.66      0.00
    7  -14    4     -5.41      0.00
    8  -14    4     -4.22      0.00
    9  -14    4     -0.40      0.00
   10  -14    4     -0.52      0.00
   11  -14    4     -2.97      0.00
   12  -14    4     -3.09      0.00
   -6  -13    4      0.33      0.00
   -5  -13    4     -0.88      0.00
   -4  -13    4     -0.91      0.00
   -3  -13    4     -1.82      0.00
   -2  -13    4     -5.60      0.00
   -1  -13    4     -6.79      0.00
    0  -13    4     -4.36      0.00
    1  -13    4     -3.34      0.00
    2  -13    4     -5.19      0.00
    3  -13    4     -5.28      0.00
    4  -13    4     -3.54      0.00
    5  -13    4     -3.49      0.00
    6  -13    4     -2.37      0.00
    7  -13    4      0.61      0.00
    8  -13    4      0.95      0.00
    9  -13    4     -1.90      0.00
   10  -13    4     -1.75      0.00
   11  -13    4      0.80      0.00
   12  -13    4      1.65      0.00
   -8  -12    4     -1.00      0.00
   -7  -12    4     -0.93      0.00
   -6  -12    4     -0.54      0.00
   -5  -12    4      0.71      0.00
   -4  -12    4      0.67      0.00
   -3  -12    4      0.34      0.00
   -2  -12    4      4.33      0.00
   -1  -12    4      7.99      0.00
    0  -12    4      5.32      0.00
    1  -12    4      1.30      0.00
    2  -12    4      2.72      0.00
    3  -12    4      5.15      0.00
    4  -12    4      4.98      0.00
    5  -12    4      4.92      0.00
    6  -12    4      4.80      0.00
    7  -12    4      2.50      0.00
    8  -12    4      0.11      0.00
    9  -12    4      1.69      0.00
   10  -12    4      4.29      0.00
   11  -12    4      4.27      0.00
   12  -12    4      2.82      0.00
   13  -12    4      2.38      0.00
   -9  -11    4     -0.31      0.00
   -8  -11    4     -0.01      0.00
   -7  -11    4      1.04      0.00
   -6  -11    4      1.60      0.00
   -5  -11    4     -0.09      0.00
   -4  -11    4     -0.98      0.00
   -3  -11    4      0.03      0.00
   -2  -11    4     -1.83      0.00
   -1  -11    4     -4.95      0.00
    0  -11    4     -3.24      0.00
    1  -11    4      1.48      0.00
    2  -11    4      1.61      0.00
    3  -11    4     -1.26      0.00
    4  -11    4     -1.27      0.00
    5  -11    4      0.67      0.00
    6  -11    4      1.37      0.00
    7  -11    4      3.59      0.00
    8  -11    4      6.75      0.00
    9  -11    4      4.61      0.00
   10  -11    4     -0.87      0.00
   11  -11    4     -3.33      0.00
   12  -11    4     -2.11      0.00
   13  -11    4     -1.37      0.00
  -10  -10    4      2.08      0.00
   -9  -10    4     -0.06      0.00
   -8  -10    4     -2.02      0.00
   -7  -10    4     -2.91      0.00
   -6  -10    4     -2.45      0.00
   -5  -10    4      0.33      0.00
   -4  -10    4      2.31      0.00
   -3  -10    4      0.04      0.00
   -2  -10    4     -1.32      0.00
   -1  -10    4      2.86      0.00
    0  -10    4      6.08      0.00
    1  -10    4      2.07      0.00
    2  -10    4     -2.04      0.00
    3  -10    4     -1.35      0.00
    4  -10    4     -0.24      0.00
    5  -10    4     -1.42      0.00
    6  -10    4     -1.82      0.00
    7  -10    4     -2.72      0.00
    8  -10    4     -4.85      0.00
    9  -10    4     -4.20      0.00
   10  -10    4     -0.04      0.00
   11  -10    4      2.78      0.00
   12  -10    4      1.85      0.00
   13  -10    4      0.98      0.00
  -10   -9    4     -1.57      0.00
   -9   -9    4      0.79      0.00
   -8   -9    4      1.58      0.00
   -7   -9    4      1.03      0.00
   -6   -9    4      1.04      0.00
   -5   -9    4      0.41      0.00
   -4   -9    4     -0.81      0.00
   -3   -9    4      0.87      0.00
   -2   -9    4      2.68      0.00
   -1   -9    4     -1.03      0.00
    0   -9    4     -5.09      0.00
    1   -9    4     -0.43      0.00
    2   -9    4      7.85      0.00
    3   -9    4      9.63      0.00
    4   -9    4      5.17      0.00
    5   -9    4      2.72      0.00
    6   -9    4      1.59      0.00
    7   -9    4      0.53      0.00
    8   -9    4      1.89      0.00
    9   -9    4      3.42      0.00
   10   -9    4      0.81      0.00
   11   -9    4     -2.64      0.00
   12   -9    4     -2.45      0.00
   13   -9    4     -0.93      0.00
  -11   -8    4      0.00      0.00
  -10   -8    4      2.82      0.00
   -9   -8    4      3.03      0.00
   -8   -8    4      3.25      0.00
   -7   -8    4      3.61      0.00
   -6   -8    4      2.25      0.00
   -5   -8    4      1.70      0.00
   -4   -8    4      4.77      0.00
   -2   -8    4      5.16      0.00
   -1   -8    4      4.54      0.00
    0   -8    4      7.21      0.00
    1   -8    4      4.96      0.00
    2   -8    4     -3.72      0.00
    3   -8    4     -8.58      0.00
    4   -8    4     -5.39      0.00
    5   -8    4     -3.59      0.00
    6   -8    4     -3.85      0.00
    7   -8    4     -3.84      0.00
    8   -8    4     -5.05      0.00
    9   -8    4     -6.59      0.00
   10   -8    4     -4.65      0.00
   11   -8    4     -1.21      0.00
   12   -8    4     -0.38      0.00
   13   -8    4     -0.77      0.00
  -12   -7    4      4.04      0.00
  -11   -7    4      1.37      0.00
  -10   -7    4     -1.87      0.00
   -9   -7    4     -1.15      0.00
   -8   -7    4     -0.13      0.00
   -7   -7    4     -0.91      0.00
   -6   -7    4     -1.80      0.00
   -5   -7    4     -2.64      0.00
   -4   -7    4     -5.65      0.00
   -3   -7    4     -9.09      0.00
   -2   -7    4     -7.79      0.00
   -1   -7    4     -5.06      0.00
    0   -7    4     -8.76      0.00
    1   -7    4    -13.09      0.00
    2   -7    4     -8.51      0.00
    3   -7    4      0.51      0.00
    4   -7    4      2.51      0.00
    5   -7    4      1.38      0.00
    6   -7    4      1.59      0.00
    7   -7    4      2.06      0.00
    8   -7    4      1.89      0.00
    9   -7    4      2.91      0.00
   10   -7    4      3.08      0.00
   11   -7    4      1.20      0.00
   12   -7    4     -0.48      0.00
   13   -7    4     -0.56      0.00
  -13   -6    4     -1.44      0.00
  -12   -6    4     -2.38      0.00
  -11   -6    4     -1.48      0.00
  -10   -6    4     -0.56      0.00
   -9   -6    4     -1.58      0.00
   -8   -6    4     -2.42      0.00
   -7   -6    4     -0.69      0.00
   -6   -6    4      0.84      0.00
   -5   -6    4     -1.02      0.00
   -4   -6    4     -2.03      0.00
   -3   -6    4      1.75      0.00
   -2   -6    4      3.87      0.00
   -1   -6    4      1.61      0.00
    0   -6    4      3.65      0.00
    1   -6    4      9.68      0.00
    2   -6    4      7.38      0.00
    3   -6    4     -3.98      0.00
    4   -6    4     -6.98      0.00
    5   -6    4     -2.34      0.00
    6   -6    4      0.75      0.00
    7   -6    4      1.62      0.00
    8   -6    4      2.36      0.00
    9   -6    4      0.68      0.00
   10   -6    4     -1.19      0.00
   11   -6    4     -0.03      0.00
   12   -6    4      2.19      0.00
   13   -6    4      1.52      0.00
  -13   -5    4     -1.82      0.00
  -12   -5    4     -0.24      0.00
  -11   -5    4      0.81      0.00
  -10   -5    4     -0.29      0.00
   -9   -5    4     -1.10      0.00
   -8   -5    4     -0.51      0.00
   -7   -5    4     -0.42      0.00
   -6   -5    4      0.04      0.00
   -5   -5    4      2.61      0.00
   -4   -5    4      5.15      0.00
   -3   -5    4      1.83      0.00
   -2   -5    4     -2.18      0.00
   -1   -5    4      1.80      0.00
    0   -5    4      5.86      0.00
    1   -5    4      1.28      0.00
    2   -5    4     -2.58      0.00
    3   -5    4      3.76      0.00
    4   -5    4      6.97      0.00
    5   -5    4      3.01      0.00
    6   -5    4     -1.53      0.00
    7   -5    4     -2.94      0.00
    8   -5    4     -3.12      0.00
    9   -5    4     -1.82      0.00
   10   -5    4      0.18      0.00
   11   -5    4      0.55      0.00
   12   -5    4     -0.76      0.00
   13   -5    4     -0.55      0.00
  -14   -4    4      0.73      0.00
  -13   -4    4      1.51      0.00
  -12   -4    4      0.73      0.00
  -11   -4    4      0.60      0.00
  -10   -4    4      1.84      0.00
   -9   -4    4      3.58      0.00
   -8   -4    4      3.10      0.00
   -7   -4    4      2.39      0.00
   -6   -4    4      4.14      0.00
   -5   -4    4      4.62      0.00
   -4   -4    4     -0.70      0.00
   -3   -4    4     -4.16      0.00
   -2   -4    4     -5.60      0.00
   -1   -4    4    -11.83      0.00
    0   -4    4    -16.47      0.00
    1   -4    4     -9.44      0.00
    2   -4    4      1.45      0.00
    3   -4    4     -1.97      0.00
    4   -4    4     -9.85      0.00
    5   -4    4     -9.08      0.00
    6   -4    4     -3.20      0.00
    7   -4    4     -0.60      0.00
    8   -4    4      0.49      0.00
    9   -4    4      1.05      0.00
   10   -4    4     -0.73      0.00
   11   -4    4     -2.91      0.00
   12   -4    4     -1.94      0.00
   13   -4    4     -0.38      0.00
  -14   -3    4      1.12      0.00
  -13   -3    4      0.43      0.00
  -12   -3    4     -1.02      0.00
  -11   -3    4     -1.56      0.00
  -10   -3    4     -2.63      0.00
   -9   -3    4     -6.46      0.00
   -8   -3    4     -9.32      0.00
   -7   -3    4    -11.63      0.00
   -6   -3    4    -14.85      0.00
   -5   -3    4    -15.64      0.00
   -4   -3    4     -7.93      0.00
   -3   -3    4      0.48      0.00
   -2   -3    4      1.84      0.00
   -1   -3    4     -0.04      0.00
    0   -3    4      0.75      0.00
    1   -3    4     -0.76      0.00
    2   -3    4     -6.38      0.00
    3   -3    4     -1.50      0.00
    4   -3    4      7.09      0.00
    5   -3    4      7.44      0.00
    6   -3    4      2.52      0.00
    7   -3    4      0.84      0.00
    8   -3    4      0.89      0.00
    9   -3    4      0.85      0.00
   10   -3    4      2.61      0.00
   11   -3    4      4.94      0.00
   12   -3    4      3.75      0.00
   13   -3    4      1.65      0.00
  -15   -2    4     -0.26      0.00
  -14   -2    4     -2.66      0.00
  -13   -2    4     -2.12      0.00
  -12   -2    4     -0.09      0.00
  -11   -2    4      0.66      0.00
  -10   -2    4      1.36      0.00
   -9   -2    4      5.73      0.00
   -8   -2    4      9.57      0.00
   -7   -2    4      8.97      0.00
   -6   -2    4      5.96      0.00
   -5   -2    4      4.61      0.00
   -4   -2    4     -0.95      0.00
   -3   -2    4     -6.40      0.00
   -2   -2    4     -4.57      0.00
   -1   -2    4      0.36      0.00
    0   -2    4     -1.02      0.00
    1   -2    4     -3.49      0.00
    2   -2    4      3.85      0.00
    3   -2    4      9.32      0.00
    4   -2    4      7.77      0.00
    5   -2    4      4.93      0.00
    6   -2    4      5.68      0.00
    7   -2    4      5.66      0.00
    8   -2    4      4.10      0.00
    9   -2    4      3.32      0.00
   10   -2    4      2.09      0.00
   11   -2    4     -0.57      0.00
   12   -2    4     -1.46      0.00
   13   -2    4     -1.18      0.00
  -15   -1    4     -0.44      0.00
  -14   -1    4      1.08      0.00
  -13   -1    4      0.61      0.00
  -12   -1    4     -1.99      0.00
  -11   -1    4     -3.60      0.00
  -10   -1    4     -3.15      0.00
   -9   -1    4     -4.90      0.00
   -8   -1    4     -5.56      0.00
   -7   -1    4     -1.33      0.00
   -6   -1    4      4.11      0.00
   -5   -1    4      3.92      0.00
   -4   -1    4      5.46      0.00
   -3   -1    4     13.86      0.00
   -2   -1    4     25.24      0.00
   -1   -1    4     27.93      0.00
    0   -1    4     24.17      0.00
    1   -1    4     19.41      0.00
    2   -1    4      5.64      0.00
    3   -1    4     -6.92      0.00
    4   -1    4     -7.30      0.00
    5   -1    4     -1.59      0.00
    6   -1    4     -1.39      0.00
    7   -1    4     -3.47      0.00
    8   -1    4     -3.99      0.00
    9   -1    4     -4.36      0.00
   10   -1    4     -4.05      0.00
   11   -1    4     -1.35      0.00
   12   -1    4      0.47      0.00
  -15    0    4      0.46      0.00
  -14    0    4     -1.25      0.00
  -13    0    4     -2.57      0.00
  -12    0    4     -0.98      0.00
  -11    0    4      1.04      0.00
  -10    0    4      0.41      0.00
   -9    0    4      0.73      0.00
   -8    0    4      3.00      0.00
   -7    0    4      4.97      0.00
   -6    0    4      4.60      0.00
   -5    0    4      7.13      0.00
   -4    0    4      6.99      0.00
   -3    0    4     -3.07      0.00
   -2    0    4    -15.13      0.00
   -1    0    4    -10.60      0.00
    0    0    4      1.72      0.00
    1    0    4      4.83      0.00
    2    0    4      6.78      0.00
    3    0    4      8.60      0.00
    4    0    4      5.49      0.00
    5    0    4     -0.79      0.00
    6    0    4     -1.97      0.00
    7    0    4      0.10      0.00
    8    0    4      0.81      0.00
    9    0    4      0.42      0.00
   10    0    4      0.08      0.00
   11    0    4     -1.29      0.00
   12    0    4     -1.37      0.00
  -16    1    4     -0.13      0.00
  -15    1    4      0.37      0.00
  -14    1    4      3.06      0.00
  -13    1    4      6.52      0.00
  -12    1    4      7.20      0.00
  -11    1    4      5.35      0.00
  -10    1    4      5.19      0.00
   -9    1    4      4.47      0.00
   -8    1    4      0.19      0.00
   -7    1    4     -3.36      0.00
   -6    1    4      0.40      0.00
   -5    1    4      3.76      0.00
   -4    1    4      2.08      0.00
   -3    1    4     -1.59      0.00
   -2    1    4     -3.43      0.00
   -1    1    4    -11.12      0.00
    0    1    4    -20.30      0.00
    1    1    4    -17.05      0.00
    2    1    4     -9.64      0.00
    3    1    4     -8.49      0.00
    4    1    4     -9.77      0.00
    5    1    4     -5.72      0.00
    6    1    4     -2.31      0.00
    7    1    4     -2.11      0.00
    8    1    4     -1.94      0.00
    9    1    4     -0.92      0.00
   10    1    4     -0.65      0.00
   11    1    4     -0.30      0.00
  -16    2    4      1.19      0.00
  -15    2    4      1.66      0.00
  -14    2    4      1.44      0.00
  -13    2    4     -0.49      0.00
  -12    2    4     -1.02      0.00
  -11    2    4      1.90      0.00
  -10    2    4      3.99      0.00
   -9    2    4      4.13      0.00
   -8    2    4      3.65      0.00
   -7    2    4      1.90      0.00
   -6    2    4     -4.78      0.00
   -5    2    4     -8.79      0.00
   -4    2    4     -2.77      0.00
   -3    2    4      4.43      0.00
   -2    2    4     -1.94      0.00
   -1    2    4     -9.64      0.00
    0    2    4     -8.19      0.00
    1    2    4     -8.16      0.00
    2    2    4     -8.62      0.00
    3    2    4     -3.83      0.00
    4    2    4      1.75      0.00
    5    2    4      0.66      0.00
    6    2    4     -1.93      0.00
    7    2    4     -1.55      0.00
    8    2    4      0.13      0.00
    9    2    4      0.55      0.00
   10    2    4      1.19      0.00
   11    2    4      1.50      0.00
  -16    3    4     -0.45      0.00
  -15    3    4     -1.65      0.00
  -14    3    4     -3.61      0.00
  -13    3    4     -3.66      0.00
  -12    3    4     -3.06      0.00
  -11    3    4     -5.19      0.00
  -10    3    4     -7.36      0.00
   -9    3    4     -5.64      0.00
   -8    3    4     -2.52      0.00
   -7    3    4     -4.14      0.00
   -6    3    4     -5.96      0.00
   -5    3    4     -6.11      0.00
   -4    3    4     -7.04      0.00
   -3    3    4     -3.84      0.00
   -2    3    4     10.24      0.00
   -1    3    4     22.40      0.00
    0    3    4     20.28      0.00
    1    3    4     12.54      0.00
    2    3    4      8.79      0.00
    3    3    4      8.06      0.00
    4    3    4      5.77      0.00
    5    3    4      5.29      0.00
    6    3    4      6.09      0.00
    7    3    4      5.32      0.00
    8    3    4      3.53      0.00
    9    3    4      2.73      0.00
   10    3    4      1.51      0.00
  -16    4    4     -0.74      0.00
  -15    4    4     -0.29      0.00
  -14    4    4      2.03      0.00
  -13    4    4      2.42      0.00
  -12    4    4     -0.56      0.00
  -11    4    4     -2.20      0.00
  -10    4    4     -1.95      0.00
   -9    4    4     -2.38      0.00
   -8    4    4     -1.97      0.00
   -7    4    4      3.41      0.00
   -6    4    4      7.17      0.00
   -5    4    4      3.53      0.00
   -4    4    4     -2.25      0.00
   -3    4    4     -4.46      0.00
   -2    4    4     -8.33      0.00
   -1    4    4    -13.26      0.00
    0    4    4     -9.35      0.00
    1    4    4     -1.19      0.00
    2    4    4      0.09      0.00
    3    4    4     -3.68      0.00
    4    4    4     -3.92      0.00
    5    4    4     -2.59      0.00
    6    4    4     -2.51      0.00
    7    4    4     -2.93      0.00
    8    4    4     -2.09      0.00
    9    4    4     -1.31      0.00
   10    4    4     -0.92      0.00
  -16    5    4      0.78      0.00
  -15    5    4      0.81      0.00
  -14    5    4     -1.01      0.00
  -13    5    4     -1.61      0.00
  -12    5    4      1.21      0.00
  -11    5    4      4.17      0.00
  -10    5    4      3.31      0.00
   -9    5    4     -0.53      0.00
   -8    5    4     -1.92      0.00
   -7    5    4     -2.91      0.00
   -6    5    4     -3.88      0.00
   -5    5    4     -1.89      0.00
   -4    5    4     -0.93      0.00
   -3    5    4     -4.96      0.00
   -2    5    4     -7.23      0.00
   -1    5    4     -2.59      0.00
    0    5    4      0.38      0.00
    1    5    4     -2.37      0.00
    2    5    4     -4.51      0.00
    3    5    4     -1.84      0.00
    4    5    4      0.04      0.00
    5    5    4     -0.13      0.00
    6    5    4      0.33      0.00
    7    5    4      1.02      0.00
    8    5    4     -0.11      0.00
    9    5    4     -0.73      0.00
  -16    6    4      0.55      0.00
  -15    6    4     -0.94      0.00
  -14    6    4     -0.93      0.00
  -13    6    4      0.79      0.00
  -12    6    4     -0.10      0.00
  -11    6    4     -3.30      0.00
  -10    6    4     -2.79      0.00
   -9    6    4      1.06      0.00
   -8    6    4      0.67      0.00
   -7    6    4     -0.40      0.00
   -6    6    4      2.71      0.00
   -5    6    4      7.11      0.00
   -4    6    4      9.89      0.00
   -3    6    4     11.69      0.00
   -2    6    4     11.89      0.00
   -1    6    4      5.04      0.00
    0    6    4     -1.89      0.00
    1    6    4     -0.29      0.00
    2    6    4      4.11      0.00
    3    6    4      2.53      0.00
    4    6    4     -0.77      0.00
    5    6    4     -1.97      0.00
    6    6    4     -1.63      0.00
    7    6    4     -1.23      0.00
    8    6    4     -0.82      0.00
    9    6    4     -0.73      0.00
  -16    7    4     -1.22      0.00
  -15    7    4      0.58      0.00
  -14    7    4      0.54      0.00
  -13    7    4     -1.85      0.00
  -12    7    4     -2.14      0.00
  -11    7    4      1.47      0.00
  -10    7    4      4.22      0.00
   -9    7    4      2.38      0.00
   -8    7    4      1.35      0.00
   -7    7    4      1.70      0.00
   -6    7    4     -0.73      0.00
   -5    7    4     -4.46      0.00
   -4    7    4     -4.56      0.00
   -3    7    4     -2.13      0.00
   -2    7    4     -1.66      0.00
   -1    7    4      1.84      0.00
    0    7    4      6.08      0.00
    1    7    4      5.37      0.00
    2    7    4      1.65      0.00
    3    7    4      1.51      0.00
    4    7    4      3.23      0.00
    5    7    4      2.75      0.00
    6    7    4     -0.05      0.00
    7    7    4     -1.21      0.00
    8    7    4     -0.78      0.00
  -16    8    4      0.35      0.00
  -15    8    4     -0.64      0.00
  -14    8    4     -1.64      0.00
  -13    8    4      0.03      0.00
  -12    8    4      2.45      0.00
  -11    8    4      0.07      0.00
  -10    8    4     -4.03      0.00
   -9    8    4     -2.40      0.00
   -8    8    4      0.43      0.00
   -7    8    4      0.09      0.00
   -6    8    4     -0.58      0.00
   -5    8    4      0.59      0.00
   -4    8    4      1.29      0.00
   -3    8    4      0.20      0.00
   -2    8    4      1.60      0.00
   -1    8    4      1.36      0.00
    0    8    4     -2.24      0.00
    1    8    4     -4.91      0.00
    2    8    4     -3.12      0.00
    3    8    4     -1.56      0.00
    4    8    4     -1.31      0.00
    5    8    4     -0.54      0.00
    6    8    4      1.63      0.00
    7    8    4      2.57      0.00
  -16    9    4     -1.24      0.00
  -15    9    4      0.27      0.00
  -14    9    4      2.60      0.00
  -13    9    4      1.47      0.00
  -12    9    4     -1.87      0.00
  -11    9    4     -0.98      0.00
  -10    9    4      3.19      0.00
   -9    9    4      3.38      0.00
   -8    9    4      0.39      0.00
   -7    9    4     -0.31      0.00
   -6    9    4      1.26      0.00
   -5    9    4     -0.07      0.00
   -4    9    4     -3.22      0.00
   -3    9    4     -3.47      0.00
   -2    9    4     -4.53      0.00
   -1    9    4     -4.21      0.00
    0    9    4     -0.95      0.00
    1    9    4      2.43      0.00
    2    9    4      1.88      0.00
    3    9    4      0.13      0.00
    4    9    4     -0.49      0.00
    5    9    4      0.28      0.00
    6    9    4     -0.48      0.00
  -16   10    4      1.12      0.00
  -15   10    4      0.54      0.00
  -14   10    4     -0.98      0.00
  -13   10    4     -0.75      0.00
  -12   10    4      2.32      0.00
  -11   10    4      3.26      0.00
  -10   10    4     -0.40      0.00
   -9   10    4     -2.85      0.00
   -8   10    4     -0.84      0.00
   -7   10    4      1.48      0.00
   -6   10    4      1.69      0.00
   -5   10    4      2.59      0.00
   -4   10    4      4.09      0.00
   -3   10    4      2.96      0.00
   -2   10    4      1.86      0.00
   -1   10    4      0.85      0.00
    0   10    4      0.10      0.00
    1   10    4     -1.57      0.00
    2   10    4     -1.90      0.00
    3   10    4     -0.87      0.00
    4   10    4      0.28      0.00
    5   10    4      0.02      0.00
  -15   11    4     -0.64      0.00
  -14   11    4      1.31      0.00
  -13   11    4      2.76      0.00
  -12   11    4      0.76      0.00
  -11   11    4     -1.60      0.00
  -10   11    4      0.08      0.00
   -9   11    4      3.95      0.00
   -8   11    4      3.83      0.00
   -7   11    4      0.24      0.00
   -6   11    4     -1.00      0.00
   -5   11    4     -0.46      0.00
   -4   11    4     -1.41      0.00
   -3   11    4     -0.96      0.00
   -2   11    4      0.23      0.00
   -1   11    4      0.50      0.00
    0   11    4     -0.44      0.00
    1   11    4      0.61      0.00
    2   11    4      2.00      0.00
    3   11    4      1.90      0.00
    4   11    4      0.20      0.00
  -15   12    4      1.09      0.00
  -14   12    4     -0.71      0.00
  -13   12    4     -3.18      0.00
  -12   12    4     -3.06      0.00
  -11   12    4     -0.34      0.00
  -10   12    4     -0.04      0.00
   -9   12    4     -3.91      0.00
   -8   12    4     -5.46      0.00
   -7   12    4     -3.86      0.00
   -6   12    4     -3.61      0.00
   -5   12    4     -3.65      0.00
   -4   12    4     -1.64      0.00
   -3   12    4     -0.31      0.00
   -2   12    4      0.23      0.00
   -1   12    4      0.04      0.00
    0   12    4      0.52      0.00
    1   12    4      0.30      0.00
    2   12    4     -0.68      0.00
    3   12    4     -1.30      0.00
  -14   13    4     -0.55      0.00
  -13   13    4      1.09      0.00
  -12   13    4      1.42      0.00
  -11   13    4     -0.84      0.00
  -10   13    4     -2.70      0.00
   -9   13    4     -0.42      0.00
   -8   13    4      2.45      0.00
   -7   13    4      2.64      0.00
   -6   13    4      1.80      0.00
   -5   13    4      1.72      0.00
   -4   13    4      0.73      0.00
   -3   13    4     -0.62      0.00
   -2   13    4     -0.79      0.00
   -1   13    4      0.45      0.00
    0   13    4     -0.03      0.00
    1   13    4     -0.97      0.00
  -13   14    4      0.05      0.00
  -12   14    4     -0.86      0.00
  -11   14    4     -0.17      0.00
  -10   14    4      1.98      0.00
   -9   14    4      1.28      0.00
   -8   14    4     -0.39      0.00
   -7   14    4     -0.16      0.00
   -6   14    4      0.00      0.00
   -5   14    4     -1.14      0.00
   -4   14    4     -1.11      0.00
   -3   14    4     -0.60      0.00
   -2   14    4     -0.29      0.00
   -1   14    4     -0.64      0.00
    0   14    4     -0.55      0.00
  -12   15    4      0.73      0.00
  -11   15    4      0.81      0.00
  -10   15    4     -1.01      0.00
   -9   15    4     -1.91      0.00
   -8   15    4     -1.35      0.00
   -7   15    4      0.16      0.00
   -6   15    4      1.58      0.00
   -5   15    4      2.44      0.00
   -4   15    4      2.28      0.00
   -3   15    4      1.52      0.00
   -9   16    4      2.81      0.00
   -8   16    4      1.54      0.00
   -7   16    4     -0.21      0.00
   -6   16    4     -0.55      0.00
    1  -17    5     -0.15      0.00
    2  -17    5      0.83      0.00
    3  -17    5     -0.01      0.00
    4  -17    5     -1.60      0.00
    5  -17    5     -0.80      0.00
    6  -17    5      1.14      0.00
    7  -17    5      0.07      0.00
   -2  -16    5      1.64      0.00
   -1  -16    5      0.06      0.00
    0  -16    5     -0.78      0.00
    1  -16    5     -0.09      0.00
    2  -16    5     -0.56      0.00
    3  -16    5     -0.30      0.00
    4  -16    5      1.27      0.00
    5  -16    5      0.64      0.00
    6  -16    5     -1.76      0.00
    7  -16    5     -0.84      0.00
    8  -16    5      2.01      0.00
    9  -16    5      2.92      0.00
   -3  -15    5      0.49      0.00
   -2  -15    5     -1.18      0.00
   -1  -15    5      0.60      0.00
    0  -15    5      1.72      0.00
    1  -15    5      0.30      0.00
    2  -15    5      0.03      0.00
    3  -15    5      1.09      0.00
    4  -15    5      1.21      0.00
    5  -15    5      0.92      0.00
    6  -15    5      2.47      0.00
    7  -15    5      3.09      0.00
    8  -15    5      0.80      0.00
    9  -15    5     -1.20      0.00
   10  -15    5      1.11      0.00
   -5  -14    5     -0.18      0.00
   -4  -14    5     -0.76      0.00
   -3  -14    5     -0.34      0.00
   -2  -14    5      2.16      0.00
   -1  -14    5      2.04      0.00
    0  -14    5      0.63      0.00
    1  -14    5      1.56      0.00
    2  -14    5      2.98      0.00
    3  -14    5      1.91      0.00
    4  -14    5      1.30      0.00
    5  -14    5      2.63      0.00
    6  -14    5      1.49      0.00
    7  -14    5     -0.68      0.00
    8  -14    5     -0.19      0.00
    9  -14    5      1.51      0.00
   10  -14    5      0.08      0.00
   11  -14    5     -1.74      0.00
   -7  -13    5      0.70      0.00
   -6  -13    5     -0.33      0.00
   -5  -13    5     -1.72      0.00
   -4  -13    5     -0.89      0.00
   -3  -13    5     -0.25      0.00
   -2  -13    5     -3.50      0.00
   -1  -13    5     -4.36      0.00
    0  -13    5     -1.26      0.00
    1  -13    5     -0.50      0.00
    2  -13    5     -3.35      0.00
    3  -13    5     -4.56      0.00
    4  -13    5     -4.18      0.00
    5  -13    5     -4.95      0.00
    6  -13    5     -4.36      0.00
    7  -13    5     -1.12      0.00
    8  -13    5      0.80      0.00
    9  -13    5     -1.52      0.00
   10  -13    5     -2.62      0.00
   11  -13    5     -1.08      0.00
   12  -13    5     -0.10      0.00
   -8  -12    5     -0.82      0.00
   -7  -12    5     -1.24      0.00
   -6  -12    5      0.05      0.00
   -5  -12    5      2.07      0.00
   -4  -12    5      1.12      0.00
   -3  -12    5     -1.07      0.00
   -2  -12    5      0.74      0.00
   -1  -12    5      2.91      0.00
    0  -12    5      1.53      0.00
    1  -12    5      0.13      0.00
    2  -12    5      2.90      0.00
    3  -12    5      5.10      0.00
    4  -12    5      3.76      0.00
    5  -12    5      2.88      0.00
    6  -12    5      2.37      0.00
    7  -12    5     -0.87      0.00
    8  -12    5     -3.21      0.00
    9  -12    5     -0.77      0.00
   10  -12    5      1.23      0.00
   11  -12    5      0.32      0.00
   12  -12    5     -0.88      0.00
   -9  -11    5      1.78      0.00
   -8  -11    5      2.85      0.00
   -7  -11    5      3.16      0.00
   -6  -11    5      2.50      0.00
   -5  -11    5      1.04      0.00
   -4  -11    5      2.34      0.00
   -3  -11    5      6.61      0.00
   -2  -11    5      6.02      0.00
   -1  -11    5      0.02      0.00
    0  -11    5     -2.43      0.00
    1  -11    5      0.18      0.00
    2  -11    5     -0.17      0.00
    3  -11    5     -2.71      0.00
    4  -11    5     -2.80      0.00
    5  -11    5     -1.98      0.00
    6  -11    5     -2.53      0.00
    7  -11    5     -1.86      0.00
    8  -11    5      0.33      0.00
    9  -11    5      0.26      0.00
   10  -11    5     -1.24      0.00
   11  -11    5     -1.08      0.00
   12  -11    5      0.22      0.00
  -10  -10    5      0.97      0.00
   -9  -10    5     -0.10      0.00
   -8  -10    5     -0.46      0.00
   -7  -10    5     -1.90      0.00
   -6  -10    5     -4.00      0.00
   -5  -10    5     -4.13      0.00
   -4  -10    5     -4.39      0.00
   -3  -10    5     -7.42      0.00
   -2  -10    5     -7.35      0.00
   -1  -10    5     -1.58      0.00
    0  -10    5      1.49      0.00
    1  -10    5     -2.45      0.00
    2  -10    5     -5.11      0.00
    3  -10    5     -2.41      0.00
    4  -10    5      0.17      0.00
    5  -10    5     -0.25      0.00
    6  -10    5      0.59      0.00
    7  -10    5      0.83      0.00
    8  -10    5     -2.14      0.00
    9  -10    5     -3.47      0.00
   10  -10    5     -1.32      0.00
   11  -10    5      0.21      0.00
   12  -10    5     -0.48      0.00
   13  -10    5     -0.38      0.00
  -11   -9    5     -1.40      0.00
  -10   -9    5     -3.70      0.00
   -9   -9    5     -3.37      0.00
   -8   -9    5     -1.97      0.00
   -7   -9    5      0.47      0.00
   -6   -9    5      2.59      0.00
   -5   -9    5      1.04      0.00
   -4   -9    5     -2.64      0.00
   -3   -9    5     -2.19      0.00
   -2   -9    5      0.58      0.00
   -1   -9    5     -2.08      0.00
    0   -9    5     -7.33      0.00
    1   -9    5     -6.22      0.00
    2   -9    5     -2.06      0.00
    3   -9    5     -1.83      0.00
    4   -9    5     -2.98      0.00
    5   -9    5     -0.79      0.00
    6   -9    5      1.17      0.00
    7   -9    5      2.66      0.00
    8   -9    5      5.52      0.00
    9   -9    5      7.16      0.00
   10   -9    5      5.12      0.00
   11   -9    5      2.46      0.00
   12   -9    5      2.10      0.00
   13   -9    5      1.52      0.00
  -12   -8    5     -2.22      0.00
  -11   -8    5      0.45      0.00
  -10   -8    5      2.06      0.00
   -9   -8    5     -0.58      0.00
   -8   -8    5     -3.22      0.00
   -7   -8    5     -4.12      0.00
   -6   -8    5     -4.06      0.00
   -5   -8    5     -2.19      0.00
   -4   -8    5      1.42      0.00
   -3   -8    5      1.54      0.00
   -2   -8    5     -2.16      0.00
   -1   -8    5     -0.22      0.00
    0   -8    5      8.42      0.00
    1   -8    5     12.34      0.00
    2   -8    5      7.57      0.00
    3   -8    5      2.33      0.00
    4   -8    5      2.08      0.00
    5   -8    5      1.29      0.00
    6   -8    5     -0.33      0.00
    7   -8    5     -0.91      0.00
    8   -8    5     -2.48      0.00
    9   -8    5     -5.12      0.00
   10   -8    5     -4.67      0.00
   11   -8    5     -2.02      0.00
   12   -8    5     -0.90      0.00
   13   -8    5     -1.01      0.00
  -12   -7    5      0.89      0.00
  -11   -7    5      0.19      0.00
  -10   -7    5     -0.62      0.00
   -9   -7    5      1.21      0.00
   -8   -7    5      2.93      0.00
   -7   -7    5      3.29      0.00
   -6   -7    5      4.75      0.00
   -5   -7    5      6.48      0.00
   -4   -7    5      4.63      0.00
   -3   -7    5      1.54      0.00
   -2   -7    5      2.14      0.00
   -1   -7    5      1.90      0.00
    0   -7    5     -4.43      0.00
    1   -7    5     -9.51      0.00
    2   -7    5     -4.81      0.00
    3   -7    5      2.69      0.00
    4   -7    5      2.46      0.00
    5   -7    5      0.15      0.00
    6   -7    5     -0.59      0.00
    7   -7    5     -0.78      0.00
    8   -7    5      0.73      0.00
    9   -7    5      3.99      0.00
   10   -7    5      4.84      0.00
   11   -7    5      2.82      0.00
   12   -7    5      1.21      0.00
   13   -7    5      1.18      0.00
  -13   -6    5      2.55      0.00
  -12   -6    5     -0.70      0.00
  -11   -6    5     -0.66      0.00
  -10   -6    5      1.70      0.00
   -9   -6    5      1.90      0.00
   -8   -6    5      0.20      0.00
   -7   -6    5     -1.39      0.00
   -6   -6    5     -2.93      0.00
   -5   -6    5     -3.71      0.00
   -4   -6    5     -1.07      0.00
   -3   -6    5      4.98      0.00
   -2   -6    5      6.37      0.00
   -1   -6    5      2.41      0.00
    0   -6    5      3.54      0.00
    1   -6    5     11.15      0.00
    2   -6    5     13.39      0.00
    3   -6    5      7.07      0.00
    4   -6    5      3.51      0.00
    5   -6    5      3.70      0.00
    6   -6    5      3.39      0.00
    7   -6    5      2.01      0.00
    8   -6    5      0.91      0.00
    9   -6    5     -1.32      0.00
   10   -6    5     -3.72      0.00
   11   -6    5     -3.89      0.00
   12   -6    5     -1.89      0.00
   13   -6    5     -0.34      0.00
  -13   -5    5     -1.70      0.00
  -12   -5    5      0.00      0.00
  -11   -5    5     -0.17      0.00
  -10   -5    5     -1.58      0.00
   -9   -5    5     -1.89      0.00
   -8   -5    5      0.10      0.00
   -7   -5    5      1.12      0.00
   -6   -5    5     -0.20      0.00
   -5   -5    5     -1.02      0.00
   -4   -5    5     -1.30      0.00
   -3   -5    5     -4.94      0.00
   -2   -5    5     -5.93      0.00
   -1   -5    5     -0.96      0.00
    0   -5    5     -0.39      0.00
    1   -5    5    -10.95      0.00
    2   -5    5    -18.84      0.00
    3   -5    5    -11.86      0.00
    4   -5    5     -3.45      0.00
    5   -5    5     -1.41      0.00
    6   -5    5     -0.90      0.00
    7   -5    5     -0.04      0.00
    8   -5    5     -0.63      0.00
    9   -5    5      0.17      0.00
   10   -5    5      2.96      0.00
   11   -5    5      3.75      0.00
   12   -5    5      0.96      0.00
   13   -5    5     -0.72      0.00
  -14   -4    5     -0.04      0.00
  -13   -4    5      1.84      0.00
  -12   -4    5      1.75      0.00
  -11   -4    5      0.57      0.00
  -10   -4    5      0.70      0.00
   -9   -4    5      2.33      0.00
   -8   -4    5      2.02      0.00
   -7   -4    5      1.04      0.00
   -6   -4    5      1.04      0.00
   -5   -4    5      0.95      0.00
   -4   -4    5     -0.78      0.00
   -3   -4    5      2.40      0.00
   -2   -4    5      8.46      0.00
   -1   -4    5      7.90      0.00
    0   -4    5      2.96      0.00
    1   -4    5      6.03      0.00
    2   -4    5     12.36      0.00
    3   -4    5      7.67      0.00
    4   -4    5     -0.08      0.00
    5   -4    5     -2.40      0.00
    6   -4    5     -1.65      0.00
    7   -4    5     -1.48      0.00
    8   -4    5     -1.00      0.00
    9   -4    5     -0.76      0.00
   10   -4    5     -1.75      0.00
   11   -4    5     -2.11      0.00
   12   -4    5     -0.41      0.00
  -15   -3    5      1.11      0.00
  -14   -3    5      1.44      0.00
  -13   -3    5     -0.30      0.00
  -12   -3    5     -0.62      0.00
  -11   -3    5      0.60      0.00
  -10   -3    5      0.87      0.00
   -9   -3    5     -1.75      0.00
   -8   -3    5     -1.84      0.00
   -7   -3    5      2.14      0.00
   -6   -3    5      4.62      0.00
   -5   -3    5      2.74      0.00
   -4   -3    5      1.45      0.00
   -3   -3    5     -3.79      0.00
   -2   -3    5    -10.39      0.00
   -1   -3    5     -7.61      0.00
    0   -3    5      3.54      0.00
    1   -3    5      5.68      0.00
    2   -3    5     -4.38      0.00
    3   -3    5     -7.19      0.00
    4   -3    5     -0.64      0.00
    5   -3    5      3.59      0.00
    6   -3    5      2.04      0.00
    7   -3    5      0.52      0.00
    8   -3    5     -0.62      0.00
    9   -3    5     -2.45      0.00
   10   -3    5     -2.61      0.00
   11   -3    5     -0.84      0.00
   12   -3    5     -0.33      0.00
  -15   -2    5     -0.51      0.00
  -14   -2    5     -1.65      0.00
  -13   -2    5     -1.24      0.00
  -12   -2    5      0.12      0.00
  -11   -2    5     -0.03      0.00
  -10   -2    5     -0.76      0.00
   -9   -2    5      2.12      0.00
   -8   -2    5      4.01      0.00
   -7   -2    5      3.03      0.00
   -6   -2    5      4.74      0.00
   -5   -2    5     12.76      0.00
   -4   -2    5     18.06      0.00
   -3   -2    5     18.26      0.00
   -2   -2    5     15.28      0.00
   -1   -2    5     10.45      0.00
    0   -2    5      1.74      0.00
    1   -2    5     -1.72      0.00
    2   -2    5      5.62      0.00
    3   -2    5      6.72      0.00
    4   -2    5     -2.06      0.00
    5   -2    5     -8.04      0.00
    6   -2    5     -5.82      0.00
    7   -2    5     -2.16      0.00
    8   -2    5      0.08      0.00
    9   -2    5      1.71      0.00
   10   -2    5      1.46      0.00
   11   -2    5     -0.48      0.00
   12   -2    5     -0.55      0.00
  -15   -1    5     -0.37      0.00
  -14   -1    5      3.12      0.00
  -13   -1    5      5.73      0.00
  -12   -1    5      5.52      0.00
  -11   -1    5      5.78      0.00
  -10   -1    5      6.95      0.00
   -9   -1    5      3.20      0.00
   -8   -1    5     -4.00      0.00
   -7   -1    5     -9.26      0.00
   -6   -1    5    -13.35      0.00
   -5   -1    5    -22.30      0.00
   -4   -1    5    -28.11      0.00
   -3   -1    5    -27.91      0.00
   -2   -1    5    -28.02      0.00
   -1   -1    5    -31.30      0.00
    0   -1    5    -26.79      0.00
    1   -1    5    -15.78      0.00
    2   -1    5    -11.17      0.00
    3   -1    5     -8.83      0.00
    4   -1    5     -2.91      0.00
    5   -1    5      2.84      0.00
    6   -1    5      2.40      0.00
    7   -1    5     -0.09      0.00
    8   -1    5     -0.40      0.00
    9   -1    5      0.11      0.00
   10   -1    5      0.40      0.00
   11   -1    5      1.15      0.00
   12   -1    5      0.99      0.00
  -16    0    5      2.00      0.00
  -15    0    5      1.69      0.00
  -14    0    5     -2.30      0.00
  -13    0    5     -6.69      0.00
  -12    0    5     -8.24      0.00
  -11    0    5     -8.85      0.00
  -10    0    5    -10.49      0.00
   -9    0    5     -7.74      0.00
   -8    0    5     -1.49      0.00
   -7    0    5      0.30      0.00
   -6    0    5     -3.19      0.00
   -5    0    5     -1.72      0.00
   -4    0    5      3.90      0.00
   -3    0    5      8.53      0.00
   -2    0    5      9.07      0.00
   -1    0    5      9.95      0.00
    0    0    5      5.83      0.00
    1    0    5     -4.63      0.00
    2    0    5     -6.60      0.00
    3    0    5      0.66      0.00
    4    0    5      4.38      0.00
    5    0    5      1.35      0.00
    6    0    5      0.33      0.00
    7    0    5      1.70      0.00
    8    0    5      2.16      0.00
    9    0    5      2.30      0.00
   10    0    5      2.96      0.00
   11    0    5      2.03      0.00
  -16    1    5     -2.98      0.00
  -15    1    5     -4.52      0.00
  -14    1    5     -3.55      0.00
  -13    1    5     -0.21      0.00
  -12    1    5      1.19      0.00
  -11    1    5      0.33      0.00
  -10    1    5      0.95      0.00
   -9    1    5      1.29      0.00
   -8    1    5     -0.16      0.00
   -7    1    5     -0.24      0.00
   -6    1    5      3.91      0.00
   -5    1    5      4.51      0.00
   -4    1    5      1.30      0.00
   -3    1    5      4.67      0.00
   -2    1    5     18.10      0.00
   -1    1    5     25.67      0.00
    0    1    5     25.67      0.00
    1    1    5     26.03      0.00
    2    1    5     21.35      0.00
    3    1    5     11.10      0.00
    4    1    5      4.24      0.00
    5    1    5      4.73      0.00
    6    1    5      5.21      0.00
    7    1    5      2.68      0.00
    8    1    5     -0.22      0.00
    9    1    5     -1.90      0.00
   10    1    5     -2.97      0.00
   11    1    5     -1.99      0.00
  -16    2    5      2.04      0.00
  -15    2    5      3.82      0.00
  -14    2    5      3.44      0.00
  -13    2    5     -0.07      0.00
  -12    2    5     -2.50      0.00
  -11    2    5     -1.36      0.00
  -10    2    5     -1.22      0.00
   -9    2    5     -2.46      0.00
   -8    2    5      0.84      0.00
   -7    2    5      8.24      0.00
   -6    2    5     10.31      0.00
   -5    2    5      7.70      0.00
   -4    2    5      3.37      0.00
   -3    2    5     -4.69      0.00
   -2    2    5    -16.46      0.00
   -1    2    5    -19.60      0.00
    0    2    5    -12.92      0.00
    1    2    5     -9.30      0.00
    2    2    5    -10.79      0.00
    3    2    5     -9.76      0.00
    4    2    5     -5.70      0.00
    5    2    5     -5.02      0.00
    6    2    5     -5.29      0.00
    7    2    5     -3.44      0.00
    8    2    5     -0.97      0.00
    9    2    5     -0.05      0.00
   10    2    5      0.44      0.00
  -16    3    5     -1.31      0.00
  -15    3    5     -1.57      0.00
  -14    3    5     -0.93      0.00
  -13    3    5      2.69      0.00
  -12    3    5      6.60      0.00
  -11    3    5      6.40      0.00
  -10    3    5      4.73      0.00
   -9    3    5      2.90      0.00
   -8    3    5     -2.12      0.00
   -7    3    5     -9.45      0.00
   -6    3    5     -9.89      0.00
   -5    3    5     -2.86      0.00
   -4    3    5      2.13      0.00
   -3    3    5      1.82      0.00
   -2    3    5      3.59      0.00
   -1    3    5      4.54      0.00
    0    3    5      0.92      0.00
    1    3    5      0.87      0.00
    2    3    5      5.90      0.00
    3    3    5      7.60      0.00
    4    3    5      3.96      0.00
    5    3    5      1.76      0.00
    6    3    5      1.81      0.00
    7    3    5      1.33      0.00
    8    3    5     -0.22      0.00
    9    3    5     -0.31      0.00
   10    3    5     -0.04      0.00
  -17    4    5      0.32      0.00
  -16    4    5     -0.04      0.00
  -15    4    5     -0.23      0.00
  -14    4    5      0.08      0.00
  -13    4    5     -1.04      0.00
  -12    4    5     -3.07      0.00
  -11    4    5     -1.93      0.00
  -10    4    5      2.41      0.00
   -9    4    5      5.49      0.00
   -8    4    5      5.92      0.00
   -7    4    5      8.63      0.00
   -6    4    5     10.66      0.00
   -5    4    5      8.98      0.00
   -4    4    5      9.18      0.00
   -3    4    5     11.99      0.00
   -2    4    5      9.16      0.00
   -1    4    5      0.80      0.00
    0    4    5     -3.97      0.00
    1    4    5     -3.83      0.00
    2    4    5     -4.11      0.00
    3    4    5     -5.38      0.00
    4    4    5     -3.84      0.00
    5    4    5     -2.01      0.00
    6    4    5     -1.90      0.00
    7    4    5     -1.90      0.00
    8    4    5     -1.00      0.00
    9    4    5     -1.13      0.00
  -17    5    5      0.28      0.00
  -16    5    5      0.78      0.00
  -15    5    5      1.64      0.00
  -14    5    5      0.57      0.00
  -13    5    5     -1.30      0.00
  -12    5    5     -0.94      0.00
  -11    5    5     -0.92      0.00
  -10    5    5     -2.98      0.00
   -9    5    5     -3.72      0.00
   -8    5    5     -2.46      0.00
   -7    5    5     -5.99      0.00
   -6    5    5    -12.70      0.00
   -5    5    5    -15.41      0.00
   -4    5    5    -14.22      0.00
   -3    5    5    -12.58      0.00
   -2    5    5     -8.42      0.00
   -1    5    5      0.21      0.00
    0    5    5      4.02      0.00
    1    5    5      0.44      0.00
    2    5    5     -1.39      0.00
    3    5    5      1.61      0.00
    4    5    5      2.93      0.00
    5    5    5      1.70      0.00
    6    5    5      0.74      0.00
    7    5    5      1.42      0.00
    8    5    5      1.87      0.00
  -17    6    5      0.24      0.00
  -16    6    5     -0.28      0.00
  -15    6    5     -0.96      0.00
  -14    6    5      0.45      0.00
  -13    6    5      3.07      0.00
  -12    6    5      3.10      0.00
  -11    6    5      0.11      0.00
  -10    6    5     -1.90      0.00
   -9    6    5     -0.48      0.00
   -8    6    5      0.50      0.00
   -7    6    5      2.36      0.00
   -6    6    5      5.86      0.00
   -5    6    5      6.08      0.00
   -4    6    5      2.48      0.00
   -3    6    5      0.33      0.00
   -2    6    5      0.99      0.00
   -1    6    5     -0.98      0.00
    0    6    5     -2.53      0.00
    1    6    5     -0.46      0.00
    2    6    5      1.61      0.00
    3    6    5      0.01      0.00
    4    6    5     -1.07      0.00
    5    6    5      0.41      0.00
    6    6    5      1.78      0.00
    7    6    5      0.98      0.00
    8    6    5      0.48      0.00
  -17    7    5     -0.75      0.00
  -16    7    5     -0.62      0.00
  -15    7    5      0.61      0.00
  -14    7    5      1.28      0.00
  -13    7    5     -1.09      0.00
  -12    7    5     -2.41      0.00
  -11    7    5      1.22      0.00
  -10    7    5      3.96      0.00
   -9    7    5      1.33      0.00
   -8    7    5      0.39      0.00
   -7    7    5      2.18      0.00
   -6    7    5      2.75      0.00
   -5    7    5      2.34      0.00
   -4    7    5      2.73      0.00
   -3    7    5      2.35      0.00
   -2    7    5     -1.28      0.00
   -1    7    5     -1.10      0.00
    0    7    5      2.43      0.00
    1    7    5      2.64      0.00
    2    7    5     -0.56      0.00
    3    7    5     -1.18      0.00
    4    7    5     -0.18      0.00
    5    7    5      0.28      0.00
    6    7    5     -0.27      0.00
    7    7    5     -0.26      0.00
  -16    8    5      2.13      0.00
  -15    8    5      0.27      0.00
  -14    8    5     -1.18      0.00
  -13    8    5      0.90      0.00
  -12    8    5      3.19      0.00
  -11    8    5      0.93      0.00
  -10    8    5     -2.76      0.00
   -9    8    5     -2.25      0.00
   -8    8    5     -1.45      0.00
   -7    8    5     -3.23      0.00
   -6    8    5     -4.08      0.00
   -5    8    5     -1.87      0.00
   -4    8    5     -0.39      0.00
   -3    8    5     -0.76      0.00
   -2    8    5      0.93      0.00
   -1    8    5      0.21      0.00
    0    8    5     -2.42      0.00
    1    8    5     -2.78      0.00
    2    8    5     -0.05      0.00
    3    8    5      1.22      0.00
    4    8    5      0.25      0.00
    5    8    5     -1.10      0.00
    6    8    5     -0.39      0.00
  -16    9    5     -2.05      0.00
  -15    9    5     -1.85      0.00
  -14    9    5     -0.47      0.00
  -13    9    5     -1.32      0.00
  -12    9    5     -4.87      0.00
  -11    9    5     -5.11      0.00
  -10    9    5     -1.15      0.00
   -9    9    5      0.30      0.00
   -8    9    5     -0.69      0.00
   -7    9    5     -0.76      0.00
   -6    9    5     -0.44      0.00
   -5    9    5     -1.51      0.00
   -4    9    5     -2.01      0.00
   -3    9    5     -0.23      0.00
   -2    9    5     -0.22      0.00
   -1    9    5     -0.58      0.00
    0    9    5      0.09      0.00
    1    9    5      1.58      0.00
    2    9    5      0.94      0.00
    3    9    5     -0.31      0.00
    4    9    5     -0.76      0.00
    5    9    5     -0.32      0.00
  -16   10    5      1.84      0.00
  -15   10    5      1.64      0.00
  -14   10    5     -1.21      0.00
  -13   10    5     -2.23      0.00
  -12   10    5      0.89      0.00
  -11   10    5      2.93      0.00
  -10   10    5      0.22      0.00
   -9   10    5     -2.80      0.00
   -8   10    5     -2.33      0.00
   -7   10    5     -1.16      0.00
   -6   10    5     -2.26      0.00
   -5   10    5     -2.29      0.00
   -4   10    5     -0.60      0.00
   -3   10    5     -0.42      0.00
   -2   10    5      0.74      0.00
   -1   10    5      1.78      0.00
    0   10    5      1.14      0.00
    1   10    5     -1.13      0.00
    2   10    5     -1.81      0.00
    3   10    5     -1.12      0.00
    4   10    5     -0.24      0.00
  -15   11    5     -1.28      0.00
  -14   11    5      1.01      0.00
  -13   11    5      3.19      0.00
  -12   11    5      1.93      0.00
  -11   11    5     -0.59      0.00
  -10   11    5      0.72      0.00
   -9   11    5      4.20      0.00
   -8   11    5      5.07      0.00
   -7   11    5      4.90      0.00
   -6   11    5      6.13      0.00
   -5   11    5      5.88      0.00
   -4   11    5      3.15      0.00
   -3   11    5      0.86      0.00
   -2   11    5     -0.46      0.00
   -1   11    5     -0.15      0.00
    0   11    5     -0.40      0.00
    1   11    5     -0.38      0.00
    2   11    5      0.07      0.00
    3   11    5      0.63      0.00
  -15   12    5      1.26      0.00
  -14   12    5      0.63      0.00
  -13   12    5     -0.74      0.00
  -12   12    5     -0.22      0.00
  -11   12    5      2.34      0.00
  -10   12    5      2.96      0.00
   -9   12    5     -0.25      0.00
   -8   12    5     -2.55      0.00
   -7   12    5     -1.81      0.00
   -6   12    5     -1.58      0.00
   -5   12    5     -1.93      0.00
   -4   12    5     -0.20      0.00
   -3   12    5      1.09      0.00
   -2   12    5      0.42      0.00
   -1   12    5     -0.29      0.00
    0   12    5      1.56      0.00
    1   12    5      2.89      0.00
    2   12    5      2.18      0.00
  -14   13    5     -0.88      0.00
  -13   13    5     -0.54      0.00
  -12   13    5     -0.12      0.00
  -11   13    5     -1.83      0.00
  -10   13    5     -2.92      0.00
   -9   13    5     -0.24      0.00
   -8   13    5      1.25      0.00
   -7   13    5     -0.13      0.00
   -6   13    5     -0.11      0.00
   -5   13    5      1.18      0.00
   -4   13    5      0.99      0.00
   -3   13    5      0.35      0.00
   -2   13    5     -0.44      0.00
   -1   13    5     -0.76      0.00
    0   13    5     -1.48      0.00
  -13   14    5      0.49      0.00
  -12   14    5      0.08      0.00
  -11   14    5      0.80      0.00
  -10   14    5      1.75      0.00
   -9   14    5      0.57      0.00
   -8   14    5     -0.89      0.00
   -7   14    5     -1.12      0.00
   -6   14    5     -1.62      0.00
   -5   14    5     -3.35      0.00
   -4   14    5     -3.77      0.00
   -3   14    5     -2.02      0.00
   -2   14    5     -0.10      0.00
  -11   15    5     -1.67      0.00
  -10   15    5     -2.52      0.00
   -9   15    5     -1.80      0.00
   -8   15    5     -0.41      0.00
   -7   15    5     -0.50      0.00
   -6   15    5     -0.52      0.00
   -5   15    5      0.87      0.00
   -4   15    5      1.32      0.00
    0  -17    6      0.11      0.00
    1  -17    6     -0.91      0.00
    2  -17    6     -0.20      0.00
    3  -17    6     -0.91      0.00
    4  -17    6     -2.16      0.00
    5  -17    6     -1.04      0.00
    6  -17    6      0.32      0.00
   -2  -16    6     -0.81      0.00
   -1  -16    6     -2.28      0.00
    0  -16    6     -1.42      0.00
    1  -16    6      0.25      0.00
    2  -16    6     -0.13      0.00
    3  -16    6     -0.14      0.00
    4  -16    6      1.24      0.00
    5  -16    6      1.20      0.00
    6  -16    6     -1.32      0.00
    7  -16    6     -2.08      0.00
    8  -16    6     -0.12      0.00
   -4  -15    6      1.18      0.00
   -3  -15    6      0.81      0.00
   -2  -15    6     -0.58      0.00
   -1  -15    6      0.70      0.00
    0  -15    6      1.53      0.00
    1  -15    6      0.03      0.00
    2  -15    6     -0.69      0.00
    3  -15    6     -0.57      0.00
    4  -15    6     -1.89      0.00
    5  -15    6     -2.12      0.00
    6  -15    6      1.12      0.00
    7  -15    6      3.22      0.00
    8  -15    6      1.74      0.00
    9  -15    6     -0.81      0.00
   10  -15    6     -0.53      0.00
   -6  -14    6     -0.21      0.00
   -5  -14    6     -0.30      0.00
   -4  -14    6     -1.19      0.00
   -3  -14    6     -0.18      0.00
   -2  -14    6      2.87      0.00
   -1  -14    6      1.57      0.00
    0  -14    6     -1.02      0.00
    1  -14    6     -0.12      0.00
    2  -14    6      2.13      0.00
    3  -14    6      2.65      0.00
    4  -14    6      2.79      0.00
    5  -14    6      3.13      0.00
    6  -14    6      0.82      0.00
    7  -14    6     -2.86      0.00
    8  -14    6     -3.09      0.00
    9  -14    6      0.13      0.00
   10  -14    6      0.36      0.00
   -7  -13    6      0.19      0.00
   -6  -13    6     -0.04      0.00
   -5  -13    6     -0.28      0.00
   -4  -13    6      0.69      0.00
   -3  -13    6      0.68      0.00
   -2  -13    6     -2.52      0.00
   -1  -13    6     -3.63      0.00
    0  -13    6     -1.98      0.00
    1  -13    6     -2.16      0.00
    2  -13    6     -5.14      0.00
    3  -13    6     -5.74      0.00
    4  -13    6     -4.42      0.00
    5  -13    6     -4.68      0.00
    6  -13    6     -3.62      0.00
    7  -13    6     -0.05      0.00
    8  -13    6      1.43      0.00
    9  -13    6     -0.41      0.00
   10  -13    6     -0.41      0.00
   11  -13    6      0.99      0.00
   -8  -12    6     -1.38      0.00
   -7  -12    6     -2.31      0.00
   -6  -12    6     -2.75      0.00
   -5  -12    6     -2.12      0.00
   -4  -12    6     -3.44      0.00
   -3  -12    6     -5.32      0.00
   -2  -12    6     -1.86      0.00
   -1  -12    6      2.36      0.00
    0  -12    6      1.43      0.00
    1  -12    6     -0.47      0.00
    2  -12    6      1.85      0.00
    3  -12    6      3.98      0.00
    4  -12    6      3.75      0.00
    5  -12    6      4.39      0.00
    6  -12    6      5.69      0.00
    7  -12    6      4.07      0.00
    8  -12    6      1.17      0.00
    9  -12    6      1.48      0.00
   10  -12    6      2.02      0.00
   11  -12    6      0.75      0.00
   -9  -11    6      0.16      0.00
   -8  -11    6      0.86      0.00
   -7  -11    6      3.21      0.00
   -6  -11    6      4.65      0.00
   -5  -11    6      3.52      0.00
   -4  -11    6      3.74      0.00
   -3  -11    6      6.08      0.00
   -2  -11    6      4.83      0.00
   -1  -11    6      1.25      0.00
    0  -11    6      1.91      0.00
    1  -11    6      5.71      0.00
    2  -11    6      4.92      0.00
    3  -11    6      0.94      0.00
    4  -11    6     -0.46      0.00
    5  -11    6     -0.77      0.00
    6  -11    6     -2.28      0.00
    7  -11    6     -0.74      0.00
    8  -11    6      2.77      0.00
    9  -11    6      2.53      0.00
   10  -11    6      0.44      0.00
   11  -11    6     -0.10      0.00
   12  -11    6      0.68      0.00
  -10  -10    6      1.75      0.00
   -9  -10    6      0.52      0.00
   -8  -10    6     -1.00      0.00
   -7  -10    6     -2.65      0.00
   -6  -10    6     -2.79      0.00
   -5  -10    6      0.00      0.00
   -4  -10    6      1.80      0.00
   -3  -10    6     -1.65      0.00
   -2  -10    6     -4.38      0.00
   -1  -10    6     -0.57      0.00
    0  -10    6      2.65      0.00
    1  -10    6     -0.21      0.00
    2  -10    6     -1.72      0.00
    3  -10    6      1.00      0.00
    4  -10    6      2.51      0.00
    5  -10    6      1.26      0.00
    6  -10    6      0.64      0.00
    7  -10    6     -0.83      0.00
    8  -10    6     -3.92      0.00
    9  -10    6     -4.70      0.00
   10  -10    6     -2.23      0.00
   11  -10    6     -0.31      0.00
   12  -10    6     -0.74      0.00
  -11   -9    6     -1.24      0.00
  -10   -9    6     -1.37      0.00
   -9   -9    6      0.76      0.00
   -8   -9    6      1.46      0.00
   -7   -9    6      1.63      0.00
   -6   -9    6      2.43      0.00
   -5   -9    6      1.82      0.00
   -4   -9    6      0.84      0.00
   -3   -9    6      4.19      0.00
   -2   -9    6      7.65      0.00
   -1   -9    6      3.28      0.00
    0   -9    6     -2.94      0.00
    1   -9    6     -1.57      0.00
    2   -9    6      3.09      0.00
    3   -9    6      2.91      0.00
    4   -9    6      0.02      0.00
    5   -9    6     -0.03      0.00
    6   -9    6     -0.36      0.00
    7   -9    6     -0.86      0.00
    8   -9    6      1.69      0.00
    9   -9    6      3.96      0.00
   10   -9    6      2.39      0.00
   11   -9    6      0.02      0.00
   12   -9    6     -0.11      0.00
  -12   -8    6     -1.15      0.00
  -11   -8    6      0.53      0.00
  -10   -8    6      2.69      0.00
   -9   -8    6      3.08      0.00
   -8   -8    6      3.42      0.00
   -7   -8    6      2.25      0.00
   -6   -8    6     -1.54      0.00
   -5   -8    6     -3.61      0.00
   -4   -8    6     -1.16      0.00
   -3   -8    6      0.09      0.00
   -2   -8    6     -2.86      0.00
   -1   -8    6     -2.53      0.00
    0   -8    6      1.89      0.00
    1   -8    6      1.69      0.00
    2   -8    6     -3.60      0.00
    3   -8    6     -5.10      0.00
    4   -8    6     -2.07      0.00
    5   -8    6     -1.01      0.00
    6   -8    6     -0.69      0.00
    7   -8    6     -0.44      0.00
    8   -8    6     -2.46      0.00
    9   -8    6     -5.15      0.00
   10   -8    6     -4.81      0.00
   11   -8    6     -2.36      0.00
   12   -8    6     -1.06      0.00
  -12   -7    6      3.26      0.00
  -11   -7    6      1.10      0.00
  -10   -7    6     -2.70      0.00
   -9   -7    6     -3.49      0.00
   -8   -7    6     -2.52      0.00
   -7   -7    6     -0.98      0.00
   -6   -7    6      1.20      0.00
   -5   -7    6      1.12      0.00
   -4   -7    6     -4.29      0.00
   -3   -7    6     -9.31      0.00
   -2   -7    6     -6.18      0.00
   -1   -7    6     -2.15      0.00
    0   -7    6     -5.57      0.00
    1   -7    6    -11.38      0.00
    2   -7    6    -11.05      0.00
    3   -7    6     -7.23      0.00
    4   -7    6     -6.20      0.00
    5   -7    6     -5.08      0.00
    6   -7    6     -2.93      0.00
    7   -7    6     -2.03      0.00
    8   -7    6     -1.09      0.00
    9   -7    6      1.77      0.00
   10   -7    6      3.43      0.00
   11   -7    6      2.32      0.00
   12   -7    6      0.56      0.00
  -13   -6    6      0.30      0.00
  -12   -6    6     -1.65      0.00
  -11   -6    6     -0.55      0.00
  -10   -6    6      1.33      0.00
   -9   -6    6      0.77      0.00
   -8   -6    6     -1.23      0.00
   -7   -6    6     -1.91      0.00
   -6   -6    6     -2.37      0.00
   -5   -6    6     -2.82      0.00
   -4   -6    6      0.11      0.00
   -3   -6    6      5.06      0.00
   -2   -6    6      3.99      0.00
   -1   -6    6     -0.17      0.00
    0   -6    6      2.65      0.00
    1   -6    6     11.84      0.00
    2   -6    6     14.20      0.00
    3   -6    6      8.29      0.00
    4   -6    6      5.32      0.00
    5   -6    6      5.38      0.00
    6   -6    6      5.02      0.00
    7   -6    6      4.99      0.00
    8   -6    6      4.44      0.00
    9   -6    6      1.83      0.00
   10   -6    6     -0.48      0.00
   11   -6    6     -0.40      0.00
   12   -6    6      0.76      0.00
  -14   -5    6      0.35      0.00
  -13   -5    6     -1.21      0.00
  -12   -5    6      0.30      0.00
  -11   -5    6      0.54      0.00
  -10   -5    6     -1.09      0.00
   -9   -5    6     -2.03      0.00
   -8   -5    6     -0.70      0.00
   -7   -5    6      1.31      0.00
   -6   -5    6      3.79      0.00
   -5   -5    6      6.59      0.00
   -4   -5    6      6.87      0.00
   -3   -5    6      0.86      0.00
   -2   -5    6     -3.09      0.00
   -1   -5    6      1.18      0.00
    0   -5    6      5.78      0.00
    1   -5    6      1.92      0.00
    2   -5    6     -2.10      0.00
    3   -5    6      0.84      0.00
    4   -5    6      2.35      0.00
    5   -5    6     -0.83      0.00
    6   -5    6     -3.70      0.00
    7   -5    6     -3.79      0.00
    8   -5    6     -3.14      0.00
    9   -5    6     -2.27      0.00
   10   -5    6     -0.76      0.00
   11   -5    6      0.23      0.00
   12   -5    6     -0.11      0.00
  -14   -4    6     -2.27      0.00
  -13   -4    6     -1.48      0.00
  -12   -4    6     -2.13      0.00
  -11   -4    6     -1.68      0.00
  -10   -4    6      0.59      0.00
   -9   -4    6      3.64      0.00
   -8   -4    6      3.13      0.00
   -7   -4    6     -0.14      0.00
   -6   -4    6     -2.51      0.00
   -5   -4    6     -3.72      0.00
   -4   -4    6     -4.36      0.00
   -3   -4    6      0.11      0.00
   -2   -4    6      2.41      0.00
   -1   -4    6     -5.61      0.00
    0   -4    6    -16.56      0.00
    1   -4    6    -14.45      0.00
    2   -4    6     -4.65      0.00
    3   -4    6     -3.29      0.00
    4   -4    6     -5.73      0.00
    5   -4    6     -3.61      0.00
    6   -4    6     -0.56      0.00
    7   -4    6      0.01      0.00
    8   -4    6      0.71      0.00
    9   -4    6      1.53      0.00
   10   -4    6      0.34      0.00
   11   -4    6     -1.08      0.00
   12   -4    6     -0.03      0.00
  -15   -3    6     -0.01      0.00
  -14   -3    6      2.04      0.00
  -13   -3    6      2.04      0.00
  -12   -3    6      1.32      0.00
  -11   -3    6      0.87      0.00
  -10   -3    6     -1.01      0.00
   -9   -3    6     -6.15      0.00
   -8   -3    6     -9.41      0.00
   -7   -3    6     -9.55      0.00
   -6   -3    6    -10.25      0.00
   -5   -3    6    -12.46      0.00
   -4   -3    6    -11.05      0.00
   -3   -3    6     -9.82      0.00
   -2   -3    6     -9.76      0.00
   -1   -3    6     -5.20      0.00
    0   -3    6      4.68      0.00
    1   -3    6      5.87      0.00
    2   -3    6     -1.74      0.00
    3   -3    6     -2.54      0.00
    4   -3    6      2.56      0.00
    5   -3    6      4.46      0.00
    6   -3    6      2.89      0.00
    7   -3    6      1.84      0.00
    8   -3    6      1.54      0.00
    9   -3    6      1.34      0.00
   10   -3    6      1.95      0.00
   11   -3    6      2.01      0.00
   12   -3    6      0.09      0.00
  -15   -2    6      1.56      0.00
  -14   -2    6     -1.60      0.00
  -13   -2    6     -3.06      0.00
  -12   -2    6     -3.17      0.00
  -11   -2    6     -4.08      0.00
  -10   -2    6     -3.81      0.00
   -9   -2    6      2.36      0.00
   -8   -2    6      9.30      0.00
   -7   -2    6     10.38      0.00
   -6   -2    6      8.44      0.00
   -5   -2    6      8.61      0.00
   -4   -2    6      6.72      0.00
   -3   -2    6      8.11      0.00
   -2   -2    6     15.49      0.00
   -1   -2    6     19.41      0.00
    0   -2    6     10.65      0.00
    1   -2    6      2.49      0.00
    2   -2    6      6.14      0.00
    3   -2    6     10.12      0.00
    4   -2    6      6.74      0.00
    5   -2    6      2.39      0.00
    6   -2    6      1.92      0.00
    7   -2    6      1.60      0.00
    8   -2    6      0.12      0.00
    9   -2    6     -0.36      0.00
   10   -2    6     -0.27      0.00
   11   -2    6     -0.55      0.00
  -16   -1    6     -1.57      0.00
  -15   -1    6     -1.80      0.00
  -14   -1    6      0.18      0.00
  -13   -1    6      1.85      0.00
  -12   -1    6      2.07      0.00
  -11   -1    6      3.60      0.00
  -10   -1    6      5.88      0.00
   -9   -1    6      2.63      0.00
   -8   -1    6     -1.97      0.00
   -7   -1    6      1.04      0.00
   -6   -1    6      9.43      0.00
   -5   -1    6     13.24      0.00
   -4   -1    6     13.27      0.00
   -3   -1    6     10.61      0.00
   -2   -1    6      6.41      0.00
   -1   -1    6      3.22      0.00
    0   -1    6      8.79      0.00
    1   -1    6     14.35      0.00
    2   -1    6      6.91      0.00
    3   -1    6     -3.71      0.00
    4   -1    6     -5.32      0.00
    5   -1    6     -1.92      0.00
    6   -1    6     -0.95      0.00
    7   -1    6     -1.34      0.00
    8   -1    6     -1.40      0.00
    9   -1    6     -1.88      0.00
   10   -1    6     -1.98      0.00
   11   -1    6     -0.65      0.00
  -16    0    6     -0.07      0.00
  -15    0    6      1.57      0.00
  -14    0    6      1.31      0.00
  -13    0    6      0.10      0.00
  -12    0    6      0.64      0.00
  -11    0    6      0.09      0.00
  -10    0    6     -3.38      0.00
   -9    0    6     -3.66      0.00
   -8    0    6      0.52      0.00
   -7    0    6      1.43      0.00
   -6    0    6     -3.45      0.00
   -5    0    6     -5.39      0.00
   -4    0    6     -6.16      0.00
   -3    0    6    -10.64      0.00
   -2    0    6    -14.57      0.00
   -1    0    6    -10.75      0.00
    0    0    6     -8.46      0.00
    1    0    6    -10.58      0.00
    2    0    6     -7.85      0.00
    3    0    6     -1.18      0.00
    4    0    6      1.04      0.00
    5    0    6     -1.87      0.00
    6    0    6     -3.05      0.00
    7    0    6     -1.53      0.00
    8    0    6     -0.26      0.00
    9    0    6      0.03      0.00
   10    0    6      0.25      0.00
  -16    1    6      0.38      0.00
  -15    1    6     -0.35      0.00
  -14    1    6      0.93      0.00
  -13    1    6      3.56      0.00
  -12    1    6      4.29      0.00
  -11    1    6      4.41      0.00
  -10    1    6      7.49      0.00
   -9    1    6      7.87      0.00
   -8    1    6      0.26      0.00
   -7    1    6     -7.30      0.00
   -6    1    6     -6.48      0.00
   -5    1    6     -2.96      0.00
   -4    1    6     -0.43      0.00
   -3    1    6      1.16      0.00
   -2    1    6      0.01      0.00
   -1    1    6     -8.54      0.00
    0    1    6    -14.53      0.00
    1    1    6     -9.21      0.00
    2    1    6     -2.18      0.00
    3    1    6     -2.45      0.00
    4    1    6     -4.20      0.00
    5    1    6     -1.72      0.00
    6    1    6      0.46      0.00
    7    1    6      0.36      0.00
    8    1    6      0.13      0.00
    9    1    6      0.57      0.00
   10    1    6     -0.13      0.00
  -16    2    6      1.54      0.00
  -15    2    6      1.58      0.00
  -14    2    6      0.95      0.00
  -13    2    6     -1.60      0.00
  -12    2    6     -3.06      0.00
  -11    2    6     -2.10      0.00
  -10    2    6     -2.41      0.00
   -9    2    6     -2.56      0.00
   -8    2    6      1.58      0.00
   -7    2    6      6.29      0.00
   -6    2    6      3.88      0.00
   -5    2    6     -1.10      0.00
   -4    2    6     -0.41      0.00
   -3    2    6      3.38      0.00
   -2    2    6      3.81      0.00
   -1    2    6      5.48      0.00
    0    2    6      6.81      0.00
    1    2    6      1.98      0.00
    2    2    6     -3.51      0.00
    3    2    6     -2.58      0.00
    4    2    6      0.90      0.00
    5    2    6      0.61      0.00
    6    2    6     -1.25      0.00
    7    2    6     -1.53      0.00
    8    2    6     -0.74      0.00
    9    2    6     -0.63      0.00
   10    2    6      0.26      0.00
  -17    3    6     -1.39      0.00
  -16    3    6     -1.12      0.00
  -15    3    6     -1.86      0.00
  -14    3    6     -3.13      0.00
  -13    3    6     -2.79      0.00
  -12    3    6     -2.35      0.00
  -11    3    6     -4.76      0.00
  -10    3    6     -6.15      0.00
   -9    3    6     -2.88      0.00
   -8    3    6     -0.71      0.00
   -7    3    6     -4.43      0.00
   -6    3    6     -7.43      0.00
   -5    3    6     -7.74      0.00
   -4    3    6     -9.31      0.00
   -3    3    6     -8.98      0.00
   -2    3    6     -2.00      0.00
   -1    3    6      4.71      0.00
    0    3    6      4.81      0.00
    1    3    6      3.30      0.00
    2    3    6      5.15      0.00
    3    3    6      6.47      0.00
    4    3    6      4.78      0.00
    5    3    6      4.13      0.00
    6    3    6      4.84      0.00
    7    3    6      4.82      0.00
    8    3    6      3.67      0.00
    9    3    6      3.06      0.00
  -17    4    6      0.32      0.00
  -16    4    6     -0.01      0.00
  -15    4    6      0.35      0.00
  -14    4    6      2.23      0.00
  -13    4    6      2.86      0.00
  -12    4    6      1.33      0.00
  -11    4    6      1.05      0.00
  -10    4    6      0.06      0.00
   -9    4    6     -4.03      0.00
   -8    4    6     -5.84      0.00
   -7    4    6      0.23      0.00
   -6    4    6      7.53      0.00
   -5    4    6      8.79      0.00
   -4    4    6      6.75      0.00
   -3    4    6      4.68      0.00
   -2    4    6      0.90      0.00
   -1    4    6     -1.97      0.00
    0    4    6      1.23      0.00
    1    4    6      4.87      0.00
    2    4    6      2.13      0.00
    3    4    6     -2.58      0.00
    4    4    6     -3.24      0.00
    5    4    6     -2.06      0.00
    6    4    6     -2.11      0.00
    7    4    6     -3.11      0.00
    8    4    6     -2.84      0.00
  -17    5    6     -0.32      0.00
  -16    5    6     -0.04      0.00
  -15    5    6     -0.39      0.00
  -14    5    6     -1.86      0.00
  -13    5    6     -2.35      0.00
  -12    5    6      0.25      0.00
  -11    5    6      3.51      0.00
  -10    5    6      4.49      0.00
   -9    5    6      4.46      0.00
   -8    5    6      5.57      0.00
   -7    5    6      3.23      0.00
   -6    5    6     -1.19      0.00
   -5    5    6     -1.47      0.00
   -4    5    6     -0.16      0.00
   -3    5    6     -2.01      0.00
   -2    5    6     -4.95      0.00
   -1    5    6     -4.65      0.00
    0    5    6     -4.44      0.00
    1    5    6     -5.80      0.00
    2    5    6     -4.98      0.00
    3    5    6     -1.63      0.00
    4    5    6     -0.41      0.00
    5    5    6     -1.00      0.00
    6    5    6     -0.69      0.00
    7    5    6      0.41      0.00
    8    5    6      0.20      0.00
  -17    6    6      0.28      0.00
  -16    6    6      0.45      0.00
  -15    6    6      0.02      0.00
  -14    6    6      0.12      0.00
  -13    6    6      1.15      0.00
  -12    6    6     -0.45      0.00
  -11    6    6     -3.59      0.00
  -10    6    6     -3.64      0.00
   -9    6    6     -2.48      0.00
   -8    6    6     -5.11      0.00
   -7    6    6     -6.39      0.00
   -6    6    6     -3.27      0.00
   -5    6    6      0.08      0.00
   -4    6    6      2.05      0.00
   -3    6    6      4.84      0.00
   -2    6    6      7.58      0.00
   -1    6    6      4.45      0.00
    0    6    6      0.73      0.00
    1    6    6      2.04      0.00
    2    6    6      3.99      0.00
    3    6    6      2.05      0.00
    4    6    6     -0.56      0.00
    5    6    6     -1.57      0.00
    6    6    6     -1.25      0.00
    7    6    6     -1.25      0.00
  -17    7    6     -0.69      0.00
  -16    7    6     -1.12      0.00
  -15    7    6     -0.78      0.00
  -14    7    6     -0.80      0.00
  -13    7    6     -2.26      0.00
  -12    7    6     -2.55      0.00
  -11    7    6      0.13      0.00
  -10    7    6      2.86      0.00
   -9    7    6      3.03      0.00
   -8    7    6      4.61      0.00
   -7    7    6      6.11      0.00
   -6    7    6      3.55      0.00
   -5    7    6     -0.49      0.00
   -4    7    6     -1.67      0.00
   -3    7    6     -1.47      0.00
   -2    7    6     -2.57      0.00
   -1    7    6     -0.85      0.00
    0    7    6      1.21      0.00
    1    7    6      0.39      0.00
    2    7    6     -1.41      0.00
    3    7    6     -0.27      0.00
    4    7    6      1.92      0.00
    5    7    6      2.21      0.00
    6    7    6      0.52      0.00
  -16    8    6      1.01      0.00
  -15    8    6      1.53      0.00
  -14    8    6      0.93      0.00
  -13    8    6      2.60      0.00
  -12    8    6      5.42      0.00
  -11    8    6      3.87      0.00
  -10    8    6      0.06      0.00
   -9    8    6     -0.03      0.00
   -8    8    6      0.18      0.00
   -7    8    6     -0.94      0.00
   -6    8    6     -0.61      0.00
   -5    8    6      1.29      0.00
   -4    8    6      1.45      0.00
   -3    8    6      0.27      0.00
   -2    8    6      2.09      0.00
   -1    8    6      2.84      0.00
    0    8    6      0.97      0.00
    1    8    6     -0.71      0.00
    2    8    6     -0.33      0.00
    3    8    6     -0.57      0.00
    4    8    6     -1.17      0.00
    5    8    6     -0.97      0.00
  -16    9    6     -0.71      0.00
  -15    9    6     -0.43      0.00
  -14    9    6      1.04      0.00
  -13    9    6      0.06      0.00
  -12    9    6     -2.84      0.00
  -11    9    6     -2.63      0.00
  -10    9    6      0.64      0.00
   -9    9    6      1.21      0.00
   -8    9    6     -0.08      0.00
   -7    9    6      0.48      0.00
   -6    9    6      1.70      0.00
   -5    9    6      0.30      0.00
   -4    9    6     -1.10      0.00
   -3    9    6     -1.19      0.00
   -2    9    6     -3.11      0.00
   -1    9    6     -3.26      0.00
    0    9    6     -0.98      0.00
    1    9    6      1.46      0.00
    2    9    6      1.96      0.00
    3    9    6      1.87      0.00
    4    9    6      1.90      0.00
  -16   10    6     -0.25      0.00
  -15   10    6      0.43      0.00
  -14   10    6     -0.26      0.00
  -13   10    6     -0.76      0.00
  -12   10    6      0.82      0.00
  -11   10    6      1.52      0.00
  -10   10    6     -0.87      0.00
   -9   10    6     -2.11      0.00
   -8   10    6     -1.28      0.00
   -7   10    6     -1.35      0.00
   -6   10    6     -2.40      0.00
   -5   10    6     -1.48      0.00
   -4   10    6      0.36      0.00
   -3   10    6      0.69      0.00
   -2   10    6      0.46      0.00
   -1   10    6     -0.46      0.00
    0   10    6     -0.92      0.00
    1   10    6     -1.72      0.00
    2   10    6     -1.88      0.00
    3   10    6     -1.39      0.00
  -15   11    6     -0.81      0.00
  -14   11    6     -0.40      0.00
  -13   11    6      0.56      0.00
  -12   11    6     -0.35      0.00
  -11   11    6     -2.33      0.00
  -10   11    6     -1.83      0.00
   -9   11    6      0.35      0.00
   -8   11    6      0.41      0.00
   -7   11    6     -0.85      0.00
   -6   11    6     -0.29      0.00
   -5   11    6     -0.33      0.00
   -4   11    6     -1.79      0.00
   -3   11    6     -1.48      0.00
   -2   11    6     -0.35      0.00
   -1   11    6      0.35      0.00
    0   11    6      0.21      0.00
    1   11    6      0.46      0.00
    2   11    6      0.47      0.00
  -15   12    6      0.63      0.00
  -14   12    6      0.23      0.00
  -13   12    6     -0.95      0.00
  -12   12    6     -0.93      0.00
  -11   12    6      1.37      0.00
  -10   12    6      1.71      0.00
   -9   12    6     -0.60      0.00
   -8   12    6     -0.90      0.00
   -7   12    6      0.27      0.00
   -6   12    6     -0.35      0.00
   -5   12    6     -1.03      0.00
   -4   12    6     -0.11      0.00
   -3   12    6      1.29      0.00
   -2   12    6      2.03      0.00
   -1   12    6      0.75      0.00
    0   12    6     -0.18      0.00
    1   12    6     -0.15      0.00
  -14   13    6      0.30      0.00
  -13   13    6      0.93      0.00
  -12   13    6      0.94      0.00
  -11   13    6     -1.08      0.00
  -10   13    6     -2.43      0.00
   -9   13    6     -0.61      0.00
   -8   13    6      1.32      0.00
   -7   13    6      1.09      0.00
   -6   13    6      1.38      0.00
   -5   13    6      2.75      0.00
   -4   13    6      2.08      0.00
   -3   13    6      0.21      0.00
   -2   13    6      0.15      0.00
   -1   13    6      1.71      0.00
  -12   14    6     -0.45      0.00
  -11   14    6      1.58      0.00
  -10   14    6      3.41      0.00
   -9   14    6      1.50      0.00
   -8   14    6     -0.67      0.00
   -7   14    6     -0.05      0.00
   -6   14    6      0.34      0.00
   -5   14    6     -0.67      0.00
   -4   14    6     -1.25      0.00
   -3   14    6     -1.69      0.00
  -10   15    6     -2.82      0.00
   -9   15    6     -2.41      0.00
   -8   15    6     -1.15      0.00
   -7   15    6     -1.01      0.00
   -6   15    6     -1.39      0.00
    0  -17    7      0.73      0.00
    1  -17    7      0.84      0.00
    2  -17    7      1.69      0.00
    3  -17    7      0.47      0.00
    4  -17    7     -1.52      0.00
    5  -17    7     -0.66      0.00
   -2  -16    7      1.09      0.00
   -1  -16    7     -0.79      0.00
    0  -16    7     -1.15      0.00
    1  -16    7     -0.20      0.00
    2  -16    7     -0.73      0.00
    3  -16    7     -0.48      0.00
    4  -16    7      0.91      0.00
    5  -16    7     -0.11      0.00
    6  -16    7     -2.91      0.00
    7  -16    7     -3.56      0.00
    8  -16    7     -2.13      0.00
   -4  -15    7      1.22      0.00
   -3  -15    7     -0.49      0.00
   -2  -15    7     -1.48      0.00
   -1  -15    7      1.18      0.00
    0  -15    7      2.11      0.00
    1  -15    7      0.55      0.00
    2  -15    7      0.24      0.00
    3  -15    7      1.10      0.00
    4  -15    7      0.78      0.00
    5  -15    7      0.32      0.00
    6  -15    7      2.28      0.00
    7  -15    7      4.45      0.00
    8  -15    7      3.66      0.00
    9  -15    7      1.30      0.00
   -6  -14    7      0.10      0.00
   -5  -14    7      0.74      0.00
   -4  -14    7      0.75      0.00
   -3  -14    7      1.05      0.00
   -2  -14    7      2.57      0.00
   -1  -14    7      1.31      0.00
    0  -14    7     -0.17      0.00
    1  -14    7      1.20      0.00
    2  -14    7      2.70      0.00
    3  -14    7      1.59      0.00
    4  -14    7      1.43      0.00
    5  -14    7      2.99      0.00
    6  -14    7      2.21      0.00
    7  -14    7     -0.39      0.00
    8  -14    7     -1.08      0.00
    9  -14    7      0.44      0.00
   10  -14    7      0.22      0.00
   -7  -13    7      1.50      0.00
   -6  -13    7      0.37      0.00
   -5  -13    7     -0.85      0.00
   -4  -13    7      0.45      0.00
   -3  -13    7      1.25      0.00
   -2  -13    7     -1.47      0.00
   -1  -13    7     -1.29      0.00
    0  -13    7      1.75      0.00
    1  -13    7      2.03      0.00
    2  -13    7     -0.72      0.00
    3  -13    7     -2.00      0.00
    4  -13    7     -2.51      0.00
    5  -13    7     -4.55      0.00
    6  -13    7     -5.61      0.00
    7  -13    7     -3.04      0.00
    8  -13    7     -0.85      0.00
    9  -13    7     -2.18      0.00
   10  -13    7     -2.03      0.00
   -8  -12    7     -1.52      0.00
   -7  -12    7     -2.15      0.00
   -6  -12    7     -1.74      0.00
   -5  -12    7     -0.74      0.00
   -4  -12    7     -1.84      0.00
   -3  -12    7     -3.48      0.00
   -2  -12    7     -2.18      0.00
   -1  -12    7     -1.93      0.00
    0  -12    7     -5.32      0.00
    1  -12    7     -7.57      0.00
    2  -12    7     -4.17      0.00
    3  -12    7     -0.41      0.00
    4  -12    7      0.38      0.00
    5  -12    7      1.52      0.00
    6  -12    7      2.62      0.00
    7  -12    7      0.31      0.00
    8  -12    7     -1.88      0.00
    9  -12    7     -0.43      0.00
   10  -12    7      0.69      0.00
   11  -12    7      0.14      0.00
   -9  -11    7      1.46      0.00
   -8  -11    7      2.00      0.00
   -7  -11    7      2.94      0.00
   -6  -11    7      3.24      0.00
   -5  -11    7      1.73      0.00
   -4  -11    7      2.00      0.00
   -3  -11    7      5.41      0.00
   -2  -11    7      5.68      0.00
   -1  -11    7      2.62      0.00
    0  -11    7      3.16      0.00
    1  -11    7      6.00      0.00
    2  -11    7      4.08      0.00
    3  -11    7      0.09      0.00
    4  -11    7     -0.88      0.00
    5  -11    7     -0.66      0.00
    6  -11    7     -1.97      0.00
    7  -11    7     -1.60      0.00
    8  -11    7      0.65      0.00
    9  -11    7      0.53      0.00
   10  -11    7     -0.81      0.00
   11  -11    7     -0.68      0.00
  -10  -10    7      0.13      0.00
   -9  -10    7     -0.42      0.00
   -8  -10    7     -0.41      0.00
   -7  -10    7     -2.25      0.00
   -6  -10    7     -4.67      0.00
   -5  -10    7     -4.50      0.00
   -4  -10    7     -4.41      0.00
   -3  -10    7     -7.56      0.00
   -2  -10    7     -8.79      0.00
   -1  -10    7     -4.94      0.00
    0  -10    7     -3.21      0.00
    1  -10    7     -6.88      0.00
    2  -10    7     -8.42      0.00
    3  -10    7     -4.72      0.00
    4  -10    7     -1.65      0.00
    5  -10    7     -0.74      0.00
    6  -10    7      1.95      0.00
    7  -10    7      2.87      0.00
    8  -10    7      0.12      0.00
    9  -10    7     -1.41      0.00
   10  -10    7     -0.55      0.00
   11  -10    7      0.34      0.00
  -11   -9    7      0.67      0.00
  -10   -9    7     -2.04      0.00
   -9   -9    7     -3.23      0.00
   -8   -9    7     -3.28      0.00
   -7   -9    7     -0.91      0.00
   -6   -9    7      2.32      0.00
   -5   -9    7      2.13      0.00
   -4   -9    7     -0.81      0.00
   -3   -9    7      0.10      0.00
   -2   -9    7      4.05      0.00
   -1   -9    7      2.97      0.00
    0   -9    7      0.45      0.00
    1   -9    7      3.67      0.00
    2   -9    7      7.20      0.00
    3   -9    7      4.52      0.00
    4   -9    7      0.44      0.00
    5   -9    7     -0.31      0.00
    6   -9    7     -0.66      0.00
    7   -9    7     -0.29      0.00
    8   -9    7      2.50      0.00
    9   -9    7      4.89      0.00
   10   -9    7      3.95      0.00
   11   -9    7      1.70      0.00
  -12   -8    7     -4.50      0.00
  -11   -8    7     -1.39      0.00
  -10   -8    7      1.77      0.00
   -9   -8    7      1.54      0.00
   -8   -8    7      0.61      0.00
   -7   -8    7     -0.26      0.00
   -6   -8    7     -1.73      0.00
   -5   -8    7     -1.12      0.00
   -4   -8    7      2.95      0.00
   -3   -8    7      3.65      0.00
   -2   -8    7     -1.07      0.00
   -1   -8    7     -1.10      0.00
    0   -8    7      4.14      0.00
    1   -8    7      5.93      0.00
    2   -8    7      3.11      0.00
    3   -8    7      3.26      0.00
    4   -8    7      6.37      0.00
    5   -8    7      5.95      0.00
    6   -8    7      3.91      0.00
    7   -8    7      2.92      0.00
    8   -8    7      0.57      0.00
    9   -8    7     -2.34      0.00
   10   -8    7     -2.52      0.00
   11   -8    7     -1.15      0.00
  -13   -7    7     -0.42      0.00
  -12   -7    7      1.47      0.00
  -11   -7    7     -0.51      0.00
  -10   -7    7     -2.53      0.00
   -9   -7    7     -1.61      0.00
   -8   -7    7     -0.43      0.00
   -7   -7    7      0.15      0.00
   -6   -7    7      3.04      0.00
   -5   -7    7      6.45      0.00
   -4   -7    7      5.15      0.00
   -3   -7    7      2.12      0.00
   -2   -7    7      3.63      0.00
   -1   -7    7      3.79      0.00
    0   -7    7     -1.57      0.00
    1   -7    7     -5.66      0.00
    2   -7    7     -3.00      0.00
    3   -7    7     -1.31      0.00
    4   -7    7     -4.72      0.00
    5   -7    7     -7.10      0.00
    6   -7    7     -7.06      0.00
    7   -7    7     -6.48      0.00
    8   -7    7     -4.55      0.00
    9   -7    7     -1.61      0.00
   10   -7    7      0.10      0.00
   11   -7    7      0.21      0.00
  -13   -6    7      1.17      0.00
  -12   -6    7     -1.51      0.00
  -11   -6    7     -0.05      0.00
  -10   -6    7      3.60      0.00
   -9   -6    7      5.02      0.00
   -8   -6    7      4.06      0.00
   -7   -6    7      1.89      0.00
   -6   -6    7     -2.82      0.00
   -5   -6    7     -8.46      0.00
   -4   -6    7     -8.12      0.00
   -3   -6    7     -1.67      0.00
   -2   -6    7     -0.10      0.00
   -1   -6    7     -3.51      0.00
    0   -6    7     -3.98      0.00
    1   -6    7     -0.29      0.00
    2   -6    7      0.21      0.00
    3   -6    7     -1.46      0.00
    4   -6    7      1.03      0.00
    5   -6    7      5.23      0.00
    6   -6    7      6.30      0.00
    7   -6    7      5.54      0.00
    8   -6    7      4.44      0.00
    9   -6    7      2.16      0.00
   10   -6    7     -0.37      0.00
   11   -6    7     -1.17      0.00
  -14   -5    7      0.08      0.00
  -13   -5    7      0.56      0.00
  -12   -5    7      3.12      0.00
  -11   -5    7      1.98      0.00
  -10   -5    7     -2.19      0.00
   -9   -5    7     -5.23      0.00
   -8   -5    7     -4.29      0.00
   -7   -5    7     -1.66      0.00
   -6   -5    7      1.64      0.00
   -5   -5    7      5.65      0.00
   -4   -5    7      6.22      0.00
   -3   -5    7      1.34      0.00
   -2   -5    7      0.63      0.00
   -1   -5    7      6.65      0.00
    0   -5    7      9.99      0.00
    1   -5    7      3.36      0.00
    2   -5    7     -2.39      0.00
    3   -5    7     -0.40      0.00
    4   -5    7      1.09      0.00
    5   -5    7     -0.84      0.00
    6   -5    7     -1.84      0.00
    7   -5    7     -1.86      0.00
    8   -5    7     -1.54      0.00
    9   -5    7     -0.04      0.00
   10   -5    7      1.93      0.00
   11   -5    7      1.96      0.00
  -14   -4    7      1.42      0.00
  -13   -4    7      1.16      0.00
  -12   -4    7     -1.18      0.00
  -11   -4    7     -2.02      0.00
  -10   -4    7      0.83      0.00
   -9   -4    7      5.26      0.00
   -8   -4    7      6.43      0.00
   -7   -4    7      4.75      0.00
   -6   -4    7      2.41      0.00
   -5   -4    7     -0.95      0.00
   -4   -4    7     -4.50      0.00
   -3   -4    7     -1.75      0.00
   -2   -4    7      3.23      0.00
   -1   -4    7      2.38      0.00
    0   -4    7     -1.98      0.00
    1   -4    7      0.93      0.00
    2   -4    7      5.80      0.00
    3   -4    7      3.21      0.00
    4   -4    7     -1.51      0.00
    5   -4    7     -1.57      0.00
    6   -4    7      0.23      0.00
    7   -4    7      0.37      0.00
    8   -4    7     -0.64      0.00
    9   -4    7     -1.40      0.00
   10   -4    7     -2.09      0.00
   11   -4    7     -1.73      0.00
  -15   -3    7     -1.88      0.00
  -14   -3    7     -1.33      0.00
  -13   -3    7     -0.86      0.00
  -12   -3    7      1.58      0.00
  -11   -3    7      4.16      0.00
  -10   -3    7      3.60      0.00
   -9   -3    7     -1.49      0.00
   -8   -3    7     -4.60      0.00
   -7   -3    7     -1.69      0.00
   -6   -3    7      3.58      0.00
   -5   -3    7      8.13      0.00
   -4   -3    7     10.68      0.00
   -3   -3    7      3.47      0.00
   -2   -3    7     -9.17      0.00
   -1   -3    7    -13.32      0.00
    0   -3    7     -5.20      0.00
    1   -3    7     -1.02      0.00
    2   -3    7     -5.02      0.00
    3   -3    7     -5.31      0.00
    4   -3    7     -1.20      0.00
    5   -3    7     -0.65      0.00
    6   -3    7     -2.29      0.00
    7   -3    7     -2.07      0.00
    8   -3    7     -1.15      0.00
    9   -3    7     -1.07      0.00
   10   -3    7     -0.25      0.00
   11   -3    7      0.82      0.00
  -15   -2    7      0.52      0.00
  -14   -2    7      0.47      0.00
  -13   -2    7      0.43      0.00
  -12   -2    7     -0.31      0.00
  -11   -2    7     -3.34      0.00
  -10   -2    7     -5.65      0.00
   -9   -2    7     -2.29      0.00
   -8   -2    7      1.12      0.00
   -7   -2    7     -2.01      0.00
   -6   -2    7     -7.65      0.00
   -5   -2    7     -9.19      0.00
   -4   -2    7     -8.34      0.00
   -3   -2    7     -3.55      0.00
   -2   -2    7      4.56      0.00
   -1   -2    7      8.25      0.00
    0   -2    7      0.57      0.00
    1   -2    7     -5.29      0.00
    2   -2    7     -1.53      0.00
    3   -2    7      1.49      0.00
    4   -2    7     -0.75      0.00
    5   -2    7     -2.15      0.00
    6   -2    7     -0.90      0.00
    7   -2    7      0.38      0.00
    8   -2    7      0.77      0.00
    9   -2    7      0.82      0.00
   10   -2    7     -0.11      0.00
  -16   -1    7      1.67      0.00
  -15   -1    7      0.65      0.00
  -14   -1    7      1.34      0.00
  -13   -1    7      1.86      0.00
  -12   -1    7      1.71      0.00
  -11   -1    7      4.38      0.00
  -10   -1    7      8.80      0.00
   -9   -1    7      7.52      0.00
   -8   -1    7      1.12      0.00
   -7   -1    7     -2.18      0.00
   -6   -1    7     -2.61      0.00
   -5   -1    7     -5.50      0.00
   -4   -1    7     -5.99      0.00
   -3   -1    7     -5.12      0.00
   -2   -1    7     -9.76      0.00
   -1   -1    7    -17.19      0.00
    0   -1    7    -14.04      0.00
    1   -1    7     -4.95      0.00
    2   -1    7     -1.90      0.00
    3   -1    7     -2.53      0.00
    4   -1    7     -0.03      0.00
    5   -1    7      2.96      0.00
    6   -1    7      2.62      0.00
    7   -1    7      1.32      0.00
    8   -1    7      1.32      0.00
    9   -1    7      1.52      0.00
   10   -1    7      1.08      0.00
  -16    0    7     -0.56      0.00
  -15    0    7     -0.48      0.00
  -14    0    7     -2.27      0.00
  -13    0    7     -4.49      0.00
  -12    0    7     -5.14      0.00
  -11    0    7     -7.52      0.00
  -10    0    7    -13.15      0.00
   -9    0    7    -13.69      0.00
   -8    0    7     -6.12      0.00
   -7    0    7     -0.08      0.00
   -6    0    7      0.00      0.00
   -5    0    7     -0.09      0.00
   -4    0    7      0.55      0.00
   -3    0    7      2.55      0.00
   -2    0    7      8.98      0.00
   -1    0    7     18.65      0.00
    0    0    7     18.17      0.00
    1    0    7      7.79      0.00
    2    0    7      1.55      0.00
    3    0    7      2.44      0.00
    4    0    7      2.60      0.00
    5    0    7      0.61      0.00
    6    0    7     -0.23      0.00
    7    0    7     -0.11      0.00
    8    0    7     -0.14      0.00
    9    0    7      0.19      0.00
   10    0    7      1.18      0.00
  -16    1    7     -1.80      0.00
  -15    1    7     -2.99      0.00
  -14    1    7     -2.98      0.00
  -13    1    7     -1.37      0.00
  -12    1    7     -1.09      0.00
  -11    1    7     -0.41      0.00
  -10    1    7      4.22      0.00
   -9    1    7      8.01      0.00
   -8    1    7      5.33      0.00
   -7    1    7      1.92      0.00
   -6    1    7      3.98      0.00
   -5    1    7      5.59      0.00
   -4    1    7      3.86      0.00
   -3    1    7      3.97      0.00
   -2    1    7      5.67      0.00
   -1    1    7      2.98      0.00
    0    1    7      2.18      0.00
    1    1    7      7.05      0.00
    2    1    7      9.95      0.00
    3    1    7      6.31      0.00
    4    1    7      2.15      0.00
    5    1    7      2.00      0.00
    6    1    7      2.80      0.00
    7    1    7      1.93      0.00
    8    1    7      0.13      0.00
    9    1    7     -0.84      0.00
  -17    2    7      0.55      0.00
  -16    2    7      1.27      0.00
  -15    2    7      3.22      0.00
  -14    2    7      4.37      0.00
  -13    2    7      3.43      0.00
  -12    2    7      2.96      0.00
  -11    2    7      3.53      0.00
  -10    2    7     -0.11      0.00
   -9    2    7     -6.51      0.00
   -8    2    7     -6.00      0.00
   -7    2    7      0.71      0.00
   -6    2    7      4.40      0.00
   -5    2    7      4.65      0.00
   -4    2    7      3.46      0.00
   -3    2    7     -1.79      0.00
   -2    2    7     -8.82      0.00
   -1    2    7     -8.94      0.00
    0    2    7     -4.74      0.00
    1    2    7     -4.97      0.00
    2    2    7     -8.48      0.00
    3    2    7     -8.00      0.00
    4    2    7     -5.20      0.00
    5    2    7     -4.93      0.00
    6    2    7     -5.57      0.00
    7    2    7     -4.49      0.00
    8    2    7     -2.14      0.00
    9    2    7     -1.18      0.00
  -17    3    7      0.05      0.00
  -16    3    7     -0.40      0.00
  -15    3    7     -1.15      0.00
  -14    3    7     -1.56      0.00
  -13    3    7      0.47      0.00
  -12    3    7      3.21      0.00
  -11    3    7      3.89      0.00
  -10    3    7      6.01      0.00
   -9    3    7      9.81      0.00
   -8    3    7      8.09      0.00
   -7    3    7     -0.42      0.00
   -6    3    7     -6.10      0.00
   -5    3    7     -4.53      0.00
   -4    3    7     -1.47      0.00
   -3    3    7      0.63      0.00
   -2    3    7      2.50      0.00
   -1    3    7      0.82      0.00
    0    3    7     -3.51      0.00
    1    3    7     -3.65      0.00
    2    3    7      0.97      0.00
    3    3    7      3.49      0.00
    4    3    7      2.43      0.00
    5    3    7      1.94      0.00
    6    3    7      2.84      0.00
    7    3    7      2.78      0.00
    8    3    7      1.03      0.00
  -17    4    7     -0.22      0.00
  -16    4    7     -0.07      0.00
  -15    4    7      0.17      0.00
  -14    4    7      0.34      0.00
  -13    4    7     -0.95      0.00
  -12    4    7     -3.50      0.00
  -11    4    7     -3.35      0.00
  -10    4    7     -1.04      0.00
   -9    4    7     -1.33      0.00
   -8    4    7     -2.35      0.00
   -7    4    7      1.88      0.00
   -6    4    7      6.44      0.00
   -5    4    7      6.10      0.00
   -4    4    7      5.79      0.00
   -3    4    7      7.31      0.00
   -2    4    7      6.69      0.00
   -1    4    7      3.66      0.00
    0    4    7      2.90      0.00
    1    4    7      3.63      0.00
    2    4    7      1.83      0.00
    3    4    7     -0.48      0.00
    4    4    7     -0.45      0.00
    5    4    7     -0.19      0.00
    6    4    7     -0.83      0.00
    7    4    7     -1.00      0.00
    8    4    7      0.23      0.00
  -17    5    7      0.83      0.00
  -16    5    7      0.95      0.00
  -15    5    7      1.38      0.00
  -14    5    7      0.69      0.00
  -13    5    7     -0.43      0.00
  -12    5    7      0.15      0.00
  -11    5    7     -0.69      0.00
  -10    5    7     -3.07      0.00
   -9    5    7     -2.19      0.00
   -8    5    7      1.17      0.00
   -7    5    7     -0.76      0.00
   -6    5    7     -6.77      0.00
   -5    5    7    -10.06      0.00
   -4    5    7    -10.57      0.00
   -3    5    7    -10.35      0.00
   -2    5    7     -7.87      0.00
   -1    5    7     -2.33      0.00
    0    5    7     -0.25      0.00
    1    5    7     -2.23      0.00
    2    5    7     -2.34      0.00
    3    5    7      0.12      0.00
    4    5    7      1.41      0.00
    5    5    7      0.99      0.00
    6    5    7      0.64      0.00
    7    5    7      1.22      0.00
  -17    6    7     -0.64      0.00
  -16    6    7     -1.28      0.00
  -15    6    7     -1.42      0.00
  -14    6    7     -0.05      0.00
  -13    6    7      2.45      0.00
  -12    6    7      3.01      0.00
  -11    6    7      1.28      0.00
  -10    6    7     -0.06      0.00
   -9    6    7     -0.50      0.00
   -8    6    7     -2.83      0.00
   -7    6    7     -2.68      0.00
   -6    6    7      1.45      0.00
   -5    6    7      3.53      0.00
   -4    6    7      1.78      0.00
   -3    6    7      0.31      0.00
   -2    6    7      0.65      0.00
   -1    6    7     -0.98      0.00
    0    6    7     -2.08      0.00
    1    6    7     -0.48      0.00
    2    6    7      0.92      0.00
    3    6    7      0.11      0.00
    4    6    7     -0.18      0.00
    5    6    7      0.81      0.00
    6    6    7      1.16      0.00
  -17    7    7      0.91      0.00
  -16    7    7      1.57      0.00
  -15    7    7      1.65      0.00
  -14    7    7      0.94      0.00
  -13    7    7     -2.17      0.00
  -12    7    7     -3.72      0.00
  -11    7    7     -1.27      0.00
  -10    7    7      0.35      0.00
   -9    7    7     -1.07      0.00
   -8    7    7      0.21      0.00
   -7    7    7      2.64      0.00
   -6    7    7      2.48      0.00
   -5    7    7      1.68      0.00
   -4    7    7      2.90      0.00
   -3    7    7      3.29      0.00
   -2    7    7      0.62      0.00
   -1    7    7      0.70      0.00
    0    7    7      2.54      0.00
    1    7    7      1.90      0.00
    2    7    7     -0.51      0.00
    3    7    7     -1.53      0.00
    4    7    7     -1.40      0.00
    5    7    7     -0.82      0.00
  -16    8    7     -1.33      0.00
  -15    8    7     -1.63      0.00
  -14    8    7     -1.43      0.00
  -13    8    7      0.67      0.00
  -12    8    7      2.50      0.00
  -11    8    7      1.58      0.00
  -10    8    7      0.16      0.00
   -9    8    7      1.49      0.00
   -8    8    7      0.99      0.00
   -7    8    7     -2.19      0.00
   -6    8    7     -3.26      0.00
   -5    8    7     -1.32      0.00
   -4    8    7     -0.85      0.00
   -3    8    7     -1.22      0.00
   -2    8    7      0.24      0.00
   -1    8    7     -0.30      0.00
    0    8    7     -1.99      0.00
    1    8    7     -2.00      0.00
    2    8    7      0.09      0.00
    3    8    7      1.45      0.00
    4    8    7      0.75      0.00
  -16    9    7      1.21      0.00
  -15    9    7      0.19      0.00
  -14    9    7      0.26      0.00
  -13    9    7     -0.50      0.00
  -12    9    7     -3.04      0.00
  -11    9    7     -3.80      0.00
  -10    9    7     -2.13      0.00
   -9    9    7     -2.14      0.00
   -8    9    7     -1.73      0.00
   -7    9    7      0.61      0.00
   -6    9    7      1.94      0.00
   -5    9    7      0.25      0.00
   -4    9    7     -0.73      0.00
   -3    9    7      0.39      0.00
   -2    9    7      0.57      0.00
   -1    9    7      0.91      0.00
    0    9    7      1.83      0.00
    1    9    7      2.23      0.00
    2    9    7      0.69      0.00
    3    9    7     -0.98      0.00
  -16   10    7     -1.33      0.00
  -15   10    7     -0.78      0.00
  -14   10    7     -1.55      0.00
  -13   10    7     -1.21      0.00
  -12   10    7      1.52      0.00
  -11   10    7      3.60      0.00
  -10   10    7      2.20      0.00
   -9   10    7      0.76      0.00
   -8   10    7      0.84      0.00
   -7   10    7      0.04      0.00
   -6   10    7     -1.54      0.00
   -5   10    7     -0.37      0.00
   -4   10    7      1.12      0.00
   -3   10    7      0.87      0.00
   -2   10    7      1.08      0.00
   -1   10    7      0.47      0.00
    0   10    7     -1.03      0.00
    1   10    7     -2.18      0.00
    2   10    7     -1.76      0.00
  -15   11    7      0.88      0.00
  -14   11    7      1.43      0.00
  -13   11    7      1.82      0.00
  -12   11    7      0.46      0.00
  -11   11    7     -1.42      0.00
  -10   11    7     -0.32      0.00
   -9   11    7      1.29      0.00
   -8   11    7      0.91      0.00
   -7   11    7      0.77      0.00
   -6   11    7      2.05      0.00
   -5   11    7      1.84      0.00
   -4   11    7     -0.16      0.00
   -3   11    7     -2.25      0.00
   -2   11    7     -2.75      0.00
   -1   11    7     -0.87      0.00
    0   11    7      0.80      0.00
    1   11    7      1.63      0.00
  -14   12    7      0.08      0.00
  -13   12    7     -0.19      0.00
  -12   12    7      0.25      0.00
  -11   12    7      2.14      0.00
  -10   12    7      2.45      0.00
   -9   12    7      0.52      0.00
   -8   12    7     -0.24      0.00
   -7   12    7      0.54      0.00
   -6   12    7     -0.31      0.00
   -5   12    7     -0.96      0.00
   -4   12    7      0.57      0.00
   -3   12    7      1.67      0.00
   -2   12    7      0.71      0.00
   -1   12    7     -0.93      0.00
    0   12    7     -1.18      0.00
  -13   13    7      0.05      0.00
  -12   13    7      0.05      0.00
  -11   13    7     -2.07      0.00
  -10   13    7     -2.86      0.00
   -9   13    7     -0.53      0.00
   -8   13    7      0.63      0.00
   -7   13    7     -0.46      0.00
   -6   13    7     -0.55      0.00
   -5   13    7      0.28      0.00
   -4   13    7      0.80      0.00
   -3   13    7      0.78      0.00
   -2   13    7      0.39      0.00
  -12   14    7     -0.18      0.00
  -11   14    7      1.06      0.00
  -10   14    7      2.12      0.00
   -9   14    7      1.01      0.00
   -8   14    7     -0.57      0.00
   -7   14    7     -0.29      0.00
   -6   14    7     -0.01      0.00
   -5   14    7     -1.43      0.00
    1  -17    8     -1.33      0.00
    2  -17    8     -0.34      0.00
    3  -17    8     -0.75      0.00
    4  -17    8     -1.66      0.00
   -2  -16    8     -0.14      0.00
   -1  -16    8     -1.95      0.00
    0  -16    8     -1.10      0.00
    1  -16    8      0.26      0.00
    2  -16    8     -0.40      0.00
    3  -16    8     -0.73      0.00
    4  -16    8      0.69      0.00
    5  -16    8      1.08      0.00
    6  -16    8     -0.61      0.00
    7  -16    8     -1.56      0.00
   -4  -15    8     -1.11      0.00
   -3  -15    8     -1.67      0.00
   -2  -15    8     -2.43      0.00
   -1  -15    8     -0.13      0.00
    0  -15    8      0.65      0.00
    1  -15    8     -1.18      0.00
    2  -15    8     -1.62      0.00
    3  -15    8     -0.98      0.00
    4  -15    8     -2.14      0.00
    5  -15    8     -2.87      0.00
    6  -15    8     -1.21      0.00
    7  -15    8      0.63      0.00
    8  -15    8      0.69      0.00
   -6  -14    8      1.36      0.00
   -5  -14    8      0.74      0.00
   -4  -14    8     -0.03      0.00
   -3  -14    8      1.59      0.00
   -2  -14    8      3.65      0.00
   -1  -14    8      0.79      0.00
    0  -14    8     -1.86      0.00
    1  -14    8     -0.44      0.00
    2  -14    8      1.91      0.00
    3  -14    8      2.25      0.00
    4  -14    8      2.54      0.00
    5  -14    8      3.56      0.00
    6  -14    8      2.87      0.00
    7  -14    8      0.18      0.00
    8  -14    8     -0.56      0.00
    9  -14    8      1.08      0.00
   -7  -13    8     -0.38      0.00
   -6  -13    8      0.25      0.00
   -5  -13    8      0.31      0.00
   -4  -13    8      0.56      0.00
   -3  -13    8     -0.08      0.00
   -2  -13    8     -1.96      0.00
   -1  -13    8     -0.39      0.00
    0  -13    8      3.09      0.00
    1  -13    8      2.86      0.00
    2  -13    8     -0.73      0.00
    3  -13    8     -1.74      0.00
    4  -13    8     -1.06      0.00
    5  -13    8     -1.88      0.00
    6  -13    8     -2.12      0.00
    7  -13    8      0.18      0.00
    8  -13    8      1.29      0.00
    9  -13    8     -0.54      0.00
   -9  -12    8      0.04      0.00
   -8  -12    8     -0.73      0.00
   -7  -12    8     -2.21      0.00
   -6  -12    8     -2.49      0.00
   -5  -12    8     -1.30      0.00
   -4  -12    8     -2.28      0.00
   -3  -12    8     -3.75      0.00
   -2  -12    8     -1.21      0.00
   -1  -12    8      0.47      0.00
    0  -12    8     -2.12      0.00
    1  -12    8     -3.68      0.00
    2  -12    8     -1.23      0.00
    3  -12    8      0.52      0.00
    4  -12    8      0.27      0.00
    5  -12    8      1.20      0.00
    6  -12    8      3.37      0.00
    7  -12    8      2.52      0.00
    8  -12    8      0.71      0.00
    9  -12    8      1.71      0.00
   10  -12    8      2.03      0.00
  -10  -11    8     -0.97      0.00
   -9  -11    8     -0.56      0.00
   -8  -11    8      0.23      0.00
   -7  -11    8      2.02      0.00
   -6  -11    8      2.89      0.00
   -5  -11    8      2.20      0.00
   -4  -11    8      3.11      0.00
   -3  -11    8      4.97      0.00
   -2  -11    8      3.46      0.00
   -1  -11    8      0.80      0.00
    0  -11    8      3.00      0.00
    1  -11    8      7.81      0.00
    2  -11    8      7.73      0.00
    3  -11    8      4.03      0.00
    4  -11    8      2.02      0.00
    5  -11    8      0.51      0.00
    6  -11    8     -2.19      0.00
    7  -11    8     -1.79      0.00
    8  -11    8      0.47      0.00
    9  -11    8      0.42      0.00
   10  -11    8     -0.51      0.00
  -10  -10    8      2.37      0.00
   -9  -10    8      2.39      0.00
   -8  -10    8      2.18      0.00
   -7  -10    8      0.90      0.00
   -6  -10    8     -0.07      0.00
   -5  -10    8      1.57      0.00
   -4  -10    8      3.37      0.00
   -3  -10    8      1.47      0.00
   -2  -10    8     -0.40      0.00
   -1  -10    8      1.29      0.00
    0  -10    8     -0.22      0.00
    1  -10    8     -6.11      0.00
    2  -10    8     -7.73      0.00
    3  -10    8     -3.46      0.00
    4  -10    8     -0.39      0.00
    5  -10    8     -0.54      0.00
    6  -10    8     -0.26      0.00
    7  -10    8     -0.81      0.00
    8  -10    8     -2.97      0.00
    9  -10    8     -3.30      0.00
   10  -10    8     -1.26      0.00
  -11   -9    8     -1.18      0.00
  -10   -9    8     -2.18      0.00
   -9   -9    8     -1.43      0.00
   -8   -9    8     -1.31      0.00
   -7   -9    8     -0.70      0.00
   -6   -9    8      0.50      0.00
   -5   -9    8     -0.59      0.00
   -4   -9    8     -2.95      0.00
   -3   -9    8     -1.18      0.00
   -2   -9    8      2.47      0.00
   -1   -9    8      0.99      0.00
    0   -9    8     -1.11      0.00
    1   -9    8      1.91      0.00
    2   -9    8      5.25      0.00
    3   -9    8      2.63      0.00
    4   -9    8     -0.90      0.00
    5   -9    8     -0.59      0.00
    6   -9    8     -0.64      0.00
    7   -9    8     -1.03      0.00
    8   -9    8      0.64      0.00
    9   -9    8      1.81      0.00
   10   -9    8      0.82      0.00
   11   -9    8     -0.51      0.00
  -12   -8    8     -0.77      0.00
  -11   -8    8      1.30      0.00
  -10   -8    8      3.46      0.00
   -9   -8    8      3.67      0.00
   -8   -8    8      3.55      0.00
   -7   -8    8      2.44      0.00
   -6   -8    8     -0.73      0.00
   -5   -8    8     -3.01      0.00
   -4   -8    8     -1.50      0.00
   -3   -8    8     -1.02      0.00
   -2   -8    8     -4.44      0.00
   -1   -8    8     -3.84      0.00
    0   -8    8     -0.07      0.00
    1   -8    8     -1.61      0.00
    2   -8    8     -7.13      0.00
    3   -8    8     -6.98      0.00
    4   -8    8     -2.51      0.00
    5   -8    8      0.09      0.00
    6   -8    8      1.41      0.00
    7   -8    8      2.24      0.00
    8   -8    8      1.12      0.00
    9   -8    8     -0.78      0.00
   10   -8    8     -0.80      0.00
   11   -8    8      0.59      0.00
  -13   -7    8      0.04      0.00
  -12   -7    8      3.40      0.00
  -11   -7    8      0.98      0.00
  -10   -7    8     -3.46      0.00
   -9   -7    8     -5.08      0.00
   -8   -7    8     -4.71      0.00
   -7   -7    8     -3.92      0.00
   -6   -7    8     -1.37      0.00
   -5   -7    8      1.29      0.00
   -4   -7    8     -1.32      0.00
   -3   -7    8     -5.05      0.00
   -2   -7    8     -2.49      0.00
   -1   -7    8     -0.27      0.00
    0   -7    8     -2.56      0.00
    1   -7    8     -3.65      0.00
    2   -7    8      0.81      0.00
    3   -7    8      3.46      0.00
    4   -7    8      0.63      0.00
    5   -7    8     -2.07      0.00
    6   -7    8     -2.40      0.00
    7   -7    8     -2.71      0.00
    8   -7    8     -2.02      0.00
    9   -7    8     -0.18      0.00
   10   -7    8      0.32      0.00
   11   -7    8     -0.55      0.00
  -13   -6    8      0.12      0.00
  -12   -6    8     -3.22      0.00
  -11   -6    8     -2.15      0.00
  -10   -6    8      1.42      0.00
   -9   -6    8      2.71      0.00
   -8   -6    8      1.88      0.00
   -7   -6    8      1.83      0.00
   -6   -6    8      0.88      0.00
   -5   -6    8     -1.85      0.00
   -4   -6    8     -1.04      0.00
   -3   -6    8      2.76      0.00
   -2   -6    8      1.28      0.00
   -1   -6    8     -2.15      0.00
    0   -6    8     -0.09      0.00
    1   -6    8      5.08      0.00
    2   -6    8      3.71      0.00
    3   -6    8     -0.53      0.00
    4   -6    8     -0.46      0.00
    5   -6    8      1.71      0.00
    6   -6    8      2.56      0.00
    7   -6    8      2.96      0.00
    8   -6    8      2.56      0.00
    9   -6    8      1.43      0.00
   10   -6    8      0.57      0.00
   11   -6    8      0.52      0.00
  -14   -5    8     -1.59      0.00
  -13   -5    8     -2.73      0.00
  -12   -5    8      0.78      0.00
  -11   -5    8      2.46      0.00
  -10   -5    8      0.57      0.00
   -9   -5    8     -1.68      0.00
   -8   -5    8     -2.05      0.00
   -7   -5    8     -1.91      0.00
   -6   -5    8     -0.21      0.00
   -5   -5    8      5.10      0.00
   -4   -5    8      8.25      0.00
   -3   -5    8      3.93      0.00
   -2   -5    8      0.41      0.00
   -1   -5    8      2.09      0.00
    0   -5    8      3.80      0.00
    1   -5    8      1.20      0.00
    2   -5    8      1.12      0.00
    3   -5    8      4.86      0.00
    4   -5    8      5.55      0.00
    5   -5    8      1.60      0.00
    6   -5    8     -1.23      0.00
    7   -5    8     -1.89      0.00
    8   -5    8     -2.12      0.00
    9   -5    8     -2.01      0.00
   10   -5    8     -0.87      0.00
  -15   -4    8     -1.26      0.00
  -14   -4    8      0.30      0.00
  -13   -4    8      1.52      0.00
  -12   -4    8     -1.67      0.00
  -11   -4    8     -4.94      0.00
  -10   -4    8     -4.15      0.00
   -9   -4    8      0.20      0.00
   -8   -4    8      2.79      0.00
   -7   -4    8      2.16      0.00
   -6   -4    8     -0.71      0.00
   -5   -4    8     -6.32      0.00
   -4   -4    8     -9.73      0.00
   -3   -4    8     -4.30      0.00
   -2   -4    8      2.30      0.00
   -1   -4    8      0.53      0.00
    0   -4    8     -6.71      0.00
    1   -4    8     -7.46      0.00
    2   -4    8     -5.03      0.00
    3   -4    8     -6.53      0.00
    4   -4    8     -7.44      0.00
    5   -4    8     -3.81      0.00
    6   -4    8     -0.63      0.00
    7   -4    8      0.86      0.00
    8   -4    8      1.93      0.00
    9   -4    8      2.30      0.00
   10   -4    8      0.94      0.00
  -15   -3    8      1.11      0.00
  -14   -3    8      0.55      0.00
  -13   -3    8     -0.74      0.00
  -12   -3    8      0.76      0.00
  -11   -3    8      4.33      0.00
  -10   -3    8      4.70      0.00
   -9   -3    8     -0.56      0.00
   -8   -3    8     -5.66      0.00
   -7   -3    8     -7.01      0.00
   -6   -3    8     -6.90      0.00
   -5   -3    8     -5.21      0.00
   -4   -3    8     -0.97      0.00
   -3   -3    8     -0.36      0.00
   -2   -3    8     -3.62      0.00
   -1   -3    8     -2.89      0.00
    0   -3    8      4.22      0.00
    1   -3    8      6.34      0.00
    2   -3    8      3.22      0.00
    3   -3    8      3.36      0.00
    4   -3    8      6.07      0.00
    5   -3    8      5.32      0.00
    6   -3    8      2.57      0.00
    7   -3    8      0.75      0.00
    8   -3    8      0.09      0.00
    9   -3    8     -0.19      0.00
   10   -3    8      0.48      0.00
  -15   -2    8     -1.10      0.00
  -14   -2    8     -1.81      0.00
  -13   -2    8     -1.22      0.00
  -12   -2    8     -1.70      0.00
  -11   -2    8     -5.19      0.00
  -10   -2    8     -7.92      0.00
   -9   -2    8     -3.89      0.00
   -8   -2    8      3.97      0.00
   -7   -2    8      8.71      0.00
   -6   -2    8     10.54      0.00
   -5   -2    8      9.40      0.00
   -4   -2    8      3.12      0.00
   -3   -2    8     -0.10      0.00
   -2   -2    8      5.48      0.00
   -1   -2    8     11.53      0.00
    0   -2    8      7.58      0.00
    1   -2    8      2.40      0.00
    2   -2    8      2.95      0.00
    3   -2    8      2.69      0.00
    4   -2    8     -1.14      0.00
    5   -2    8     -2.32      0.00
    6   -2    8     -0.92      0.00
    7   -2    8     -0.43      0.00
    8   -2    8     -0.94      0.00
    9   -2    8     -0.97      0.00
   10   -2    8     -0.99      0.00
  -16   -1    8      0.31      0.00
  -15   -1    8      0.75      0.00
  -14   -1    8      1.49      0.00
  -13   -1    8      1.31      0.00
  -12   -1    8      0.83      0.00
  -11   -1    8      4.37      0.00
  -10   -1    8     10.26      0.00
   -9   -1    8      9.66      0.00
   -8   -1    8      3.14      0.00
   -7   -1    8      0.87      0.00
   -6   -1    8      4.55      0.00
   -5   -1    8      9.14      0.00
   -4   -1    8     13.47      0.00
   -3   -1    8     14.24      0.00
   -2   -1    8      7.25      0.00
   -1   -1    8     -2.12      0.00
    0   -1    8     -1.78      0.00
    1   -1    8      2.62      0.00
    2   -1    8      1.57      0.00
    3   -1    8     -1.45      0.00
    4   -1    8     -1.24      0.00
    5   -1    8     -0.57      0.00
    6   -1    8     -1.00      0.00
    7   -1    8     -1.28      0.00
    8   -1    8     -1.01      0.00
    9   -1    8     -0.72      0.00
  -16    0    8      0.06      0.00
  -15    0    8      1.00      0.00
  -14    0    8      1.77      0.00
  -13    0    8      3.00      0.00
  -12    0    8      4.98      0.00
  -11    0    8      3.16      0.00
  -10    0    8     -3.33      0.00
   -9    0    8     -6.65      0.00
   -8    0    8     -3.30      0.00
   -7    0    8     -1.96      0.00
   -6    0    8     -5.88      0.00
   -5    0    8     -8.99      0.00
   -4    0    8    -11.82      0.00
   -3    0    8    -16.48      0.00
   -2    0    8    -16.61      0.00
   -1    0    8     -9.79      0.00
    0    0    8     -6.67      0.00
    1    0    8     -8.36      0.00
    2    0    8     -7.06      0.00
    3    0    8     -2.29      0.00
    4    0    8     -0.25      0.00
    5    0    8     -0.80      0.00
    6    0    8     -0.62      0.00
    7    0    8      0.42      0.00
    8    0    8      1.08      0.00
    9    0    8      0.72      0.00
  -16    1    8      0.03      0.00
  -15    1    8     -0.50      0.00
  -14    1    8     -0.80      0.00
  -13    1    8     -1.03      0.00
  -12    1    8     -2.52      0.00
  -11    1    8     -2.46      0.00
  -10    1    8      3.06      0.00
   -9    1    8      7.79      0.00
   -8    1    8      3.61      0.00
   -7    1    8     -3.20      0.00
   -6    1    8     -4.85      0.00
   -5    1    8     -3.11      0.00
   -4    1    8      0.50      0.00
   -3    1    8      6.27      0.00
   -2    1    8      8.04      0.00
   -1    1    8      1.34      0.00
    0    1    8     -4.25      0.00
    1    1    8     -2.68      0.00
    2    1    8      0.28      0.00
    3    1    8     -0.13      0.00
    4    1    8     -0.52      0.00
    5    1    8      0.60      0.00
    6    1    8      1.42      0.00
    7    1    8      1.12      0.00
    8    1    8      0.32      0.00
  -17    2    8      1.99      0.00
  -16    2    8      1.67      0.00
  -15    2    8      1.25      0.00
  -14    2    8      0.56      0.00
  -13    2    8     -0.81      0.00
  -12    2    8     -0.83      0.00
  -11    2    8      0.02      0.00
  -10    2    8     -2.46      0.00
   -9    2    8     -5.99      0.00
   -8    2    8     -3.25      0.00
   -7    2    8      3.20      0.00
   -6    2    8      4.44      0.00
   -5    2    8      1.00      0.00
   -4    2    8     -1.04      0.00
   -3    2    8     -2.49      0.00
   -2    2    8     -2.77      0.00
   -1    2    8      1.93      0.00
    0    2    8      6.89      0.00
    1    2    8      5.81      0.00
    2    2    8      1.20      0.00
    3    2    8     -0.20      0.00
    4    2    8      0.92      0.00
    5    2    8      0.78      0.00
    6    2    8     -0.59      0.00
    7    2    8     -1.06      0.00
    8    2    8     -0.11      0.00
  -17    3    8     -2.00      0.00
  -16    3    8     -1.85      0.00
  -15    3    8     -1.96      0.00
  -14    3    8     -2.41      0.00
  -13    3    8     -2.46      0.00
  -12    3    8     -2.84      0.00
  -11    3    8     -5.75      0.00
  -10    3    8     -6.96      0.00
   -9    3    8     -2.75      0.00
   -8    3    8      0.24      0.00
   -7    3    8     -2.42      0.00
   -6    3    8     -4.55      0.00
   -5    3    8     -3.98      0.00
   -4    3    8     -4.50      0.00
   -3    3    8     -3.79      0.00
   -2    3    8     -0.63      0.00
   -1    3    8      0.23      0.00
    0    3    8     -2.37      0.00
    1    3    8     -2.99      0.00
    2    3    8      0.11      0.00
    3    3    8      1.56      0.00
    4    3    8      0.38      0.00
    5    3    8     -0.30      0.00
    6    3    8      0.50      0.00
    7    3    8      1.23      0.00
  -17    4    8      0.01      0.00
  -16    4    8     -0.21      0.00
  -15    4    8      0.47      0.00
  -14    4    8      2.51      0.00
  -13    4    8      3.88      0.00
  -12    4    8      3.74      0.00
  -11    4    8      5.18      0.00
  -10    4    8      5.33      0.00
   -9    4    8      0.26      0.00
   -8    4    8     -4.83      0.00
   -7    4    8     -2.56      0.00
   -6    4    8      3.08      0.00
   -5    4    8      5.33      0.00
   -4    4    8      5.30      0.00
   -3    4    8      4.31      0.00
   -2    4    8      2.37      0.00
   -1    4    8      1.43      0.00
    0    4    8      3.72      0.00
    1    4    8      5.47      0.00
    2    4    8      3.03      0.00
    3    4    8      0.01      0.00
    4    4    8     -0.05      0.00
    5    4    8      1.18      0.00
    6    4    8      0.61      0.00
    7    4    8     -1.07      0.00
  -17    5    8      0.91      0.00
  -16    5    8      1.05      0.00
  -15    5    8     -0.36      0.00
  -14    5    8     -2.50      0.00
  -13    5    8     -3.71      0.00
  -12    5    8     -1.84      0.00
  -11    5    8      0.53      0.00
  -10    5    8      1.31      0.00
   -9    5    8      3.51      0.00
   -8    5    8      8.03      0.00
   -7    5    8      7.77      0.00
   -6    5    8      3.68      0.00
   -5    5    8      2.77      0.00
   -4    5    8      3.81      0.00
   -3    5    8      2.76      0.00
   -2    5    8      0.25      0.00
   -1    5    8     -0.82      0.00
    0    5    8     -2.65      0.00
    1    5    8     -4.88      0.00
    2    5    8     -3.97      0.00
    3    5    8     -1.61      0.00
    4    5    8     -1.35      0.00
    5    5    8     -2.22      0.00
    6    5    8     -1.73      0.00
  -17    6    8     -1.04      0.00
  -16    6    8     -0.91      0.00
  -15    6    8     -0.16      0.00
  -14    6    8      0.90      0.00
  -13    6    8      2.14      0.00
  -12    6    8      0.36      0.00
  -11    6    8     -2.06      0.00
  -10    6    8     -1.47      0.00
   -9    6    8     -1.16      0.00
   -8    6    8     -5.34      0.00
   -7    6    8     -7.97      0.00
   -6    6    8     -6.23      0.00
   -5    6    8     -4.55      0.00
   -4    6    8     -4.67      0.00
   -3    6    8     -3.47      0.00
   -2    6    8     -0.64      0.00
   -1    6    8     -0.12      0.00
    0    6    8      0.30      0.00
    1    6    8      2.09      0.00
    2    6    8      2.55      0.00
    3    6    8      0.98      0.00
    4    6    8     -0.54      0.00
    5    6    8     -0.62      0.00
  -17    7    8      0.14      0.00
  -16    7    8      0.22      0.00
  -15    7    8     -0.18      0.00
  -14    7    8     -0.69      0.00
  -13    7    8     -1.74      0.00
  -12    7    8     -1.63      0.00
  -11    7    8     -0.18      0.00
  -10    7    8      0.31      0.00
   -9    7    8     -0.50      0.00
   -8    7    8      2.18      0.00
   -7    7    8      5.18      0.00
   -6    7    8      3.74      0.00
   -5    7    8      0.89      0.00
   -4    7    8      1.16      0.00
   -3    7    8      1.85      0.00
   -2    7    8      0.24      0.00
   -1    7    8     -0.17      0.00
    0    7    8      0.16      0.00
    1    7    8     -0.60      0.00
    2    7    8     -1.25      0.00
    3    7    8     -0.10      0.00
    4    7    8      1.49      0.00
  -16    8    8     -0.56      0.00
  -15    8    8      0.20      0.00
  -14    8    8      0.34      0.00
  -13    8    8      2.07      0.00
  -12    8    8      4.04      0.00
  -11    8    8      3.06      0.00
  -10    8    8      1.38      0.00
   -9    8    8      2.55      0.00
   -8    8    8      2.04      0.00
   -7    8    8     -0.41      0.00
   -6    8    8     -0.78      0.00
   -5    8    8      1.07      0.00
   -4    8    8      0.58      0.00
   -3    8    8     -1.04      0.00
   -2    8    8     -0.13      0.00
   -1    8    8      0.55      0.00
    0    8    8      0.19      0.00
    1    8    8      0.24      0.00
    2    8    8      0.58      0.00
    3    8    8      0.42      0.00
  -16    9    8      2.50      0.00
  -15    9    8      2.74      0.00
  -14    9    8      2.76      0.00
  -13    9    8      1.06      0.00
  -12    9    8     -0.99      0.00
  -11    9    8     -0.69      0.00
  -10    9    8      0.94      0.00
   -9    9    8     -0.56      0.00
   -8    9    8     -2.04      0.00
   -7    9    8     -0.24      0.00
   -6    9    8      1.51      0.00
   -5    9    8      0.11      0.00
   -4    9    8     -0.25      0.00
   -3    9    8      0.57      0.00
   -2    9    8     -0.22      0.00
   -1    9    8     -0.70      0.00
    0    9    8     -0.13      0.00
    1    9    8      0.94      0.00
    2    9    8      1.59      0.00
  -16   10    8     -3.12      0.00
  -15   10    8     -2.76      0.00
  -14   10    8     -2.55      0.00
  -13   10    8     -2.33      0.00
  -12   10    8     -1.51      0.00
  -11   10    8     -1.36      0.00
  -10   10    8     -2.53      0.00
   -9   10    8     -1.40      0.00
   -8   10    8      0.59      0.00
   -7   10    8      0.04      0.00
   -6   10    8     -1.87      0.00
   -5   10    8     -1.31      0.00
   -4   10    8      0.11      0.00
   -3   10    8      0.59      0.00
   -2   10    8      0.61      0.00
   -1   10    8      0.10      0.00
    0   10    8     -0.67      0.00
    1   10    8     -1.63      0.00
  -15   11    8      0.76      0.00
  -14   11    8      0.56      0.00
  -13   11    8      0.72      0.00
  -12   11    8      0.12      0.00
  -11   11    8     -1.32      0.00
  -10   11    8     -1.01      0.00
   -9   11    8     -0.64      0.00
   -8   11    8     -2.08      0.00
   -7   11    8     -2.74      0.00
   -6   11    8     -1.16      0.00
   -5   11    8     -1.24      0.00
   -4   11    8     -2.34      0.00
   -3   11    8     -2.09      0.00
   -2   11    8     -1.11      0.00
   -1   11    8     -0.05      0.00
  -14   12    8     -0.50      0.00
  -13   12    8     -0.87      0.00
  -12   12    8     -0.53      0.00
  -11   12    8      1.45      0.00
  -10   12    8      1.42      0.00
   -9   12    8      0.12      0.00
   -8   12    8      0.60      0.00
   -7   12    8      1.70      0.00
   -6   12    8      1.22      0.00
   -5   12    8      0.50      0.00
   -4   12    8      0.36      0.00
   -3   12    8      1.04      0.00
   -2   12    8      1.44      0.00
  -13   13    8      0.99      0.00
  -12   13    8      1.15      0.00
  -11   13    8     -0.56      0.00
  -10   13    8     -1.48      0.00
   -9   13    8      0.02      0.00
   -8   13    8      1.34      0.00
   -7   13    8      0.84      0.00
   -6   13    8      1.22      0.00
   -5   13    8      2.46      0.00
   -4   13    8      2.04      0.00
  -10   14    8      3.02      0.00
   -9   14    8      1.46      0.00
   -8   14    8     -0.59      0.00
   -2  -16    9      2.36      0.00
   -1  -16    9      0.31      0.00
    0  -16    9      0.60      0.00
    1  -16    9      1.76      0.00
    2  -16    9      0.79      0.00
    3  -16    9      0.18      0.00
    4  -16    9      0.98      0.00
    5  -16    9      0.53      0.00
    6  -16    9     -0.72      0.00
   -4  -15    9     -0.13      0.00
   -3  -15    9     -2.48      0.00
   -2  -15    9     -3.01      0.00
   -1  -15    9      0.01      0.00
    0  -15    9      0.85      0.00
    1  -15    9     -0.74      0.00
    2  -15    9     -1.08      0.00
    3  -15    9     -0.05      0.00
    4  -15    9     -0.30      0.00
    5  -15    9     -0.97      0.00
    6  -15    9     -0.20      0.00
    7  -15    9      1.18      0.00
   -6  -14    9     -0.11      0.00
   -5  -14    9      0.80      0.00
   -4  -14    9      1.32      0.00
   -3  -14    9      2.64      0.00
   -2  -14    9      4.09      0.00
   -1  -14    9      1.46      0.00
    0  -14    9     -1.20      0.00
    1  -14    9      0.02      0.00
    2  -14    9      1.55      0.00
    3  -14    9      0.43      0.00
    4  -14    9      0.41      0.00
    5  -14    9      1.97      0.00
    6  -14    9      2.13      0.00
    7  -14    9      0.22      0.00
    8  -14    9     -0.60      0.00
   -7  -13    9      1.83      0.00
   -6  -13    9     -0.08      0.00
   -5  -13    9     -1.23      0.00
   -4  -13    9      0.00      0.00
   -3  -13    9     -0.53      0.00
   -2  -13    9     -3.37      0.00
   -1  -13    9     -1.88      0.00
    0  -13    9      2.05      0.00
    1  -13    9      2.56      0.00
    2  -13    9      0.66      0.00
    3  -13    9      0.32      0.00
    4  -13    9      0.08      0.00
    5  -13    9     -1.95      0.00
    6  -13    9     -3.73      0.00
    7  -13    9     -2.18      0.00
    8  -13    9     -0.82      0.00
    9  -13    9     -1.54      0.00
   -9  -12    9     -0.96      0.00
   -8  -12    9     -1.06      0.00
   -7  -12    9     -0.89      0.00
   -6  -12    9     -0.23      0.00
   -5  -12    9      0.46      0.00
   -4  -12    9     -0.36      0.00
   -3  -12    9     -0.62      0.00
   -2  -12    9      1.18      0.00
   -1  -12    9      0.39      0.00
    0  -12    9     -4.75      0.00
    1  -12    9     -7.98      0.00
    2  -12    9     -5.68      0.00
    3  -12    9     -3.08      0.00
    4  -12    9     -2.55      0.00
    5  -12    9     -1.14      0.00
    6  -12    9      1.01      0.00
    7  -12    9      0.07      0.00
    8  -12    9     -1.38      0.00
    9  -12    9     -0.42      0.00
  -10  -11    9     -0.58      0.00
   -9  -11    9     -0.84      0.00
   -8  -11    9     -1.08      0.00
   -7  -11    9     -0.07      0.00
   -6  -11    9      0.08      0.00
   -5  -11    9     -2.24      0.00
   -4  -11    9     -3.06      0.00
   -3  -11    9     -1.18      0.00
   -2  -11    9     -1.18      0.00
   -1  -11    9     -1.71      0.00
    0  -11    9      2.28      0.00
    1  -11    9      6.39      0.00
    2  -11    9      5.22      0.00
    3  -11    9      2.33      0.00
    4  -11    9      1.99      0.00
    5  -11    9      2.25      0.00
    6  -11    9      0.61      0.00
    7  -11    9      0.73      0.00
    8  -11    9      1.99      0.00
    9  -11    9      1.01      0.00
  -11  -10    9      0.36      0.00
  -10  -10    9      0.48      0.00
   -9  -10    9      0.91      0.00
   -8  -10    9      1.29      0.00
   -7  -10    9     -0.05      0.00
   -6  -10    9     -0.94      0.00
   -5  -10    9      0.56      0.00
   -4  -10    9      1.05      0.00
   -3  -10    9     -1.44      0.00
   -2  -10    9     -2.37      0.00
   -1  -10    9      0.34      0.00
    0  -10    9      0.14      0.00
    1  -10    9     -4.50      0.00
    2  -10    9     -7.11      0.00
    3  -10    9     -4.92      0.00
    4  -10    9     -3.03      0.00
    5  -10    9     -2.35      0.00
    6  -10    9      0.05      0.00
    7  -10    9      1.01      0.00
    8  -10    9     -0.20      0.00
    9  -10    9     -0.80      0.00
   10  -10    9     -0.49      0.00
  -12   -9    9      1.62      0.00
  -11   -9    9      0.30      0.00
  -10   -9    9     -1.55      0.00
   -9   -9    9     -3.07      0.00
   -8   -9    9     -4.17      0.00
   -7   -9    9     -3.28      0.00
   -6   -9    9     -1.10      0.00
   -5   -9    9     -0.41      0.00
   -4   -9    9     -1.63      0.00
   -3   -9    9     -0.75      0.00
   -2   -9    9      1.04      0.00
   -1   -9    9     -1.69      0.00
    0   -9    9     -2.64      0.00
    1   -9    9      3.48      0.00
    2   -9    9      9.68      0.00
    3   -9    9      8.52      0.00
    4   -9    9      4.51      0.00
    5   -9    9      2.42      0.00
    6   -9    9      0.71      0.00
    7   -9    9     -0.16      0.00
    8   -9    9      0.99      0.00
    9   -9    9      2.15      0.00
   10   -9    9      1.37      0.00
  -12   -8    9     -2.76      0.00
  -11   -8    9     -1.28      0.00
  -10   -8    9      1.41      0.00
   -9   -8    9      2.91      0.00
   -8   -8    9      4.15      0.00
   -7   -8    9      4.62      0.00
   -6   -8    9      3.41      0.00
   -5   -8    9      3.17      0.00
   -4   -8    9      6.62      0.00
   -3   -8    9      8.25      0.00
   -2   -8    9      5.60      0.00
   -1   -8    9      5.75      0.00
    0   -8    9      7.36      0.00
    1   -8    9      4.22      0.00
    2   -8    9     -2.03      0.00
    3   -8    9     -2.57      0.00
    4   -8    9      0.91      0.00
    5   -8    9      1.92      0.00
    6   -8    9      1.62      0.00
    7   -8    9      1.87      0.00
    8   -8    9      1.05      0.00
    9   -8    9     -0.05      0.00
   10   -8    9      0.04      0.00
  -13   -7    9     -2.91      0.00
  -12   -7    9      0.73      0.00
  -11   -7    9      0.84      0.00
  -10   -7    9     -0.92      0.00
   -9   -7    9     -1.62      0.00
   -8   -7    9     -2.08      0.00
   -7   -7    9     -2.95      0.00
   -6   -7    9     -2.39      0.00
   -5   -7    9     -0.66      0.00
   -4   -7    9     -2.23      0.00
   -3   -7    9     -4.16      0.00
   -2   -7    9     -1.03      0.00
   -1   -7    9      0.40      0.00
    0   -7    9     -3.26      0.00
    1   -7    9     -4.93      0.00
    2   -7    9     -0.67      0.00
    3   -7    9      1.11      0.00
    4   -7    9     -1.61      0.00
    5   -7    9     -3.98      0.00
    6   -7    9     -4.58      0.00
    7   -7    9     -4.89      0.00
    8   -7    9     -4.30      0.00
    9   -7    9     -2.71      0.00
   10   -7    9     -1.37      0.00
  -14   -6    9      2.68      0.00
  -13   -6    9      3.82      0.00
  -12   -6    9     -0.20      0.00
  -11   -6    9     -1.37      0.00
  -10   -6    9      0.79      0.00
   -9   -6    9      2.53      0.00
   -8   -6    9      2.95      0.00
   -7   -6    9      3.70      0.00
   -6   -6    9      2.61      0.00
   -5   -6    9     -2.54      0.00
   -4   -6    9     -4.76      0.00
   -3   -6    9     -2.48      0.00
   -2   -6    9     -3.38      0.00
   -1   -6    9     -5.44      0.00
    0   -6    9     -3.93      0.00
    1   -6    9     -1.45      0.00
    2   -6    9     -4.13      0.00
    3   -6    9     -7.10      0.00
    4   -6    9     -4.64      0.00
    5   -6    9      0.29      0.00
    6   -6    9      2.46      0.00
    7   -6    9      3.19      0.00
    8   -6    9      3.14      0.00
    9   -6    9      2.03      0.00
   10   -6    9      0.90      0.00
  -14   -5    9     -0.48      0.00
  -13   -5    9     -1.40      0.00
  -12   -5    9      1.70      0.00
  -11   -5    9      3.15      0.00
  -10   -5    9      0.78      0.00
   -9   -5    9     -2.34      0.00
   -8   -5    9     -3.52      0.00
   -6   -5    9     -4.07      0.00
   -5   -5    9      1.11      0.00
   -4   -5    9      5.06      0.00
   -3   -5    9      3.31      0.00
   -2   -5    9      2.76      0.00
   -1   -5    9      5.76      0.00
    0   -5    9      6.68      0.00
    1   -5    9      3.29      0.00
    2   -5    9      3.79      0.00
    3   -5    9      7.64      0.00
    4   -5    9      7.69      0.00
    5   -5    9      3.76      0.00
    6   -5    9      1.24      0.00
    7   -5    9      0.13      0.00
    8   -5    9     -0.33      0.00
    9   -5    9     -0.55      0.00
   10   -5    9     -0.43      0.00
  -15   -4    9     -0.27      0.00
  -14   -4    9      0.08      0.00
  -13   -4    9      1.93      0.00
  -12   -4    9      0.37      0.00
  -11   -4    9     -2.02      0.00
  -10   -4    9     -1.20      0.00
   -9   -4    9      2.13      0.00
   -8   -4    9      4.55      0.00
   -7   -4    9      6.73      0.00
   -6   -4    9      8.93      0.00
   -5   -4    9      5.86      0.00
   -4   -4    9     -0.58      0.00
   -3   -4    9     -2.34      0.00
   -2   -4    9     -0.84      0.00
   -1   -4    9     -1.04      0.00
    0   -4    9     -1.74      0.00
    1   -4    9      1.10      0.00
    2   -4    9      1.90      0.00
    3   -4    9     -2.45      0.00
    4   -4    9     -6.02      0.00
    5   -4    9     -4.18      0.00
    6   -4    9     -1.88      0.00
    7   -4    9     -1.35      0.00
    8   -4    9     -1.08      0.00
    9   -4    9     -0.26      0.00
  -15   -3    9      0.33      0.00
  -14   -3    9     -0.30      0.00
  -13   -3    9     -2.47      0.00
  -12   -3    9     -1.73      0.00
  -11   -3    9      2.30      0.00
  -10   -3    9      4.98      0.00
   -9   -3    9      2.78      0.00
   -8   -3    9     -0.92      0.00
   -7   -3    9     -3.24      0.00
   -6   -3    9     -4.69      0.00
   -5   -3    9     -1.56      0.00
   -4   -3    9      5.03      0.00
   -3   -3    9      5.70      0.00
   -2   -3    9     -1.10      0.00
   -1   -3    9     -6.52      0.00
    0   -3    9     -5.56      0.00
    1   -3    9     -5.50      0.00
    2   -3    9     -6.17      0.00
    3   -3    9     -2.30      0.00
    4   -3    9      2.40      0.00
    5   -3    9      1.99      0.00
    6   -3    9      0.48      0.00
    7   -3    9      0.33      0.00
    8   -3    9      0.43      0.00
    9   -3    9      0.08      0.00
  -16   -2    9      0.12      0.00
  -15   -2    9      0.41      0.00
  -14   -2    9      1.19      0.00
  -13   -2    9      3.39      0.00
  -12   -2    9      3.84      0.00
  -11   -2    9     -0.99      0.00
  -10   -2    9     -6.61      0.00
   -9   -2    9     -6.51      0.00
   -8   -2    9     -3.80      0.00
   -7   -2    9     -4.44      0.00
   -6   -2    9     -6.44      0.00
   -5   -2    9     -8.71      0.00
   -4   -2    9    -12.34      0.00
   -3   -2    9    -12.67      0.00
   -2   -2    9     -5.85      0.00
   -1   -2    9      1.21      0.00
    0   -2    9      0.85      0.00
    1   -2    9     -0.22      0.00
    2   -2    9      1.47      0.00
    3   -2    9      0.97      0.00
    4   -2    9     -2.13      0.00
    5   -2    9     -2.49      0.00
    6   -2    9     -1.00      0.00
    7   -2    9     -0.16      0.00
    8   -2    9      0.02      0.00
    9   -2    9      0.22      0.00
  -16   -1    9     -0.48      0.00
  -15   -1    9     -0.79      0.00
  -14   -1    9     -0.99      0.00
  -13   -1    9     -3.00      0.00
  -12   -1    9     -5.22      0.00
  -11   -1    9     -2.75      0.00
  -10   -1    9      3.29      0.00
   -9   -1    9      5.64      0.00
   -8   -1    9      3.05      0.00
   -7   -1    9      1.53      0.00
   -6   -1    9      0.60      0.00
   -5   -1    9     -0.66      0.00
   -4   -1    9      1.99      0.00
   -3   -1    9      6.57      0.00
   -2   -1    9      4.65      0.00
   -1   -1    9     -1.81      0.00
    0   -1    9     -2.47      0.00
    1   -1    9     -0.03      0.00
    2   -1    9     -0.54      0.00
    3   -1    9     -0.90      0.00
    4   -1    9      1.84      0.00
    5   -1    9      3.11      0.00
    6   -1    9      2.29      0.00
    7   -1    9      1.46      0.00
    8   -1    9      0.79      0.00
  -16    0    9      1.02      0.00
  -15    0    9      0.22      0.00
  -14    0    9     -1.07      0.00
  -13    0    9     -0.56      0.00
  -12    0    9      2.49      0.00
  -11    0    9      2.28      0.00
  -10    0    9     -4.09      0.00
   -9    0    9     -8.30      0.00
   -8    0    9     -4.29      0.00
   -7    0    9      1.34      0.00
   -6    0    9      4.29      0.00
   -5    0    9      5.35      0.00
   -4    0    9      3.51      0.00
   -3    0    9     -0.46      0.00
   -2    0    9      0.96      0.00
   -1    0    9      8.08      0.00
    0    0    9     10.18      0.00
    1    0    9      6.44      0.00
    2    0    9      3.61      0.00
    3    0    9      2.76      0.00
    4    0    9      1.00      0.00
    5    0    9     -0.68      0.00
    6    0    9     -1.60      0.00
    7    0    9     -1.80      0.00
    8    0    9     -1.10      0.00
  -16    1    9     -3.19      0.00
  -15    1    9     -2.83      0.00
  -14    1    9     -1.72      0.00
  -13    1    9     -1.95      0.00
  -12    1    9     -4.96      0.00
  -11    1    9     -6.10      0.00
  -10    1    9     -0.91      0.00
   -9    1    9      5.20      0.00
   -8    1    9      4.54      0.00
   -7    1    9      1.20      0.00
   -6    1    9      0.92      0.00
   -5    1    9      1.50      0.00
   -4    1    9      1.55      0.00
   -3    1    9      4.25      0.00
   -2    1    9      5.21      0.00
   -1    1    9      0.63      0.00
    0    1    9     -2.27      0.00
    1    1    9      0.14      0.00
    2    1    9      2.45      0.00
    3    1    9      0.92      0.00
    4    1    9     -0.49      0.00
    5    1    9      0.20      0.00
    6    1    9      1.69      0.00
    7    1    9      2.33      0.00
    8    1    9      1.24      0.00
  -17    2    9      1.96      0.00
  -16    2    9      2.65      0.00
  -15    2    9      3.41      0.00
  -14    2    9      3.79      0.00
  -13    2    9      4.57      0.00
  -12    2    9      6.94      0.00
  -11    2    9      9.48      0.00
  -10    2    9      6.08      0.00
   -9    2    9     -2.19      0.00
   -8    2    9     -5.49      0.00
   -7    2    9     -2.62      0.00
   -6    2    9      0.18      0.00
   -5    2    9      1.62      0.00
   -4    2    9      2.12      0.00
   -3    2    9     -1.70      0.00
   -2    2    9     -6.16      0.00
   -1    2    9     -5.39      0.00
    0    2    9     -2.64      0.00
    1    2    9     -2.66      0.00
    2    2    9     -3.78      0.00
    3    2    9     -2.68      0.00
    4    2    9     -1.28      0.00
    5    2    9     -1.33      0.00
    6    2    9     -2.79      0.00
    7    2    9     -3.63      0.00
  -17    3    9     -0.11      0.00
  -16    3    9     -0.56      0.00
  -15    3    9     -1.35      0.00
  -14    3    9     -1.75      0.00
  -13    3    9     -1.29      0.00
  -12    3    9     -1.08      0.00
  -11    3    9     -2.06      0.00
  -10    3    9      0.27      0.00
   -9    3    9      6.70      0.00
   -8    3    9      9.56      0.00
   -7    3    9      4.74      0.00
   -6    3    9     -1.09      0.00
   -5    3    9     -2.79      0.00
   -4    3    9     -2.70      0.00
   -3    3    9     -0.85      0.00
   -2    3    9      1.59      0.00
   -1    3    9      1.05      0.00
    0    3    9     -2.42      0.00
    1    3    9     -4.13      0.00
    2    3    9     -1.96      0.00
    3    3    9     -0.13      0.00
    4    3    9     -0.36      0.00
    5    3    9     -0.50      0.00
    6    3    9      1.14      0.00
  -17    4    9      0.31      0.00
  -16    4    9      0.41      0.00
  -15    4    9      0.61      0.00
  -14    4    9      0.23      0.00
  -13    4    9     -0.62      0.00
  -12    4    9     -2.42      0.00
  -11    4    9     -2.17      0.00
  -10    4    9     -0.81      0.00
   -9    4    9     -2.94      0.00
   -8    4    9     -6.11      0.00
   -7    4    9     -3.68      0.00
   -6    4    9      0.42      0.00
   -5    4    9      1.07      0.00
   -4    4    9      1.18      0.00
   -3    4    9      1.44      0.00
   -2    4    9      0.65      0.00
   -1    4    9      0.37      0.00
    0    4    9      2.86      0.00
    1    4    9      4.87      0.00
    2    4    9      3.23      0.00
    3    4    9      1.19      0.00
    4    4    9      0.72      0.00
    5    4    9      0.98      0.00
    6    4    9      0.42      0.00
  -17    5    9     -0.98      0.00
  -16    5    9     -0.05      0.00
  -15    5    9      1.09      0.00
  -14    5    9      1.45      0.00
  -13    5    9      1.03      0.00
  -12    5    9      1.72      0.00
  -11    5    9      0.26      0.00
  -10    5    9     -3.04      0.00
   -9    5    9     -2.71      0.00
   -8    5    9      1.69      0.00
   -7    5    9      2.38      0.00
   -6    5    9     -1.20      0.00
   -4    5    9     -3.78      0.00
   -3    5    9     -3.15      0.00
   -2    5    9     -1.84      0.00
   -1    5    9      0.37      0.00
    0    5    9      0.64      0.00
    1    5    9     -0.86      0.00
    2    5    9     -0.69      0.00
    3    5    9      1.19      0.00
    4    5    9      2.48      0.00
    5    5    9      1.62      0.00
  -17    6    9      1.20      0.00
  -16    6    9     -0.52      0.00
  -15    6    9     -1.49      0.00
  -14    6    9     -1.47      0.00
  -13    6    9     -0.12      0.00
  -12    6    9      0.24      0.00
  -11    6    9      0.19      0.00
  -10    6    9      1.64      0.00
   -9    6    9      2.53      0.00
   -8    6    9     -0.92      0.00
   -7    6    9     -2.70      0.00
   -6    6    9      0.38      0.00
   -5    6    9      3.18      0.00
   -4    6    9      2.64      0.00
   -3    6    9      1.52      0.00
   -2    6    9      0.71      0.00
   -1    6    9     -1.86      0.00
    0    6    9     -3.25      0.00
    1    6    9     -1.60      0.00
    2    6    9     -0.38      0.00
    3    6    9     -0.90      0.00
    4    6    9     -1.43      0.00
  -16    7    9      1.11      0.00
  -15    7    9      1.76      0.00
  -14    7    9      1.76      0.00
  -13    7    9     -0.30      0.00
  -12    7    9     -0.99      0.00
  -11    7    9      0.23      0.00
  -10    7    9     -0.71      0.00
   -9    7    9     -3.63      0.00
   -8    7    9     -2.17      0.00
   -7    7    9      0.96      0.00
   -6    7    9      0.63      0.00
   -5    7    9     -1.83      0.00
   -4    7    9     -1.90      0.00
   -3    7    9     -0.67      0.00
   -2    7    9      0.10      0.00
   -1    7    9      1.86      0.00
    0    7    9      2.73      0.00
    1    7    9      1.27      0.00
    2    7    9     -0.60      0.00
    3    7    9     -1.57      0.00
  -16    8    9     -1.73      0.00
  -15    8    9     -2.71      0.00
  -14    8    9     -3.09      0.00
  -13    8    9     -2.15      0.00
  -12    8    9     -1.65      0.00
  -11    8    9     -2.07      0.00
  -10    8    9     -1.09      0.00
   -9    8    9      2.45      0.00
   -8    8    9      2.38      0.00
   -7    8    9     -1.22      0.00
   -6    8    9     -2.14      0.00
   -5    8    9      0.76      0.00
   -4    8    9      1.72      0.00
   -3    8    9      0.60      0.00
   -2    8    9     -0.01      0.00
   -1    8    9     -1.05      0.00
    0    8    9     -2.22      0.00
    1    8    9     -2.07      0.00
    2    8    9     -0.73      0.00
  -16    9    9      1.09      0.00
  -15    9    9      1.09      0.00
  -14    9    9      2.01      0.00
  -13    9    9      2.36      0.00
  -12    9    9      1.50      0.00
  -11    9    9      1.17      0.00
  -10    9    9      1.36      0.00
   -9    9    9     -0.71      0.00
   -8    9    9     -1.58      0.00
   -7    9    9      0.71      0.00
   -6    9    9      2.49      0.00
   -5    9    9      0.48      0.00
   -4    9    9     -1.22      0.00
   -3    9    9     -0.85      0.00
   -2    9    9      0.05      0.00
   -1    9    9      1.61      0.00
    0    9    9      3.04      0.00
    1    9    9      2.79      0.00
  -15   10    9     -0.45      0.00
  -14   10    9     -1.31      0.00
  -13   10    9     -1.23      0.00
  -12   10    9      0.29      0.00
  -11   10    9      1.32      0.00
  -10   10    9      0.29      0.00
   -9   10    9      0.95      0.00
   -8   10    9      2.79      0.00
   -7   10    9      1.94      0.00
   -6   10    9     -0.28      0.00
   -5   10    9      0.62      0.00
   -4   10    9      1.97      0.00
   -3   10    9      1.84      0.00
   -2   10    9      0.93      0.00
   -1   10    9     -0.56      0.00
    0   10    9     -1.41      0.00
  -14   11    9      0.96      0.00
  -13   11    9      1.14      0.00
  -12   11    9      0.29      0.00
  -11   11    9     -0.93      0.00
  -10   11    9     -0.12      0.00
   -9   11    9      0.01      0.00
   -8   11    9     -1.51      0.00
   -7   11    9     -1.82      0.00
   -6   11    9      0.09      0.00
   -5   11    9      1.00      0.00
   -4   11    9      0.19      0.00
   -3   11    9     -1.39      0.00
   -2   11    9     -2.01      0.00
  -13   12    9     -0.68      0.00
  -12   12    9     -0.75      0.00
  -11   12    9      0.78      0.00
  -10   12    9      0.84      0.00
   -9   12    9     -0.43      0.00
   -8   12    9     -0.30      0.00
   -7   12    9      0.22      0.00
   -6   12    9     -1.43      0.00
   -5   12    9     -2.48      0.00
   -4   12    9     -1.42      0.00
  -11   13    9     -0.25      0.00
  -10   13    9     -0.71      0.00
   -9   13    9      0.69      0.00
   -8   13    9      1.25      0.00
   -7   13    9      0.48      0.00
   -6   13    9      0.02      0.00
   -2  -16   10     -0.22      0.00
   -1  -16   10     -2.06      0.00
    0  -16   10     -1.78      0.00
    1  -16   10     -0.62      0.00
    2  -16   10     -0.58      0.00
    3  -16   10     -0.43      0.00
    4  -16   10      0.93      0.00
   -4  -15   10      0.05      0.00
   -3  -15   10     -1.56      0.00
   -2  -15   10     -2.47      0.00
   -1  -15   10      0.25      0.00
    0  -15   10      1.15      0.00
    1  -15   10     -0.86      0.00
    2  -15   10     -1.44      0.00
    3  -15   10     -0.76      0.00
    4  -15   10     -1.82      0.00
    5  -15   10     -2.73      0.00
    6  -15   10     -2.00      0.00
   -6  -14   10      0.14      0.00
   -5  -14   10     -0.75      0.00
   -4  -14   10     -1.20      0.00
   -3  -14   10      1.27      0.00
   -2  -14   10      3.39      0.00
   -1  -14   10      0.93      0.00
    0  -14   10     -1.12      0.00
    1  -14   10      0.35      0.00
    2  -14   10      1.94      0.00
    3  -14   10      1.41      0.00
    4  -14   10      1.37      0.00
    5  -14   10      2.46      0.00
    6  -14   10      2.85      0.00
    7  -14   10      1.38      0.00
   -7  -13   10      1.05      0.00
   -6  -13   10      2.01      0.00
   -5  -13   10      2.05      0.00
   -4  -13   10      2.06      0.00
   -3  -13   10      0.46      0.00
   -2  -13   10     -2.21      0.00
   -1  -13   10     -0.90      0.00
    0  -13   10      2.84      0.00
    1  -13   10      2.52      0.00
    2  -13   10     -0.47      0.00
    3  -13   10     -0.44      0.00
    4  -13   10      0.82      0.00
    5  -13   10      0.26      0.00
    6  -13   10     -0.75      0.00
    7  -13   10      0.69      0.00
    8  -13   10      1.55      0.00
   -9  -12   10      1.04      0.00
   -8  -12   10     -0.20      0.00
   -7  -12   10     -2.51      0.00
   -6  -12   10     -3.05      0.00
   -5  -12   10     -1.87      0.00
   -4  -12   10     -2.42      0.00
   -3  -12   10     -2.10      0.00
   -2  -12   10      1.58      0.00
   -1  -12   10      2.67      0.00
    0  -12   10     -0.72      0.00
    1  -12   10     -1.91      0.00
    2  -12   10      0.02      0.00
    3  -12   10      0.36      0.00
    4  -12   10     -1.03      0.00
    5  -12   10     -1.09      0.00
    6  -12   10      0.31      0.00
    7  -12   10     -0.58      0.00
    8  -12   10     -1.24      0.00
  -10  -11   10     -0.07      0.00
   -9  -11   10     -0.50      0.00
   -8  -11   10     -0.50      0.00
   -7  -11   10      0.94      0.00
   -6  -11   10      2.05      0.00
   -5  -11   10      2.22      0.00
   -4  -11   10      3.32      0.00
   -3  -11   10      3.47      0.00
   -2  -11   10     -0.16      0.00
   -1  -11   10     -3.75      0.00
    0  -11   10     -1.27      0.00
    1  -11   10      3.50      0.00
    2  -11   10      4.39      0.00
    3  -11   10      2.75      0.00
    4  -11   10      2.34      0.00
    5  -11   10      1.73      0.00
    6  -11   10     -0.47      0.00
    7  -11   10     -0.47      0.00
    8  -11   10      0.74      0.00
    9  -11   10      0.87      0.00
  -11  -10   10      0.19      0.00
  -10  -10   10      0.61      0.00
   -9  -10   10      2.23      0.00
   -8  -10   10      4.16      0.00
   -7  -10   10      3.44      0.00
   -6  -10   10      1.31      0.00
   -5  -10   10      1.12      0.00
   -4  -10   10      2.07      0.00
   -3  -10   10      1.87      0.00
   -2  -10   10      3.41      0.00
   -1  -10   10      6.65      0.00
    0  -10   10      3.97      0.00
    1  -10   10     -2.88      0.00
    2  -10   10     -5.97      0.00
    3  -10   10     -4.04      0.00
    4  -10   10     -2.47      0.00
    5  -10   10     -2.37      0.00
    6  -10   10     -1.32      0.00
    7  -10   10     -1.49      0.00
    8  -10   10     -2.76      0.00
    9  -10   10     -2.49      0.00
  -12   -9   10      1.59      0.00
  -11   -9   10      1.10      0.00
  -10   -9   10      0.51      0.00
   -9   -9   10     -0.92      0.00
   -8   -9   10     -3.04      0.00
   -7   -9   10     -3.04      0.00
   -6   -9   10     -2.03      0.00
   -5   -9   10     -3.44      0.00
   -4   -9   10     -6.32      0.00
   -3   -9   10     -6.22      0.00
   -2   -9   10     -5.10      0.00
   -1   -9   10     -7.40      0.00
    0   -9   10     -8.25      0.00
    1   -9   10     -4.18      0.00
    2   -9   10      0.47      0.00
    3   -9   10      0.23      0.00
    4   -9   10     -0.81      0.00
    5   -9   10      0.21      0.00
    6   -9   10      0.47      0.00
    7   -9   10      0.51      0.00
    8   -9   10      1.12      0.00
    9   -9   10      1.19      0.00
  -12   -8   10     -2.10      0.00
  -11   -8   10     -2.14      0.00
  -10   -8   10     -1.35      0.00
   -9   -8   10     -0.53      0.00
   -8   -8   10      0.78      0.00
   -7   -8   10      1.50      0.00
   -6   -8   10      1.17      0.00
   -5   -8   10      0.63      0.00
   -4   -8   10      1.94      0.00
   -3   -8   10      1.81      0.00
   -2   -8   10     -0.11      0.00
   -1   -8   10      2.97      0.00
    0   -8   10      7.70      0.00
    1   -8   10      6.00      0.00
    2   -8   10     -0.35      0.00
    3   -8   10     -2.32      0.00
    4   -8   10     -0.65      0.00
    5   -8   10      0.49      0.00
    6   -8   10      1.00      0.00
    7   -8   10      1.41      0.00
    8   -8   10      0.88      0.00
    9   -8   10     -0.08      0.00
  -13   -7   10      0.06      0.00
  -12   -7   10      2.97      0.00
  -11   -7   10      2.65      0.00
  -10   -7   10      0.76      0.00
   -9   -7   10     -0.31      0.00
   -8   -7   10     -1.44      0.00
   -7   -7   10     -3.24      0.00
   -6   -7   10     -2.97      0.00
   -5   -7   10      0.24      0.00
   -4   -7   10      0.30      0.00
   -3   -7   10     -1.57      0.00
   -2   -7   10     -1.26      0.00
   -1   -7   10     -3.04      0.00
    0   -7   10     -6.71      0.00
    1   -7   10     -5.74      0.00
    2   -7   10      1.56      0.00
    3   -7   10      5.81      0.00
    4   -7   10      4.01      0.00
    5   -7   10      1.42      0.00
    6   -7   10      0.71      0.00
    7   -7   10      0.16      0.00
    8   -7   10      0.10      0.00
    9   -7   10      0.30      0.00
  -14   -6   10     -0.79      0.00
  -13   -6   10      0.09      0.00
  -12   -6   10     -2.27      0.00
  -11   -6   10     -2.85      0.00
  -10   -6   10     -1.41      0.00
   -9   -6   10     -0.34      0.00
   -8   -6   10      0.50      0.00
   -7   -6   10      2.55      0.00
   -6   -6   10      3.46      0.00
   -5   -6   10      0.57      0.00
   -4   -6   10     -0.04      0.00
   -3   -6   10      2.53      0.00
   -2   -6   10      2.22      0.00
   -1   -6   10      1.43      0.00
    0   -6   10      4.38      0.00
    1   -6   10      6.23      0.00
    2   -6   10      0.99      0.00
    3   -6   10     -4.62      0.00
    4   -6   10     -5.27      0.00
    5   -6   10     -3.28      0.00
    6   -6   10     -2.22      0.00
    7   -6   10     -1.20      0.00
    8   -6   10     -0.23      0.00
    9   -6   10      0.31      0.00
  -14   -5   10     -0.70      0.00
  -13   -5   10     -2.85      0.00
  -12   -5   10     -0.38      0.00
  -11   -5   10      2.47      0.00
  -10   -5   10      2.63      0.00
   -9   -5   10      1.61      0.00
   -8   -5   10      1.02      0.00
   -7   -5   10     -1.27      0.00
   -6   -5   10     -4.34      0.00
   -5   -5   10     -2.24      0.00
   -4   -5   10      0.77      0.00
   -3   -5   10      0.07      0.00
   -2   -5   10     -0.23      0.00
   -1   -5   10      0.42      0.00
    0   -5   10     -1.59      0.00
    1   -5   10     -4.77      0.00
    2   -5   10     -2.35      0.00
    3   -5   10      3.82      0.00
    4   -5   10      6.54      0.00
    5   -5   10      4.12      0.00
    6   -5   10      1.92      0.00
    7   -5   10      0.45      0.00
    8   -5   10     -0.72      0.00
    9   -5   10     -1.09      0.00
  -15   -4   10     -0.45      0.00
  -14   -4   10      1.24      0.00
  -13   -4   10      3.39      0.00
  -12   -4   10      1.05      0.00
  -11   -4   10     -3.65      0.00
  -10   -4   10     -5.65      0.00
   -9   -4   10     -4.23      0.00
   -8   -4   10     -2.73      0.00
   -7   -4   10     -0.53      0.00
   -6   -4   10      2.62      0.00
   -5   -4   10      1.02      0.00
   -4   -4   10     -2.41      0.00
   -3   -4   10     -1.23      0.00
   -2   -4   10      1.97      0.00
   -1   -4   10      2.11      0.00
    0   -4   10      1.35      0.00
    1   -4   10      3.33      0.00
    2   -4   10      2.48      0.00
    3   -4   10     -3.14      0.00
    4   -4   10     -6.73      0.00
    5   -4   10     -4.69      0.00
    6   -4   10     -2.03      0.00
    7   -4   10     -0.34      0.00
    8   -4   10      0.73      0.00
    9   -4   10      1.29      0.00
  -15   -3   10      0.17      0.00
  -14   -3   10     -0.54      0.00
  -13   -3   10     -2.71      0.00
  -12   -3   10     -1.78      0.00
  -11   -3   10      2.93      0.00
  -10   -3   10      5.71      0.00
   -9   -3   10      3.84      0.00
   -8   -3   10      1.48      0.00
   -7   -3   10      0.19      0.00
   -6   -3   10     -2.62      0.00
   -5   -3   10     -3.10      0.00
   -4   -3   10     -0.21      0.00
   -3   -3   10      0.93      0.00
   -2   -3   10     -0.82      0.00
   -1   -3   10     -0.72      0.00
    0   -3   10      1.39      0.00
    1   -3   10      0.45      0.00
    2   -3   10     -0.96      0.00
    3   -3   10      2.03      0.00
    4   -3   10      6.19      0.00
    5   -3   10      5.65      0.00
    6   -3   10      3.38      0.00
    7   -3   10      1.86      0.00
    8   -3   10      0.48      0.00
  -15   -2   10     -1.32      0.00
  -14   -2   10     -1.58      0.00
  -13   -2   10      0.35      0.00
  -12   -2   10      1.47      0.00
  -11   -2   10     -1.43      0.00
  -10   -2   10     -5.07      0.00
   -9   -2   10     -4.06      0.00
   -8   -2   10     -0.10      0.00
   -7   -2   10      3.07      0.00
   -6   -2   10      7.28      0.00
   -5   -2   10      9.40      0.00
   -4   -2   10      6.00      0.00
   -3   -2   10      1.42      0.00
   -2   -2   10      1.60      0.00
   -1   -2   10      3.04      0.00
    0   -2   10      1.14      0.00
    1   -2   10      0.88      0.00
    2   -2   10      3.17      0.00
    3   -2   10      1.73      0.00
    4   -2   10     -2.77      0.00
    5   -2   10     -3.96      0.00
    6   -2   10     -3.05      0.00
    7   -2   10     -2.07      0.00
    8   -2   10     -1.00      0.00
  -16   -1   10      0.93      0.00
  -15   -1   10      1.56      0.00
  -14   -1   10      2.20      0.00
  -13   -1   10      0.66      0.00
  -12   -1   10     -1.92      0.00
  -11   -1   10      0.15      0.00
  -10   -1   10      5.78      0.00
   -9   -1   10      6.88      0.00
   -8   -1   10      2.78      0.00
   -7   -1   10      0.00      0.00
   -6   -1   10     -1.45      0.00
   -5   -1   10     -2.07      0.00
   -4   -1   10      0.27      0.00
   -3   -1   10      4.04      0.00
   -2   -1   10      2.73      0.00
   -1   -1   10     -1.50      0.00
    0   -1   10     -1.81      0.00
    1   -1   10     -1.26      0.00
    2   -1   10     -3.27      0.00
    3   -1   10     -3.88      0.00
    4   -1   10     -1.19      0.00
    5   -1   10      0.37      0.00
    6   -1   10      0.23      0.00
    7   -1   10      0.19      0.00
    8   -1   10      0.29      0.00
  -16    0   10      0.35      0.00
  -15    0   10      1.15      0.00
  -14    0   10      1.34      0.00
  -13    0   10      3.23      0.00
  -12    0   10      6.65      0.00
  -11    0   10      6.44      0.00
  -10    0   10      1.10      0.00
   -9    0   10     -2.93      0.00
   -8    0   10     -2.12      0.00
   -7    0   10     -1.88      0.00
   -6    0   10     -3.22      0.00
   -5    0   10     -3.49      0.00
   -4    0   10     -4.74      0.00
   -3    0   10     -9.27      0.00
   -2    0   10    -10.55      0.00
   -1    0   10     -6.92      0.00
    0    0   10     -5.31      0.00
    1    0   10     -5.42      0.00
    2    0   10     -2.73      0.00
    3    0   10      0.47      0.00
    4    0   10      0.49      0.00
    5    0   10      0.22      0.00
    6    0   10      0.32      0.00
    7    0   10     -0.14      0.00
  -16    1   10      0.15      0.00
  -15    1   10     -0.92      0.00
  -14    1   10     -1.13      0.00
  -13    1   10     -2.10      0.00
  -12    1   10     -5.44      0.00
  -11    1   10     -7.66      0.00
  -10    1   10     -3.63      0.00
   -9    1   10      2.03      0.00
   -8    1   10      2.11      0.00
   -7    1   10     -0.41      0.00
   -6    1   10     -1.64      0.00
   -5    1   10     -2.38      0.00
   -4    1   10     -1.72      0.00
   -3    1   10      3.25      0.00
   -2    1   10      6.89      0.00
   -1    1   10      5.37      0.00
    0    1   10      3.54      0.00
    1    1   10      3.44      0.00
    2    1   10      2.86      0.00
    3    1   10      1.43      0.00
    4    1   10      0.74      0.00
    5    1   10      0.30      0.00
    6    1   10      0.61      0.00
    7    1   10      1.23      0.00
  -17    2   10     -0.79      0.00
  -16    2   10     -0.80      0.00
  -15    2   10     -0.37      0.00
  -14    2   10     -1.20      0.00
  -13    2   10     -1.82      0.00
  -12    2   10     -0.13      0.00
  -11    2   10      2.32      0.00
  -10    2   10      0.78      0.00
   -9    2   10     -3.14      0.00
   -8    2   10     -3.07      0.00
   -7    2   10      0.62      0.00
   -6    2   10      2.56      0.00
   -5    2   10      2.53      0.00
   -4    2   10      2.80      0.00
   -3    2   10      0.35      0.00
   -2    2   10     -2.70      0.00
   -1    2   10     -1.73      0.00
    0    2   10      1.16      0.00
    1    2   10      1.48      0.00
    2    2   10     -0.21      0.00
    3    2   10     -0.10      0.00
    4    2   10      1.04      0.00
    5    2   10      1.77      0.00
    6    2   10      1.18      0.00
  -17    3   10      0.57      0.00
  -16    3   10      0.89      0.00
  -15    3   10      0.59      0.00
  -14    3   10      0.68      0.00
  -13    3   10      0.42      0.00
  -12    3   10     -0.83      0.00
  -11    3   10     -4.75      0.00
  -10    3   10     -7.15      0.00
   -9    3   10     -4.37      0.00
   -8    3   10     -1.17      0.00
   -7    3   10     -1.79      0.00
   -6    3   10     -2.75      0.00
   -5    3   10     -2.92      0.00
   -4    3   10     -3.94      0.00
   -3    3   10     -2.42      0.00
   -2    3   10      0.96      0.00
   -1    3   10      1.75      0.00
    0    3   10     -0.12      0.00
    1    3   10     -1.25      0.00
    2    3   10     -0.77      0.00
    3    3   10     -0.79      0.00
    4    3   10     -1.20      0.00
    5    3   10     -2.14      0.00
  -17    4   10     -1.54      0.00
  -16    4   10     -2.65      0.00
  -15    4   10     -2.10      0.00
  -14    4   10     -0.60      0.00
  -13    4   10      1.03      0.00
  -12    4   10      2.44      0.00
  -11    4   10      6.09      0.00
  -10    4   10      8.76      0.00
   -9    4   10      5.87      0.00
   -8    4   10      0.19      0.00
   -7    4   10     -0.90      0.00
   -6    4   10      1.73      0.00
   -5    4   10      3.60      0.00
   -4    4   10      4.18      0.00
   -3    4   10      3.00      0.00
   -2    4   10      0.29      0.00
   -1    4   10     -2.09      0.00
    0    4   10     -1.55      0.00
    1    4   10      0.87      0.00
    2    4   10      1.23      0.00
    3    4   10      0.03      0.00
    4    4   10     -0.60      0.00
    5    4   10      0.26      0.00
  -17    5   10      2.51      0.00
  -16    5   10      3.35      0.00
  -15    5   10      2.01      0.00
  -14    5   10      0.28      0.00
  -13    5   10     -1.37      0.00
  -12    5   10     -0.96      0.00
  -11    5   10     -0.81      0.00
  -10    5   10     -2.19      0.00
   -9    5   10     -1.12      0.00
   -8    5   10      3.97      0.00
   -7    5   10      5.59      0.00
   -6    5   10      3.06      0.00
   -5    5   10      1.59      0.00
   -4    5   10      1.54      0.00
   -3    5   10      1.49      0.00
   -2    5   10      2.26      0.00
   -1    5   10      3.75      0.00
    0    5   10      2.75      0.00
    1    5   10     -0.14      0.00
    2    5   10     -1.18      0.00
    3    5   10     -0.97      0.00
    4    5   10     -0.45      0.00
  -16    6   10     -2.29      0.00
  -15    6   10     -1.36      0.00
  -14    6   10     -0.18      0.00
  -13    6   10      1.17      0.00
  -12    6   10     -0.26      0.00
  -11    6   10     -1.63      0.00
  -10    6   10      0.21      0.00
   -9    6   10      1.66      0.00
   -8    6   10     -1.87      0.00
   -7    6   10     -4.93      0.00
   -6    6   10     -4.14      0.00
   -5    6   10     -2.37      0.00
   -4    6   10     -2.23      0.00
   -3    6   10     -2.46      0.00
   -2    6   10     -2.22      0.00
   -1    6   10     -2.37      0.00
    0    6   10     -1.92      0.00
    1    6   10     -0.18      0.00
    2    6   10      1.37      0.00
    3    6   10      1.85      0.00
  -16    7   10      0.50      0.00
  -15    7   10      0.16      0.00
  -14    7   10     -0.06      0.00
  -13    7   10     -0.54      0.00
  -12    7   10      0.12      0.00
  -11    7   10      1.09      0.00
  -10    7   10     -0.10      0.00
   -9    7   10     -2.67      0.00
   -8    7   10     -0.93      0.00
   -7    7   10      2.42      0.00
   -6    7   10      2.41      0.00
   -5    7   10      0.30      0.00
   -4    7   10      0.19      0.00
   -3    7   10      0.51      0.00
   -2    7   10     -0.22      0.00
   -1    7   10      0.22      0.00
    0    7   10      1.36      0.00
    1    7   10      0.94      0.00
    2    7   10     -0.08      0.00
  -16    8   10      0.62      0.00
  -15    8   10      0.92      0.00
  -14    8   10      0.30      0.00
  -13    8   10      0.81      0.00
  -12    8   10      1.19      0.00
  -11    8   10     -0.13      0.00
  -10    8   10     -0.58      0.00
   -9    8   10      2.06      0.00
   -8    8   10      2.41      0.00
   -7    8   10     -0.52      0.00
   -6    8   10     -2.40      0.00
   -5    8   10     -1.04      0.00
   -4    8   10     -0.03      0.00
   -3    8   10      0.12      0.00
   -2    8   10      0.07      0.00
   -1    8   10     -1.01      0.00
    0    8   10     -1.93      0.00
    1    8   10     -1.40      0.00
  -15    9   10      1.39      0.00
  -14    9   10      1.80      0.00
  -13    9   10      0.88      0.00
  -12    9   10      0.05      0.00
  -11    9   10      0.75      0.00
  -10    9   10      1.54      0.00
   -9    9   10     -0.86      0.00
   -8    9   10     -2.46      0.00
   -7    9   10     -0.14      0.00
   -6    9   10      2.53      0.00
   -5    9   10      1.70      0.00
   -4    9   10      0.52      0.00
   -3    9   10      0.29      0.00
   -2    9   10      0.19      0.00
   -1    9   10      0.24      0.00
    0    9   10      0.42      0.00
  -15   10   10     -1.75      0.00
  -14   10   10     -1.82      0.00
  -13   10   10     -1.66      0.00
  -12   10   10     -0.79      0.00
  -11   10   10     -0.09      0.00
  -10   10   10     -0.72      0.00
   -9   10   10      0.09      0.00
   -8   10   10      1.61      0.00
   -7   10   10      0.92      0.00
   -6   10   10     -1.55      0.00
   -5   10   10     -2.07      0.00
   -4   10   10     -1.19      0.00
   -3   10   10      0.00      0.00
   -2   10   10      1.15      0.00
  -14   11   10      0.23      0.00
  -13   11   10      0.43      0.00
  -12   11   10     -0.54      0.00
  -11   11   10     -2.20      0.00
  -10   11   10     -1.46      0.00
   -9   11   10     -0.55      0.00
   -8   11   10     -1.64      0.00
   -7   11   10     -2.11      0.00
   -6   11   10     -0.55      0.00
   -5   11   10      0.03      0.00
   -4   11   10     -0.20      0.00
   -3   11   10     -0.49      0.00
  -12   12   10     -0.80      0.00
  -11   12   10      0.74      0.00
  -10   12   10      0.56      0.00
   -9   12   10     -0.46      0.00
   -8   12   10      0.09      0.00
   -7   12   10      1.62      0.00
   -6   12   10      2.11      0.00
    0  -16   11      0.12      0.00
    1  -16   11      1.20      0.00
    2  -16   11      0.23      0.00
   -4  -15   11      0.22      0.00
   -3  -15   11     -1.41      0.00
   -2  -15   11     -1.74      0.00
   -1  -15   11      0.23      0.00
    0  -15   11      0.50      0.00
    1  -15   11     -1.18      0.00
    2  -15   11     -1.66      0.00
    3  -15   11     -0.52      0.00
    4  -15   11     -0.30      0.00
   -6  -14   11     -1.63      0.00
   -5  -14   11     -1.88      0.00
   -4  -14   11     -2.04      0.00
   -3  -14   11     -0.08      0.00
   -2  -14   11      2.06      0.00
   -1  -14   11      0.07      0.00
    0  -14   11     -1.94      0.00
    1  -14   11      0.44      0.00
    2  -14   11      2.66      0.00
    3  -14   11      1.49      0.00
    4  -14   11      0.62      0.00
    5  -14   11      1.05      0.00
    6  -14   11      1.03      0.00
   -7  -13   11      2.42      0.00
   -6  -13   11      2.72      0.00
   -5  -13   11      3.36      0.00
   -4  -13   11      4.56      0.00
   -3  -13   11      2.45      0.00
   -2  -13   11     -1.47      0.00
   -1  -13   11     -1.10      0.00
    0  -13   11      1.44      0.00
    1  -13   11      0.55      0.00
    2  -13   11     -1.51      0.00
    3  -13   11     -1.23      0.00
    4  -13   11     -0.46      0.00
    5  -13   11     -0.86      0.00
    6  -13   11     -1.39      0.00
    7  -13   11      0.15      0.00
   -9  -12   11     -0.61      0.00
   -8  -12   11     -0.17      0.00
   -7  -12   11     -0.87      0.00
   -6  -12   11     -2.02      0.00
   -5  -12   11     -3.05      0.00
   -4  -12   11     -4.36      0.00
   -3  -12   11     -3.36      0.00
   -2  -12   11      0.75      0.00
   -1  -12   11      2.27      0.00
    0  -12   11     -1.75      0.00
    1  -12   11     -4.37      0.00
    2  -12   11     -2.80      0.00
    3  -12   11     -1.42      0.00
    4  -12   11     -1.41      0.00
    5  -12   11     -0.25      0.00
    6  -12   11      1.79      0.00
    7  -12   11      0.81      0.00
  -10  -11   11      0.64      0.00
   -9  -11   11     -0.73      0.00
   -8  -11   11     -2.18      0.00
   -7  -11   11     -1.31      0.00
   -6  -11   11     -0.24      0.00
   -5  -11   11     -0.94      0.00
   -4  -11   11     -0.66      0.00
   -3  -11   11      0.05      0.00
   -2  -11   11     -2.59      0.00
   -1  -11   11     -4.52      0.00
    0  -11   11     -0.38      0.00
    1  -11   11      3.49      0.00
    2  -11   11      3.01      0.00
    3  -11   11      1.36      0.00
    4  -11   11      1.25      0.00
    5  -11   11      0.87      0.00
    6  -11   11     -0.63      0.00
    7  -11   11      0.32      0.00
    8  -11   11      1.43      0.00
  -11  -10   11     -1.68      0.00
  -10  -10   11     -2.30      0.00
   -9  -10   11     -1.35      0.00
   -8  -10   11      0.57      0.00
   -7  -10   11      0.57      0.00
   -6  -10   11      0.38      0.00
   -5  -10   11      1.52      0.00
   -4  -10   11      1.55      0.00
   -3  -10   11      0.01      0.00
   -2  -10   11      1.27      0.00
   -1  -10   11      5.30      0.00
    0  -10   11      5.27      0.00
    1  -10   11      1.54      0.00
    2  -10   11     -0.81      0.00
    3  -10   11     -0.26      0.00
    4  -10   11     -0.48      0.00
    5  -10   11     -1.14      0.00
    6  -10   11     -0.11      0.00
    7  -10   11      0.11      0.00
    8  -10   11     -0.34      0.00
  -11   -9   11      2.35      0.00
  -10   -9   11      3.02      0.00
   -9   -9   11      2.21      0.00
   -8   -9   11     -0.37      0.00
   -7   -9   11     -1.44      0.00
   -6   -9   11     -0.40      0.00
   -5   -9   11      0.73      0.00
   -4   -9   11      0.58      0.00
   -3   -9   11      1.18      0.00
   -2   -9   11     -0.22      0.00
   -1   -9   11     -6.03      0.00
    0   -9   11     -8.15      0.00
    1   -9   11     -3.33      0.00
    2   -9   11      2.26      0.00
    3   -9   11      3.12      0.00
    4   -9   11      2.34      0.00
    5   -9   11      1.95      0.00
    6   -9   11      0.67      0.00
    7   -9   11     -0.13      0.00
    8   -9   11      0.33      0.00
  -12   -8   11     -1.91      0.00
  -11   -8   11     -2.17      0.00
  -10   -8   11     -2.20      0.00
   -9   -8   11     -1.27      0.00
   -8   -8   11      1.56      0.00
   -7   -8   11      3.30      0.00
   -6   -8   11      2.15      0.00
   -5   -8   11      0.78      0.00
   -4   -8   11      2.78      0.00
   -3   -8   11      4.51      0.00
   -2   -8   11      5.22      0.00
   -1   -8   11      8.58      0.00
    0   -8   11     10.95      0.00
    1   -8   11      7.39      0.00
    2   -8   11      0.48      0.00
    3   -8   11     -2.01      0.00
    4   -8   11     -1.30      0.00
    5   -8   11     -1.10      0.00
    6   -8   11     -0.85      0.00
    7   -8   11     -0.20      0.00
    8   -8   11     -0.04      0.00
  -13   -7   11     -1.31      0.00
  -12   -7   11      1.54      0.00
  -11   -7   11      2.65      0.00
  -10   -7   11      2.54      0.00
   -9   -7   11      1.98      0.00
   -8   -7   11      0.59      0.00
   -7   -7   11     -1.02      0.00
   -6   -7   11     -1.78      0.00
   -5   -7   11     -1.15      0.00
   -4   -7   11     -2.61      0.00
   -3   -7   11     -3.49      0.00
   -2   -7   11     -1.50      0.00
   -1   -7   11     -2.69      0.00
    0   -7   11     -7.69      0.00
    1   -7   11     -8.73      0.00
    2   -7   11     -3.61      0.00
    3   -7   11      0.18      0.00
    4   -7   11      0.65      0.00
    5   -7   11      0.04      0.00
    6   -7   11     -0.48      0.00
    7   -7   11     -1.41      0.00
    8   -7   11     -1.63      0.00
  -14   -6   11      1.59      0.00
  -13   -6   11      1.96      0.00
  -12   -6   11     -1.09      0.00
  -11   -6   11     -2.55      0.00
  -10   -6   11     -2.01      0.00
   -9   -6   11     -1.89      0.00
   -8   -6   11     -2.17      0.00
   -7   -6   11     -0.21      0.00
   -6   -6   11      2.21      0.00
   -5   -6   11      0.03      0.00
   -4   -6   11     -2.20      0.00
   -3   -6   11     -3.06      0.00
   -2   -6   11     -5.03      0.00
   -1   -6   11     -4.56      0.00
    0   -6   11      0.59      0.00
    1   -6   11      4.31      0.00
    2   -6   11      1.09      0.00
    3   -6   11     -3.60      0.00
    4   -6   11     -3.96      0.00
    5   -6   11     -1.28      0.00
    6   -6   11      0.31      0.00
    7   -6   11      1.21      0.00
    8   -6   11      1.23      0.00
  -14   -5   11      0.26      0.00
  -13   -5   11     -0.70      0.00
  -12   -5   11      0.73      0.00
  -11   -5   11      1.88      0.00
  -10   -5   11      1.19      0.00
   -9   -5   11      0.52      0.00
   -8   -5   11      0.62      0.00
   -7   -5   11     -1.18      0.00
   -6   -5   11     -3.55      0.00
   -5   -5   11     -0.72      0.00
   -4   -5   11      2.53      0.00
   -3   -5   11      2.46      0.00
   -2   -5   11      2.85      0.00
   -1   -5   11      3.91      0.00
    0   -5   11      1.04      0.00
    1   -5   11     -2.96      0.00
    2   -5   11     -1.10      0.00
    3   -5   11      3.83      0.00
    4   -5   11      5.41      0.00
    5   -5   11      3.29      0.00
    6   -5   11      1.98      0.00
    7   -5   11      1.36      0.00
    8   -5   11      0.63      0.00
  -15   -4   11     -1.70      0.00
  -14   -4   11     -1.96      0.00
  -13   -4   11      0.31      0.00
  -12   -4   11      0.74      0.00
  -11   -4   11     -0.30      0.00
  -10   -4   11      0.24      0.00
   -9   -4   11      2.09      0.00
   -8   -4   11      2.54      0.00
   -7   -4   11      3.41      0.00
   -6   -4   11      6.28      0.00
   -5   -4   11      5.20      0.00
   -4   -4   11      1.59      0.00
   -3   -4   11     -0.06      0.00
   -2   -4   11     -0.85      0.00
   -1   -4   11     -2.07      0.00
    0   -4   11     -0.51      0.00
    1   -4   11      3.64      0.00
    2   -4   11      4.51      0.00
    3   -4   11      0.11      0.00
    4   -4   11     -4.09      0.00
    5   -4   11     -4.08      0.00
    6   -4   11     -3.52      0.00
    7   -4   11     -2.97      0.00
    8   -4   11     -1.63      0.00
  -15   -3   11      2.28      0.00
  -14   -3   11      2.34      0.00
  -13   -3   11     -0.23      0.00
  -12   -3   11     -1.72      0.00
  -11   -3   11     -0.02      0.00
  -10   -3   11      1.47      0.00
   -9   -3   11      0.22      0.00
   -8   -3   11     -0.84      0.00
   -7   -3   11     -1.77      0.00
   -6   -3   11     -5.07      0.00
   -5   -3   11     -5.19      0.00
   -4   -3   11     -1.16      0.00
   -3   -3   11      1.55      0.00
   -2   -3   11      0.40      0.00
   -1   -3   11     -0.80      0.00
    0   -3   11     -1.83      0.00
    1   -3   11     -5.42      0.00
    2   -3   11     -7.79      0.00
    3   -3   11     -4.08      0.00
    4   -3   11      1.34      0.00
    5   -3   11      2.64      0.00
    6   -3   11      2.29      0.00
    7   -3   11      2.01      0.00
  -15   -2   11     -0.85      0.00
  -14   -2   11     -0.85      0.00
  -13   -2   11      1.72      0.00
  -12   -2   11      3.84      0.00
  -11   -2   11      1.11      0.00
  -10   -2   11     -3.23      0.00
   -9   -2   11     -4.02      0.00
   -8   -2   11     -3.55      0.00
   -7   -2   11     -4.45      0.00
   -6   -2   11     -3.81      0.00
   -5   -2   11     -3.76      0.00
   -4   -2   11     -6.20      0.00
   -3   -2   11     -7.68      0.00
   -2   -2   11     -4.50      0.00
   -1   -2   11     -0.80      0.00
    0   -2   11      0.50      0.00
    1   -2   11      2.69      0.00
    2   -2   11      5.78      0.00
    3   -2   11      4.83      0.00
    4   -2   11      0.89      0.00
    5   -2   11     -0.26      0.00
    6   -2   11      0.02      0.00
    7   -2   11     -0.53      0.00
  -16   -1   11     -0.68      0.00
  -15   -1   11     -1.04      0.00
  -14   -1   11     -1.16      0.00
  -13   -1   11     -3.49      0.00
  -12   -1   11     -6.61      0.00
  -11   -1   11     -5.74      0.00
  -10   -1   11     -1.08      0.00
   -9   -1   11      1.64      0.00
   -8   -1   11      1.86      0.00
   -7   -1   11      3.17      0.00
   -6   -1   11      3.37      0.00
   -5   -1   11      2.32      0.00
   -4   -1   11      3.28      0.00
   -3   -1   11      6.08      0.00
   -2   -1   11      5.14      0.00
   -1   -1   11      2.17      0.00
    0   -1   11      2.07      0.00
    1   -1   11      1.64      0.00
    2   -1   11     -1.90      0.00
    3   -1   11     -3.41      0.00
    4   -1   11     -1.32      0.00
    5   -1   11     -0.15      0.00
    6   -1   11      0.22      0.00
    7   -1   11      0.49      0.00
  -16    0   11      0.31      0.00
  -15    0   11      0.56      0.00
  -14    0   11     -0.32      0.00
  -13    0   11      0.46      0.00
  -12    0   11      4.18      0.00
  -11    0   11      5.56      0.00
  -10    0   11      1.40      0.00
   -9    0   11     -1.93      0.00
   -8    0   11     -0.85      0.00
   -7    0   11      0.56      0.00
   -6    0   11      1.78      0.00
   -5    0   11      3.79      0.00
   -4    0   11      4.09      0.00
   -3    0   11      0.85      0.00
   -2    0   11     -0.36      0.00
   -1    0   11      1.19      0.00
    0    0   11      0.99      0.00
    1    0   11      0.16      0.00
    2    0   11      1.52      0.00
    3    0   11      2.71      0.00
    4    0   11      1.20      0.00
    5    0   11     -0.36      0.00
    6    0   11     -0.76      0.00
  -16    1   11     -0.45      0.00
  -15    1   11     -0.96      0.00
  -14    1   11      0.26      0.00
  -13    1   11      0.27      0.00
  -12    1   11     -2.78      0.00
  -11    1   11     -5.20      0.00
  -10    1   11     -2.68      0.00
   -9    1   11      1.15      0.00
   -8    1   11      1.40      0.00
   -7    1   11      0.30      0.00
   -6    1   11      0.18      0.00
   -5    1   11     -0.78      0.00
   -4    1   11     -2.01      0.00
   -3    1   11      0.45      0.00
   -2    1   11      2.64      0.00
   -1    1   11      1.31      0.00
    0    1   11      0.35      0.00
    1    1   11      1.09      0.00
    2    1   11      0.39      0.00
    3    1   11     -1.26      0.00
    4    1   11     -0.82      0.00
    5    1   11     -0.31      0.00
    6    1   11     -0.23      0.00
  -16    2   11      0.00      0.00
  -15    2   11      1.37      0.00
  -14    2   11      1.77      0.00
  -13    2   11      2.60      0.00
  -12    2   11      5.60      0.00
  -11    2   11      9.68      0.00
  -10    2   11      8.72      0.00
   -9    2   11      3.21      0.00
   -8    2   11     -0.25      0.00
   -7    2   11     -0.37      0.00
   -6    2   11     -0.09      0.00
   -5    2   11      1.04      0.00
   -4    2   11      2.65      0.00
   -3    2   11      0.55      0.00
   -2    2   11     -2.57      0.00
   -1    2   11     -3.16      0.00
    0    2   11     -2.71      0.00
    1    2   11     -2.01      0.00
    2    2   11     -0.83      0.00
    3    2   11      0.09      0.00
    4    2   11     -0.17      0.00
    5    2   11     -0.03      0.00
  -16    3   11      1.80      0.00
  -15    3   11      0.25      0.00
  -14    3   11     -0.76      0.00
  -13    3   11     -1.54      0.00
  -12    3   11     -3.02      0.00
  -11    3   11     -5.41      0.00
  -10    3   11     -4.63      0.00
   -9    3   11     -0.01      0.00
   -8    3   11      3.62      0.00
   -7    3   11      2.48      0.00
   -6    3   11     -0.11      0.00
   -5    3   11     -1.70      0.00
   -4    3   11     -3.24      0.00
   -3    3   11     -2.77      0.00
   -2    3   11     -0.20      0.00
   -1    3   11      1.78      0.00
    0    3   11      1.33      0.00
    1    3   11     -0.07      0.00
    2    3   11     -0.10      0.00
    3    3   11      0.02      0.00
    4    3   11      0.32      0.00
  -16    4   11     -2.04      0.00
  -15    4   11     -1.16      0.00
  -14    4   11     -0.82      0.00
  -13    4   11     -0.89      0.00
  -12    4   11     -2.36      0.00
  -11    4   11     -2.35      0.00
  -10    4   11     -1.19      0.00
   -9    4   11     -2.47      0.00
   -8    4   11     -5.16      0.00
   -7    4   11     -4.14      0.00
   -6    4   11     -1.90      0.00
   -5    4   11     -1.11      0.00
   -4    4   11      0.02      0.00
   -3    4   11      0.34      0.00
   -2    4   11     -1.22      0.00
   -1    4   11     -2.68      0.00
    0    4   11     -2.43      0.00
    1    4   11     -1.41      0.00
    2    4   11     -0.58      0.00
    3    4   11      0.62      0.00
    4    4   11      0.74      0.00
  -16    5   11      1.71      0.00
  -15    5   11      2.01      0.00
  -14    5   11      2.03      0.00
  -13    5   11      1.96      0.00
  -12    5   11      3.17      0.00
  -11    5   11      2.26      0.00
  -10    5   11     -0.98      0.00
   -9    5   11     -2.11      0.00
   -8    5   11      0.73      0.00
   -7    5   11      2.01      0.00
   -6    5   11      0.56      0.00
   -5    5   11     -0.88      0.00
   -4    5   11     -1.11      0.00
   -3    5   11     -0.51      0.00
   -2    5   11      0.41      0.00
   -1    5   11      1.94      0.00
    0    5   11      3.02      0.00
    1    5   11      2.12      0.00
    2    5   11      0.57      0.00
    3    5   11     -0.52      0.00
  -16    6   11     -0.79      0.00
  -15    6   11     -1.25      0.00
  -14    6   11     -1.65      0.00
  -13    6   11     -0.99      0.00
  -12    6   11     -0.91      0.00
  -11    6   11     -0.38      0.00
  -10    6   11      2.44      0.00
   -9    6   11      4.85      0.00
   -8    6   11      2.32      0.00
   -7    6   11     -0.12      0.00
   -6    6   11      0.97      0.00
   -5    6   11      2.68      0.00
   -4    6   11      2.53      0.00
   -3    6   11      2.07      0.00
   -2    6   11      1.48      0.00
   -1    6   11     -0.41      0.00
    0    6   11     -1.72      0.00
    1    6   11     -1.11      0.00
    2    6   11     -0.36      0.00
  -16    7   11     -0.21      0.00
  -15    7   11      0.12      0.00
  -14    7   11      0.60      0.00
  -13    7   11     -0.40      0.00
  -12    7   11     -0.21      0.00
  -11    7   11      0.80      0.00
  -10    7   11     -0.78      0.00
   -9    7   11     -3.87      0.00
   -8    7   11     -2.77      0.00
   -7    7   11      0.13      0.00
   -6    7   11      0.58      0.00
   -5    7   11     -1.29      0.00
   -4    7   11     -2.29      0.00
   -3    7   11     -2.07      0.00
   -2    7   11     -1.22      0.00
   -1    7   11     -0.05      0.00
    0    7   11      0.63      0.00
    1    7   11      0.54      0.00
  -15    8   11     -0.99      0.00
  -14    8   11     -1.34      0.00
  -13    8   11     -0.99      0.00
  -12    8   11     -1.30      0.00
  -11    8   11     -2.15      0.00
  -10    8   11     -1.54      0.00
   -9    8   11      1.24      0.00
   -8    8   11      1.48      0.00
   -7    8   11     -0.85      0.00
   -6    8   11     -1.77      0.00
   -5    8   11      0.16      0.00
   -4    8   11      1.36      0.00
   -3    8   11      1.25      0.00
   -2    8   11      1.29      0.00
   -1    8   11      1.17      0.00
    0    8   11      0.29      0.00
  -15    9   11     -0.35      0.00
  -14    9   11      0.27      0.00
  -13    9   11      0.75      0.00
  -12    9   11      0.54      0.00
  -11    9   11      0.80      0.00
  -10    9   11      1.42      0.00
   -9    9   11     -0.09      0.00
   -8    9   11     -1.54      0.00
   -7    9   11     -0.76      0.00
   -6    9   11      0.71      0.00
   -5    9   11      0.19      0.00
   -4    9   11     -0.66      0.00
   -3    9   11     -1.28      0.00
   -2    9   11     -1.81      0.00
  -14   10   11      0.86      0.00
  -13   10   11      0.29      0.00
  -12   10   11      0.53      0.00
  -11   10   11      0.66      0.00
  -10   10   11     -0.15      0.00
   -9   10   11      0.79      0.00
   -8   10   11      2.81      0.00
   -7   10   11      2.98      0.00
   -6   10   11      1.60      0.00
   -5   10   11      1.33      0.00
   -4   10   11      1.38      0.00
   -3   10   11      1.20      0.00
  -12   11   11      1.67      0.00
  -11   11   11      0.91      0.00
  -10   11   11      0.63      0.00
   -9   11   11      0.14      0.00
   -8   11   11     -1.29      0.00
   -7   11   11     -2.30      0.00
   -6   11   11     -1.57      0.00
   -5   11   11     -0.56      0.00
   -3  -15   12     -1.18      0.00
   -2  -15   12     -1.49      0.00
   -1  -15   12      1.16      0.00
    0  -15   12      2.06      0.00
    1  -15   12      0.32      0.00
    2  -15   12     -0.32      0.00
    3  -15   12     -0.08      0.00
   -5  -14   12     -2.09      0.00
   -4  -14   12     -2.69      0.00
   -3  -14   12     -0.61      0.00
   -2  -14   12      1.25      0.00
   -1  -14   12     -0.17      0.00
    0  -14   12     -1.85      0.00
    1  -14   12     -0.86      0.00
    2  -14   12      0.44      0.00
    3  -14   12      0.53      0.00
    4  -14   12      0.88      0.00
   -7  -13   12      0.65      0.00
   -6  -13   12      1.29      0.00
   -5  -13   12      2.09      0.00
   -4  -13   12      3.25      0.00
   -3  -13   12      2.08      0.00
   -2  -13   12     -1.08      0.00
   -1  -13   12     -0.69      0.00
    0  -13   12      3.00      0.00
    1  -13   12      3.03      0.00
    2  -13   12      0.63      0.00
    3  -13   12      0.28      0.00
    4  -13   12      0.51      0.00
    5  -13   12     -0.75      0.00
   -8  -12   12     -0.14      0.00
   -7  -12   12     -1.19      0.00
   -6  -12   12     -1.29      0.00
   -5  -12   12     -0.95      0.00
   -4  -12   12     -2.29      0.00
   -3  -12   12     -2.18      0.00
   -2  -12   12      1.07      0.00
   -1  -12   12      1.76      0.00
    0  -12   12     -1.49      0.00
    1  -12   12     -1.88      0.00
    2  -12   12      0.11      0.00
    3  -12   12      0.52      0.00
    4  -12   12     -0.18      0.00
    5  -12   12      0.41      0.00
    6  -12   12      1.75      0.00
   -9  -11   12      1.05      0.00
   -8  -11   12      0.33      0.00
   -7  -11   12      0.83      0.00
   -6  -11   12      1.36      0.00
   -5  -11   12      1.66      0.00
   -4  -11   12      3.08      0.00
   -3  -11   12      3.85      0.00
   -2  -11   12      0.56      0.00
   -1  -11   12     -3.39      0.00
    0  -11   12     -2.02      0.00
    1  -11   12      0.67      0.00
    2  -11   12      0.78      0.00
    3  -11   12      0.08      0.00
    4  -11   12      0.76      0.00
    5  -11   12      0.56      0.00
    6  -11   12     -1.52      0.00
  -10  -10   12     -0.16      0.00
   -9  -10   12      0.12      0.00
   -8  -10   12      1.85      0.00
   -7  -10   12      1.59      0.00
   -6  -10   12     -0.29      0.00
   -5  -10   12     -1.16      0.00
   -4  -10   12     -1.39      0.00
   -3  -10   12     -2.02      0.00
   -2  -10   12      1.08      0.00
   -1  -10   12      5.92      0.00
    0  -10   12      4.27      0.00
    1  -10   12     -0.82      0.00
    2  -10   12     -3.05      0.00
    3  -10   12     -2.02      0.00
    4  -10   12     -1.40      0.00
    5  -10   12     -0.80      0.00
    6  -10   12      0.83      0.00
    7  -10   12      0.59      0.00
  -11   -9   12     -1.12      0.00
  -10   -9   12     -0.10      0.00
   -9   -9   12      0.22      0.00
   -8   -9   12     -1.61      0.00
   -7   -9   12     -2.00      0.00
   -6   -9   12     -1.18      0.00
   -5   -9   12     -1.91      0.00
   -4   -9   12     -3.72      0.00
   -3   -9   12     -3.37      0.00
   -2   -9   12     -3.89      0.00
   -1   -9   12     -7.21      0.00
    0   -9   12     -7.77      0.00
    1   -9   12     -4.26      0.00
    2   -9   12     -1.22      0.00
    3   -9   12     -1.91      0.00
    4   -9   12     -2.36      0.00
    5   -9   12     -1.19      0.00
    6   -9   12     -0.43      0.00
    7   -9   12      0.23      0.00
  -12   -8   12     -0.48      0.00
  -11   -8   12     -0.20      0.00
  -10   -8   12     -1.43      0.00
   -9   -8   12     -2.77      0.00
   -8   -8   12     -2.17      0.00
   -7   -8   12     -0.85      0.00
   -6   -8   12      0.13      0.00
   -5   -8   12      0.38      0.00
   -4   -8   12      1.04      0.00
   -3   -8   12     -0.76      0.00
   -2   -8   12     -2.47      0.00
   -1   -8   12      1.45      0.00
    0   -8   12      6.68      0.00
    1   -8   12      6.99      0.00
    2   -8   12      4.30      0.00
    3   -8   12      3.76      0.00
    4   -8   12      3.61      0.00
    5   -8   12      2.19      0.00
    6   -8   12      0.89      0.00
    7   -8   12      0.54      0.00
  -13   -7   12     -0.84      0.00
  -12   -7   12     -0.12      0.00
  -11   -7   12     -0.51      0.00
  -10   -7   12      0.26      0.00
   -9   -7   12      2.61      0.00
   -8   -7   12      3.31      0.00
   -7   -7   12      1.46      0.00
   -6   -7   12      0.60      0.00
   -5   -7   12      3.06      0.00
   -4   -7   12      4.34      0.00
   -3   -7   12      5.41      0.00
   -2   -7   12      6.43      0.00
   -1   -7   12      3.27      0.00
    0   -7   12     -2.81      0.00
    1   -7   12     -4.98      0.00
    2   -7   12     -1.93      0.00
    3   -7   12      0.03      0.00
    4   -7   12     -0.30      0.00
    5   -7   12     -0.22      0.00
    6   -7   12      0.77      0.00
    7   -7   12      0.83      0.00
  -13   -6   12      1.27      0.00
  -12   -6   12      1.15      0.00
  -11   -6   12      1.36      0.00
  -10   -6   12      0.91      0.00
   -9   -6   12     -0.86      0.00
   -8   -6   12     -1.96      0.00
   -7   -6   12     -0.94      0.00
   -6   -6   12     -0.09      0.00
   -5   -6   12     -2.41      0.00
   -4   -6   12     -3.01      0.00
   -3   -6   12     -2.14      0.00
   -2   -6   12     -3.05      0.00
   -1   -6   12     -2.50      0.00
    0   -6   12      2.41      0.00
    1   -6   12      5.43      0.00
    2   -6   12      2.79      0.00
    3   -6   12     -0.56      0.00
    4   -6   12     -1.72      0.00
    5   -6   12     -1.95      0.00
    6   -6   12     -2.68      0.00
    7   -6   12     -2.13      0.00
  -14   -5   12      0.13      0.00
  -13   -5   12     -1.80      0.00
  -12   -5   12     -1.44      0.00
  -11   -5   12     -0.59      0.00
  -10   -5   12     -0.63      0.00
   -9   -5   12     -0.31      0.00
   -8   -5   12      1.29      0.00
   -7   -5   12      0.74      0.00
   -6   -5   12     -2.23      0.00
   -5   -5   12     -1.62      0.00
   -4   -5   12     -0.10      0.00
   -3   -5   12      0.28      0.00
   -2   -5   12      1.56      0.00
   -1   -5   12      2.31      0.00
    0   -5   12     -1.21      0.00
    1   -5   12     -5.47      0.00
    2   -5   12     -5.00      0.00
    3   -5   12     -0.74      0.00
    4   -5   12      2.20      0.00
    5   -5   12      2.24      0.00
    6   -5   12      2.12      0.00
    7   -5   12      1.36      0.00
  -14   -4   12      0.22      0.00
  -13   -4   12      1.84      0.00
  -12   -4   12      1.29      0.00
  -11   -4   12     -0.96      0.00
  -10   -4   12     -2.02      0.00
   -9   -4   12     -2.23      0.00
   -8   -4   12     -3.44      0.00
   -7   -4   12     -2.37      0.00
   -6   -4   12      1.75      0.00
   -5   -4   12      1.91      0.00
   -4   -4   12     -0.34      0.00
   -3   -4   12     -0.63      0.00
   -2   -4   12     -0.40      0.00
   -1   -4   12     -1.61      0.00
    0   -4   12     -0.05      0.00
    1   -4   12      4.13      0.00
    2   -4   12      5.23      0.00
    3   -4   12      1.58      0.00
    4   -4   12     -1.60      0.00
    5   -4   12     -1.31      0.00
    6   -4   12     -0.84      0.00
    7   -4   12     -0.84      0.00
  -15   -3   12     -0.01      0.00
  -14   -3   12     -0.34      0.00
  -13   -3   12     -2.13      0.00
  -12   -3   12     -2.03      0.00
  -11   -3   12      1.17      0.00
  -10   -3   12      3.73      0.00
   -9   -3   12      3.73      0.00
   -8   -3   12      4.14      0.00
   -7   -3   12      4.27      0.00
   -6   -3   12      1.46      0.00
   -5   -3   12      0.23      0.00
   -4   -3   12      1.18      0.00
   -3   -3   12      1.41      0.00
   -2   -3   12      1.00      0.00
   -1   -3   12      2.13      0.00
    0   -3   12      2.24      0.00
    1   -3   12     -0.65      0.00
    2   -3   12     -3.77      0.00
    3   -3   12     -2.68      0.00
    4   -3   12      0.21      0.00
    5   -3   12      0.77      0.00
    6   -3   12      1.01      0.00
  -15   -2   12     -0.16      0.00
  -14   -2   12     -0.22      0.00
  -13   -2   12      0.95      0.00
  -12   -2   12      1.73      0.00
  -11   -2   12     -0.20      0.00
  -10   -2   12     -2.53      0.00
   -9   -2   12     -1.76      0.00
   -8   -2   12     -0.79      0.00
   -7   -2   12     -0.92      0.00
   -6   -2   12      1.69      0.00
   -5   -2   12      4.55      0.00
   -4   -2   12      4.10      0.00
   -3   -2   12      1.75      0.00
   -2   -2   12      0.93      0.00
   -1   -2   12     -0.27      0.00
    0   -2   12     -1.98      0.00
    1   -2   12     -0.41      0.00
    2   -2   12      3.80      0.00
    3   -2   12      4.19      0.00
    4   -2   12      0.81      0.00
    5   -2   12     -1.27      0.00
    6   -2   12     -1.57      0.00
  -16   -1   12      1.02      0.00
  -15   -1   12      0.71      0.00
  -14   -1   12      1.81      0.00
  -13   -1   12      1.82      0.00
  -12   -1   12      0.26      0.00
  -11   -1   12      0.79      0.00
  -10   -1   12      3.03      0.00
   -9   -1   12      2.36      0.00
   -8   -1   12      0.31      0.00
   -7   -1   12     -0.19      0.00
   -6   -1   12     -1.97      0.00
   -5   -1   12     -4.65      0.00
   -4   -1   12     -4.74      0.00
   -3   -1   12     -2.23      0.00
   -2   -1   12     -1.48      0.00
   -1   -1   12     -1.51      0.00
    0   -1   12     -0.28      0.00
    1   -1   12     -0.36      0.00
    2   -1   12     -3.13      0.00
    3   -1   12     -3.73      0.00
    4   -1   12     -0.77      0.00
    5   -1   12      0.77      0.00
  -16    0   12     -0.58      0.00
  -15    0   12      0.38      0.00
  -14    0   12     -0.30      0.00
  -13    0   12     -0.24      0.00
  -12    0   12      1.80      0.00
  -11    0   12      2.92      0.00
  -10    0   12      0.90      0.00
   -9    0   12     -0.52      0.00
   -8    0   12     -0.19      0.00
   -7    0   12     -1.12      0.00
   -6    0   12     -2.22      0.00
   -5    0   12     -1.28      0.00
   -4    0   12     -0.55      0.00
   -3    0   12     -2.68      0.00
   -2    0   12     -3.49      0.00
   -1    0   12     -2.37      0.00
    0    0   12     -3.07      0.00
    1    0   12     -3.76      0.00
    2    0   12     -1.30      0.00
    3    0   12      0.81      0.00
    4    0   12      0.38      0.00
    5    0   12      0.44      0.00
  -16    1   12      0.81      0.00
  -15    1   12     -0.73      0.00
  -14    1   12     -0.84      0.00
  -13    1   12     -0.92      0.00
  -12    1   12     -3.43      0.00
  -11    1   12     -6.24      0.00
  -10    1   12     -4.57      0.00
   -9    1   12     -1.69      0.00
   -8    1   12     -1.12      0.00
   -7    1   12     -0.61      0.00
   -6    1   12      0.52      0.00
   -5    1   12     -0.21      0.00
   -4    1   12     -1.56      0.00
   -3    1   12      0.07      0.00
   -2    1   12      1.88      0.00
   -1    1   12      2.43      0.00
    0    1   12      3.44      0.00
    1    1   12      3.74      0.00
    2    1   12      2.03      0.00
    3    1   12      0.00      0.00
    4    1   12     -0.25      0.00
  -16    2   12     -1.58      0.00
  -15    2   12     -0.89      0.00
  -14    2   12     -1.78      0.00
  -13    2   12     -2.83      0.00
  -12    2   12     -1.92      0.00
  -11    2   12      0.48      0.00
  -10    2   12      0.65      0.00
   -9    2   12     -0.56      0.00
   -8    2   12     -0.25      0.00
   -7    2   12      1.29      0.00
   -6    2   12      1.59      0.00
   -5    2   12      2.04      0.00
   -4    2   12      3.79      0.00
   -3    2   12      3.24      0.00
   -2    2   12      0.96      0.00
   -1    2   12     -0.11      0.00
    0    2   12     -0.39      0.00
    1    2   12     -0.93      0.00
    2    2   12     -0.77      0.00
    3    2   12      0.42      0.00
    4    2   12      0.31      0.00
  -16    3   12      1.50      0.00
  -15    3   12      1.98      0.00
  -14    3   12      3.38      0.00
  -13    3   12      4.69      0.00
  -12    3   12      4.68      0.00
  -11    3   12      1.20      0.00
  -10    3   12     -1.90      0.00
   -9    3   12     -1.75      0.00
   -8    3   12     -0.81      0.00
   -7    3   12     -1.52      0.00
   -6    3   12     -1.62      0.00
   -5    3   12     -1.81      0.00
   -4    3   12     -3.18      0.00
   -3    3   12     -2.58      0.00
   -2    3   12     -0.75      0.00
   -1    3   12      0.08      0.00
    0    3   12      0.73      0.00
    1    3   12      1.16      0.00
    2    3   12      0.80      0.00
    3    3   12     -0.12      0.00
  -16    4   12     -2.20      0.00
  -15    4   12     -3.13      0.00
  -14    4   12     -3.90      0.00
  -13    4   12     -3.58      0.00
  -12    4   12     -1.93      0.00
  -11    4   12      2.29      0.00
  -10    4   12      5.84      0.00
   -9    4   12      5.40      0.00
   -8    4   12      1.96      0.00
   -7    4   12      0.75      0.00
   -6    4   12      1.84      0.00
   -5    4   12      2.96      0.00
   -4    4   12      3.32      0.00
   -3    4   12      2.60      0.00
   -2    4   12      1.45      0.00
   -1    4   12      0.16      0.00
    0    4   12     -0.45      0.00
    1    4   12     -0.11      0.00
    2    4   12     -0.37      0.00
  -16    5   12      2.01      0.00
  -15    5   12      2.34      0.00
  -14    5   12      2.41      0.00
  -13    5   12      1.15      0.00
  -12    5   12      0.59      0.00
  -11    5   12     -0.53      0.00
  -10    5   12     -2.95      0.00
   -9    5   12     -3.24      0.00
   -8    5   12      0.24      0.00
   -7    5   12      1.42      0.00
   -6    5   12     -0.24      0.00
   -5    5   12     -1.26      0.00
   -4    5   12     -1.30      0.00
   -3    5   12     -1.04      0.00
   -2    5   12     -0.36      0.00
   -1    5   12      0.19      0.00
    0    5   12     -0.15      0.00
    1    5   12     -0.38      0.00
    2    5   12      0.24      0.00
  -16    6   12     -0.60      0.00
  -15    6   12     -0.23      0.00
  -14    6   12      0.13      0.00
  -13    6   12      0.74      0.00
  -12    6   12     -0.76      0.00
  -11    6   12     -1.94      0.00
  -10    6   12     -0.33      0.00
   -9    6   12      1.41      0.00
   -8    6   12     -0.25      0.00
   -7    6   12     -1.69      0.00
   -6    6   12     -1.11      0.00
   -5    6   12      0.28      0.00
   -4    6   12      0.85      0.00
   -3    6   12      0.31      0.00
   -2    6   12     -0.12      0.00
   -1    6   12      0.02      0.00
    0    6   12      0.18      0.00
    1    6   12      0.23      0.00
  -15    7   12     -0.63      0.00
  -14    7   12     -0.56      0.00
  -13    7   12     -0.62      0.00
  -12    7   12      0.30      0.00
  -11    7   12      1.56      0.00
  -10    7   12      0.72      0.00
   -9    7   12     -1.78      0.00
   -8    7   12     -1.37      0.00
   -7    7   12      0.49      0.00
   -6    7   12      0.61      0.00
   -5    7   12     -0.81      0.00
   -4    7   12     -1.10      0.00
   -3    7   12     -0.63      0.00
   -2    7   12     -0.69      0.00
   -1    7   12     -0.65      0.00
  -15    8   12      1.19      0.00
  -14    8   12      0.56      0.00
  -13    8   12      0.78      0.00
  -12    8   12      0.69      0.00
  -11    8   12     -0.55      0.00
  -10    8   12     -0.52      0.00
   -9    8   12      1.75      0.00
   -8    8   12      2.25      0.00
   -7    8   12      0.68      0.00
   -6    8   12     -0.50      0.00
   -5    8   12     -0.11      0.00
   -4    8   12      0.36      0.00
   -3    8   12      0.54      0.00
   -2    8   12      0.39      0.00
  -14    9   12      0.50      0.00
  -13    9   12      0.36      0.00
  -12    9   12      0.29      0.00
  -11    9   12      0.66      0.00
  -10    9   12      0.55      0.00
   -9    9   12     -1.11      0.00
   -8    9   12     -2.01      0.00
   -7    9   12     -1.18      0.00
   -6    9   12      0.00      0.00
   -5    9   12     -0.26      0.00
   -4    9   12     -0.79      0.00
   -3    9   12     -0.55      0.00
  -13   10   12     -1.59      0.00
  -12   10   12     -1.25      0.00
  -11   10   12     -0.40      0.00
  -10   10   12     -0.33      0.00
   -9   10   12     -0.03      0.00
   -8   10   12      0.73      0.00
   -7   10   12      0.86      0.00
   -6   10   12      0.13      0.00
   -5   10   12      0.07      0.00
   -4  -14   13     -1.16      0.00
   -3  -14   13      0.16      0.00
   -2  -14   13      1.49      0.00
   -1  -14   13     -0.01      0.00
    0  -14   13     -1.42      0.00
    1  -14   13      0.56      0.00
    2  -14   13      1.67      0.00
    3  -14   13      0.35      0.00
   -6  -13   13      1.32      0.00
   -5  -13   13      1.70      0.00
   -4  -13   13      2.74      0.00
   -3  -13   13      1.87      0.00
   -2  -13   13     -0.07      0.00
   -1  -13   13      0.32      0.00
    0  -13   13      1.68      0.00
    1  -13   13      0.10      0.00
    2  -13   13     -1.54      0.00
    3  -13   13     -1.08      0.00
    4  -13   13     -0.26      0.00
   -8  -12   13     -0.01      0.00
   -7  -12   13     -0.66      0.00
   -6  -12   13     -1.38      0.00
   -5  -12   13     -2.29      0.00
   -4  -12   13     -3.88      0.00
   -3  -12   13     -4.08      0.00
   -2  -12   13     -0.95      0.00
   -1  -12   13      1.13      0.00
    0  -12   13     -1.23      0.00
    1  -12   13     -2.08      0.00
    2  -12   13     -0.39      0.00
    3  -12   13      0.25      0.00
    4  -12   13     -0.67      0.00
    5  -12   13     -0.40      0.00
   -9  -11   13     -0.85      0.00
   -8  -11   13     -1.89      0.00
   -7  -11   13     -1.30      0.00
   -6  -11   13     -0.18      0.00
   -5  -11   13      0.14      0.00
   -4  -11   13      1.14      0.00
   -3  -11   13      1.92      0.00
   -2  -11   13     -1.01      0.00
   -1  -11   13     -3.07      0.00
    0  -11   13      0.44      0.00
    1  -11   13      3.01      0.00
    2  -11   13      2.07      0.00
    3  -11   13      0.76      0.00
    4  -11   13      1.04      0.00
    5  -11   13      0.77      0.00
  -10  -10   13     -0.57      0.00
   -9  -10   13     -0.52      0.00
   -8  -10   13      1.31      0.00
   -7  -10   13      1.71      0.00
   -6  -10   13      1.56      0.00
   -5  -10   13      2.21      0.00
   -4  -10   13      2.18      0.00
   -3  -10   13      0.40      0.00
   -2  -10   13      1.00      0.00
   -1  -10   13      3.66      0.00
    0  -10   13      2.97      0.00
    1  -10   13      0.79      0.00
    2  -10   13      0.60      0.00
    3  -10   13      1.77      0.00
    4  -10   13      0.83      0.00
    5  -10   13     -0.64      0.00
    6  -10   13     -0.26      0.00
  -11   -9   13      0.35      0.00
  -10   -9   13      1.58      0.00
   -9   -9   13      2.21      0.00
   -8   -9   13      0.65      0.00
   -7   -9   13     -0.53      0.00
   -6   -9   13     -0.21      0.00
   -5   -9   13      0.42      0.00
   -4   -9   13      0.82      0.00
   -3   -9   13      3.46      0.00
   -2   -9   13      3.63      0.00
   -1   -9   13     -1.10      0.00
    0   -9   13     -3.83      0.00
    1   -9   13     -2.47      0.00
    2   -9   13     -1.01      0.00
    3   -9   13     -1.53      0.00
    4   -9   13     -1.05      0.00
    5   -9   13      0.05      0.00
    6   -9   13     -0.30      0.00
  -12   -8   13      0.34      0.00
  -11   -8   13      1.12      0.00
  -10   -8   13      0.08      0.00
   -9   -8   13     -1.82      0.00
   -8   -8   13     -1.20      0.00
   -7   -8   13     -0.12      0.00
   -6   -8   13     -1.10      0.00
   -5   -8   13     -2.52      0.00
   -4   -8   13     -1.96      0.00
   -3   -8   13     -2.81      0.00
   -2   -8   13     -3.20      0.00
   -1   -8   13      0.06      0.00
    0   -8   13      3.19      0.00
    1   -8   13      2.10      0.00
    2   -8   13     -0.51      0.00
    3   -8   13     -0.12      0.00
    4   -8   13      0.90      0.00
    5   -8   13      0.51      0.00
    6   -8   13     -0.13      0.00
  -13   -7   13     -0.87      0.00
  -12   -7   13     -0.22      0.00
  -11   -7   13     -0.66      0.00
  -10   -7   13      0.15      0.00
   -9   -7   13      1.99      0.00
   -8   -7   13      2.62      0.00
   -7   -7   13      2.00      0.00
   -6   -7   13      1.30      0.00
   -5   -7   13      1.24      0.00
   -4   -7   13     -0.52      0.00
   -3   -7   13     -0.38      0.00
   -2   -7   13      2.07      0.00
   -1   -7   13      1.55      0.00
    0   -7   13     -2.10      0.00
    1   -7   13     -3.02      0.00
    2   -7   13     -1.18      0.00
    3   -7   13     -0.80      0.00
    4   -7   13     -1.26      0.00
    5   -7   13     -0.74      0.00
    6   -7   13      0.45      0.00
  -13   -6   13      0.72      0.00
  -12   -6   13     -0.81      0.00
  -11   -6   13     -0.85      0.00
  -10   -6   13     -0.30      0.00
   -9   -6   13     -1.76      0.00
   -8   -6   13     -4.04      0.00
   -7   -6   13     -2.94      0.00
   -6   -6   13      0.15      0.00
   -5   -6   13      0.24      0.00
   -4   -6   13     -0.27      0.00
   -3   -6   13     -1.99      0.00
   -2   -6   13     -5.55      0.00
   -1   -6   13     -6.58      0.00
    0   -6   13     -2.18      0.00
    1   -6   13      1.91      0.00
    2   -6   13      1.74      0.00
    3   -6   13      0.20      0.00
    4   -6   13      0.12      0.00
    5   -6   13      0.56      0.00
    6   -6   13     -0.08      0.00
  -14   -5   13     -0.29      0.00
  -13   -5   13     -0.37      0.00
  -12   -5   13      0.58      0.00
  -11   -5   13      0.38      0.00
  -10   -5   13     -0.44      0.00
   -9   -5   13      0.76      0.00
   -8   -5   13      3.08      0.00
   -7   -5   13      1.94      0.00
   -6   -5   13     -1.42      0.00
   -5   -5   13     -0.92      0.00
   -4   -5   13      0.77      0.00
   -3   -5   13      2.11      0.00
   -2   -5   13      5.13      0.00
   -1   -5   13      7.36      0.00
    0   -5   13      3.68      0.00
    1   -5   13     -1.20      0.00
    2   -5   13     -1.87      0.00
    3   -5   13      0.18      0.00
    4   -5   13      0.94      0.00
    5   -5   13      0.23      0.00
    6   -5   13      0.59      0.00
  -14   -4   13     -0.71      0.00
  -13   -4   13      0.29      0.00
  -12   -4   13      0.56      0.00
  -11   -4   13      0.50      0.00
  -10   -4   13      1.36      0.00
   -9   -4   13      1.97      0.00
   -8   -4   13      0.17      0.00
   -7   -4   13     -0.42      0.00
   -6   -4   13      2.34      0.00
   -5   -4   13      2.96      0.00
   -4   -4   13      1.55      0.00
   -3   -4   13      0.01      0.00
   -2   -4   13     -2.45      0.00
   -1   -4   13     -4.87      0.00
    0   -4   13     -3.16      0.00
    1   -4   13      0.88      0.00
    2   -4   13      2.97      0.00
    3   -4   13      1.12      0.00
    4   -4   13     -1.15      0.00
    5   -4   13     -1.44      0.00
  -15   -3   13      1.08      0.00
  -14   -3   13      1.57      0.00
  -13   -3   13      0.48      0.00
  -12   -3   13     -0.44      0.00
  -11   -3   13     -0.25      0.00
  -10   -3   13     -1.05      0.00
   -9   -3   13     -2.81      0.00
   -8   -3   13     -1.68      0.00
   -7   -3   13     -0.53      0.00
   -6   -3   13     -3.31      0.00
   -5   -3   13     -4.97      0.00
   -4   -3   13     -3.38      0.00
   -3   -3   13     -1.52      0.00
   -2   -3   13     -0.34      0.00
   -1   -3   13      1.79      0.00
    0   -3   13      1.98      0.00
    1   -3   13     -1.03      0.00
    2   -3   13     -3.94      0.00
    3   -3   13     -2.39      0.00
    4   -3   13      0.95      0.00
    5   -3   13      1.80      0.00
  -15   -2   13     -1.66      0.00
  -14   -2   13     -2.16      0.00
  -13   -2   13     -0.80      0.00
  -12   -2   13      0.65      0.00
  -11   -2   13     -0.13      0.00
  -10   -2   13     -1.14      0.00
   -9   -2   13     -0.23      0.00
   -8   -2   13     -0.72      0.00
   -7   -2   13     -2.40      0.00
   -6   -2   13     -1.46      0.00
   -5   -2   13     -0.06      0.00
   -4   -2   13     -0.41      0.00
   -3   -2   13     -1.05      0.00
   -2   -2   13     -0.71      0.00
   -1   -2   13     -1.15      0.00
    0   -2   13     -1.67      0.00
    1   -2   13     -0.33      0.00
    2   -2   13      2.50      0.00
    3   -2   13      2.45      0.00
    4   -2   13      0.32      0.00
    5   -2   13     -0.06      0.00
  -15   -1   13      1.09      0.00
  -14   -1   13      0.39      0.00
  -13   -1   13     -1.41      0.00
  -12   -1   13     -3.28      0.00
  -11   -1   13     -2.81      0.00
  -10   -1   13     -0.49      0.00
   -9   -1   13     -0.25      0.00
   -8   -1   13     -0.05      0.00
   -7   -1   13      2.52      0.00
   -6   -1   13      3.99      0.00
   -5   -1   13      3.03      0.00
   -4   -1   13      2.51      0.00
   -3   -1   13      3.46      0.00
   -2   -1   13      3.10      0.00
   -1   -1   13      2.72      0.00
    0   -1   13      3.90      0.00
    1   -1   13      3.52      0.00
    2   -1   13     -0.19      0.00
    3   -1   13     -2.67      0.00
    4   -1   13     -2.15      0.00
  -16    0   13     -1.97      0.00
  -15    0   13     -1.14      0.00
  -14    0   13     -0.77      0.00
  -13    0   13     -0.05      0.00
  -12    0   13      1.86      0.00
  -11    0   13      2.55      0.00
  -10    0   13      0.80      0.00
   -9    0   13      0.95      0.00
   -8    0   13      2.29      0.00
   -7    0   13      1.40      0.00
   -6    0   13      0.16      0.00
   -5    0   13      0.89      0.00
   -4    0   13      1.41      0.00
   -3    0   13     -0.11      0.00
   -2    0   13     -1.08      0.00
   -1    0   13     -1.49      0.00
    0    0   13     -2.53      0.00
    1    0   13     -2.20      0.00
    2    0   13      0.93      0.00
    3    0   13      3.21      0.00
    4    0   13      1.87      0.00
  -16    1   13      2.02      0.00
  -15    1   13      2.09      0.00
  -14    1   13      3.11      0.00
  -13    1   13      3.70      0.00
  -12    1   13      2.50      0.00
  -11    1   13      0.53      0.00
  -10    1   13      0.47      0.00
   -9    1   13      0.05      0.00
   -8    1   13     -1.81      0.00
   -7    1   13     -2.55      0.00
   -6    1   13     -1.29      0.00
   -5    1   13     -1.00      0.00
   -4    1   13     -1.73      0.00
   -3    1   13     -0.41      0.00
   -2    1   13      0.92      0.00
   -1    1   13      0.68      0.00
    0    1   13      0.99      0.00
    1    1   13      1.24      0.00
    2    1   13     -0.38      0.00
    3    1   13     -1.60      0.00
  -16    2   13     -1.23      0.00
  -15    2   13     -1.38      0.00
  -14    2   13     -2.01      0.00
  -13    2   13     -2.22      0.00
  -12    2   13     -0.43      0.00
  -11    2   13      3.13      0.00
  -10    2   13      3.78      0.00
   -9    2   13      2.45      0.00
   -8    2   13      2.13      0.00
   -7    2   13      1.98      0.00
   -6    2   13      0.52      0.00
   -5    2   13      0.35      0.00
   -4    2   13      1.55      0.00
   -3    2   13      1.08      0.00
   -2    2   13      0.39      0.00
   -1    2   13      0.08      0.00
    0    2   13     -0.88      0.00
    1    2   13     -1.07      0.00
    2    2   13     -0.16      0.00
    3    2   13      0.65      0.00
  -16    3   13      0.95      0.00
  -15    3   13      0.80      0.00
  -14    3   13      0.85      0.00
  -13    3   13      0.30      0.00
  -12    3   13     -1.07      0.00
  -11    3   13     -3.20      0.00
  -10    3   13     -3.42      0.00
   -9    3   13     -1.63      0.00
   -8    3   13      0.29      0.00
   -7    3   13      0.40      0.00
   -6    3   13      0.10      0.00
   -5    3   13     -0.45      0.00
   -4    3   13     -1.88      0.00
   -3    3   13     -2.42      0.00
   -2    3   13     -1.64      0.00
   -1    3   13     -0.57      0.00
    0    3   13     -0.27      0.00
    1    3   13     -0.60      0.00
    2    3   13     -0.62      0.00
  -16    4   13     -0.19      0.00
  -15    4   13      0.13      0.00
  -14    4   13     -0.11      0.00
  -13    4   13     -0.78      0.00
  -12    4   13     -2.84      0.00
  -11    4   13     -3.40      0.00
  -10    4   13     -2.43      0.00
   -9    4   13     -2.50      0.00
   -8    4   13     -3.62      0.00
   -7    4   13     -2.88      0.00
   -6    4   13     -2.10      0.00
   -5    4   13     -1.68      0.00
   -4    4   13     -0.37      0.00
   -3    4   13     -0.08      0.00
   -2    4   13     -0.85      0.00
   -1    4   13     -1.00      0.00
    0    4   13     -0.53      0.00
    1    4   13     -0.06      0.00
  -15    5   13     -1.03      0.00
  -14    5   13     -0.36      0.00
  -13    5   13      0.98      0.00
  -12    5   13      3.25      0.00
  -11    5   13      3.70      0.00
  -10    5   13      1.85      0.00
   -9    5   13      0.35      0.00
   -8    5   13      1.30      0.00
   -7    5   13      2.04      0.00
   -6    5   13      1.66      0.00
   -5    5   13      0.45      0.00
   -4    5   13     -0.37      0.00
   -3    5   13      0.18      0.00
   -2    5   13      0.69      0.00
   -1    5   13      0.84      0.00
    0    5   13      0.67      0.00
  -15    6   13      0.89      0.00
  -14    6   13      0.01      0.00
  -13    6   13      0.22      0.00
  -12    6   13      0.09      0.00
  -11    6   13     -0.04      0.00
  -10    6   13      1.73      0.00
   -9    6   13      3.49      0.00
   -8    6   13      1.65      0.00
   -7    6   13     -0.22      0.00
   -6    6   13      0.19      0.00
   -5    6   13      1.15      0.00
   -4    6   13      1.13      0.00
   -3    6   13      0.62      0.00
   -2    6   13      0.21      0.00
   -1    6   13     -0.14      0.00
  -15    7   13     -0.80      0.00
  -14    7   13     -0.32      0.00
  -13    7   13     -1.14      0.00
  -12    7   13     -1.00      0.00
  -11    7   13     -0.12      0.00
  -10    7   13     -0.96      0.00
   -9    7   13     -2.33      0.00
   -8    7   13     -1.17      0.00
   -7    7   13      0.27      0.00
   -6    7   13      0.73      0.00
   -5    7   13      0.48      0.00
   -4    7   13     -0.02      0.00
   -3    7   13     -0.03      0.00
   -2    7   13      0.43      0.00
  -14    8   13     -0.40      0.00
  -13    8   13     -0.23      0.00
  -12    8   13     -0.40      0.00
  -11    8   13     -1.16      0.00
  -10    8   13     -1.17      0.00
   -9    8   13     -0.13      0.00
   -8    8   13     -0.16      0.00
   -7    8   13     -1.02      0.00
   -6    8   13     -1.51      0.00
   -5    8   13     -0.65      0.00
   -4    8   13      0.34      0.00
  -12    9   13     -0.06      0.00
  -11    9   13      0.53      0.00
  -10    9   13      1.26      0.00
   -9    9   13      0.79      0.00
   -8    9   13      0.43      0.00
   -7    9   13      0.63      0.00
   -6    9   13      0.71      0.00
   -2  -14   14      0.23      0.00
   -1  -14   14     -1.07      0.00
    0  -14   14     -2.16      0.00
   -5  -13   14      0.24      0.00
   -4  -13   14      1.51      0.00
   -3  -13   14      1.25      0.00
   -2  -13   14     -0.47      0.00
   -1  -13   14      0.13      0.00
    0  -13   14      2.82      0.00
    1  -13   14      2.22      0.00
    2  -13   14      0.43      0.00
   -7  -12   14      1.25      0.00
   -6  -12   14      1.36      0.00
   -5  -12   14      1.14      0.00
   -4  -12   14     -0.13      0.00
   -3  -12   14     -0.39      0.00
   -2  -12   14      1.51      0.00
   -1  -12   14      1.42      0.00
    0  -12   14     -1.48      0.00
    1  -12   14     -1.73      0.00
    2  -12   14     -0.55      0.00
    3  -12   14     -0.39      0.00
   -8  -11   14     -1.76      0.00
   -7  -11   14     -2.09      0.00
   -6  -11   14     -2.12      0.00
   -5  -11   14     -1.86      0.00
   -4  -11   14     -0.63      0.00
   -3  -11   14      0.96      0.00
   -2  -11   14     -0.55      0.00
   -1  -11   14     -3.05      0.00
    0  -11   14     -1.86      0.00
    1  -11   14     -0.34      0.00
    2  -11   14     -0.45      0.00
    3  -11   14     -0.63      0.00
    4  -11   14      0.62      0.00
  -10  -10   14      0.46      0.00
   -9  -10   14      0.36      0.00
   -8  -10   14      1.79      0.00
   -7  -10   14      2.37      0.00
   -6  -10   14      1.32      0.00
   -5  -10   14      0.19      0.00
   -4  -10   14     -1.01      0.00
   -3  -10   14     -3.01      0.00
   -2  -10   14     -0.94      0.00
   -1  -10   14      3.36      0.00
    0  -10   14      2.92      0.00
    1  -10   14      0.12      0.00
    2  -10   14     -0.77      0.00
    3  -10   14      0.18      0.00
    4  -10   14      0.16      0.00
  -11   -9   14     -1.99      0.00
  -10   -9   14     -1.04      0.00
   -9   -9   14      0.12      0.00
   -8   -9   14     -1.38      0.00
   -7   -9   14     -2.21      0.00
   -6   -9   14     -1.17      0.00
   -5   -9   14     -0.59      0.00
   -4   -9   14     -1.27      0.00
   -3   -9   14     -0.55      0.00
   -2   -9   14     -1.27      0.00
   -1   -9   14     -3.81      0.00
    0   -9   14     -3.53      0.00
    1   -9   14     -0.58      0.00
    2   -9   14      0.55      0.00
    3   -9   14     -1.65      0.00
    4   -9   14     -2.87      0.00
  -11   -8   14      0.85      0.00
  -10   -8   14      0.23      0.00
   -9   -8   14     -1.03      0.00
   -8   -8   14     -0.80      0.00
   -7   -8   14      0.08      0.00
   -6   -8   14      0.29      0.00
   -5   -8   14      0.40      0.00
   -4   -8   14      1.84      0.00
   -3   -8   14      0.64      0.00
   -2   -8   14     -1.26      0.00
   -1   -8   14      0.20      0.00
    0   -8   14      2.50      0.00
    1   -8   14      2.19      0.00
    2   -8   14      1.60      0.00
    3   -8   14      3.15      0.00
    4   -8   14      3.94      0.00
    5   -8   14      2.62      0.00
  -12   -7   14      0.04      0.00
  -11   -7   14     -1.67      0.00
  -10   -7   14     -2.40      0.00
   -9   -7   14      0.02      0.00
   -8   -7   14      2.12      0.00
   -7   -7   14      1.55      0.00
   -6   -7   14      1.24      0.00
   -5   -7   14      2.76      0.00
   -4   -7   14      3.30      0.00
   -3   -7   14      5.15      0.00
   -2   -7   14      7.44      0.00
   -1   -7   14      5.95      0.00
    0   -7   14      1.08      0.00
    1   -7   14     -1.24      0.00
    2   -7   14     -0.57      0.00
    3   -7   14     -0.81      0.00
    4   -7   14     -1.85      0.00
    5   -7   14     -1.71      0.00
  -13   -6   14      0.74      0.00
  -12   -6   14      1.14      0.00
  -11   -6   14      3.20      0.00
  -10   -6   14      3.98      0.00
   -9   -6   14      1.69      0.00
   -8   -6   14     -1.07      0.00
   -7   -6   14     -1.48      0.00
   -6   -6   14     -1.43      0.00
   -5   -6   14     -3.34      0.00
   -4   -6   14     -3.83      0.00
   -3   -6   14     -3.95      0.00
   -2   -6   14     -5.50      0.00
   -1   -6   14     -5.24      0.00
    0   -6   14     -1.07      0.00
    1   -6   14      1.33      0.00
    2   -6   14      0.45      0.00
    3   -6   14     -0.42      0.00
    4   -6   14      0.11      0.00
    5   -6   14      0.58      0.00
  -13   -5   14     -0.88      0.00
  -12   -5   14     -0.88      0.00
  -11   -5   14     -1.44      0.00
  -10   -5   14     -3.04      0.00
   -9   -5   14     -3.18      0.00
   -8   -5   14     -0.23      0.00
   -7   -5   14      1.23      0.00
   -6   -5   14      0.11      0.00
   -5   -5   14      0.41      0.00
   -4   -5   14      0.41      0.00
   -3   -5   14     -0.20      0.00
   -2   -5   14      1.05      0.00
   -1   -5   14      2.85      0.00
    0   -5   14      1.10      0.00
    1   -5   14     -1.47      0.00
    2   -5   14     -1.90      0.00
    3   -5   14     -0.42      0.00
    4   -5   14      0.28      0.00
  -14   -4   14      0.24      0.00
  -13   -4   14      0.76      0.00
  -12   -4   14     -0.24      0.00
  -11   -4   14     -0.84      0.00
  -10   -4   14      0.86      0.00
   -9   -4   14      1.92      0.00
   -8   -4   14     -0.71      0.00
   -7   -4   14     -2.13      0.00
   -6   -4   14     -0.20      0.00
   -5   -4   14      0.38      0.00
   -4   -4   14      0.27      0.00
   -3   -4   14      1.23      0.00
   -2   -4   14      0.32      0.00
   -1   -4   14     -2.76      0.00
    0   -4   14     -2.41      0.00
    1   -4   14      0.67      0.00
    2   -4   14      2.62      0.00
    3   -4   14      1.45      0.00
    4   -4   14      0.04      0.00
  -14   -3   14     -0.53      0.00
  -13   -3   14     -1.32      0.00
  -12   -3   14     -0.57      0.00
  -11   -3   14      1.27      0.00
  -10   -3   14      1.58      0.00
   -9   -3   14      0.43      0.00
   -8   -3   14      1.91      0.00
   -7   -3   14      4.03      0.00
   -6   -3   14      3.31      0.00
   -5   -3   14      2.18      0.00
   -4   -3   14      1.45      0.00
   -3   -3   14      0.28      0.00
   -2   -3   14      0.36      0.00
   -1   -3   14      2.31      0.00
    0   -3   14      2.66      0.00
    1   -3   14      0.60      0.00
    2   -3   14     -2.21      0.00
    3   -3   14     -2.45      0.00
    4   -3   14     -1.30      0.00
  -15   -2   14      0.66      0.00
  -14   -2   14      1.43      0.00
  -13   -2   14      2.41      0.00
  -12   -2   14      2.15      0.00
  -11   -2   14      0.05      0.00
  -10   -2   14     -0.98      0.00
   -9   -2   14      1.06      0.00
   -8   -2   14      1.09      0.00
   -7   -2   14     -1.31      0.00
   -6   -2   14     -1.42      0.00
   -5   -2   14      0.15      0.00
   -4   -2   14      0.60      0.00
   -3   -2   14      0.69      0.00
   -2   -2   14      1.00      0.00
   -1   -2   14     -0.39      0.00
    0   -2   14     -2.21      0.00
    1   -2   14     -1.52      0.00
    2   -2   14      1.87      0.00
    3   -2   14      3.41      0.00
  -15   -1   14     -0.10      0.00
  -14   -1   14      0.17      0.00
  -13   -1   14      0.07      0.00
  -12   -1   14     -0.16      0.00
  -11   -1   14      0.77      0.00
  -10   -1   14      1.44      0.00
   -9   -1   14     -1.00      0.00
   -8   -1   14     -2.81      0.00
   -7   -1   14     -2.09      0.00
   -6   -1   14     -1.96      0.00
   -5   -1   14     -3.04      0.00
   -4   -1   14     -3.21      0.00
   -3   -1   14     -2.58      0.00
   -2   -1   14     -2.20      0.00
   -1   -1   14     -0.92      0.00
    0   -1   14      1.17      0.00
    1   -1   14      1.61      0.00
    2   -1   14     -0.74      0.00
    3   -1   14     -1.88      0.00
  -15    0   14     -0.60      0.00
  -14    0   14     -1.39      0.00
  -13    0   14     -1.65      0.00
  -12    0   14     -0.92      0.00
  -11    0   14     -0.44      0.00
  -10    0   14     -1.36      0.00
   -9    0   14     -0.39      0.00
   -8    0   14      1.61      0.00
   -7    0   14      1.42      0.00
   -6    0   14      0.01      0.00
   -5    0   14      0.26      0.00
   -4    0   14      0.90      0.00
   -3    0   14      0.18      0.00
   -2    0   14      0.00      0.00
   -1    0   14     -0.23      0.00
    0    0   14     -2.39      0.00
    1    0   14     -3.95      0.00
    2    0   14     -2.61      0.00
  -15    1   14     -0.34      0.00
  -14    1   14      0.01      0.00
  -13    1   14      0.19      0.00
  -12    1   14     -1.13      0.00
  -11    1   14     -2.55      0.00
  -10    1   14     -1.24      0.00
   -9    1   14     -0.61      0.00
   -8    1   14     -1.52      0.00
   -7    1   14     -1.15      0.00
   -6    1   14      0.37      0.00
   -5    1   14      0.11      0.00
   -4    1   14     -1.00      0.00
   -3    1   14     -1.12      0.00
   -2    1   14     -1.29      0.00
   -1    1   14     -0.51      0.00
    0    1   14      1.90      0.00
    1    1   14      3.32      0.00
    2    1   14      2.16      0.00
  -15    2   14     -0.31      0.00
  -14    2   14     -1.43      0.00
  -13    2   14     -2.27      0.00
  -12    2   14     -1.90      0.00
  -11    2   14     -0.52      0.00
  -10    2   14     -0.71      0.00
   -9    2   14     -1.16      0.00
   -8    2   14     -0.31      0.00
   -7    2   14      1.01      0.00
   -6    2   14      0.75      0.00
   -5    2   14      0.56      0.00
   -4    2   14      1.61      0.00
   -3    2   14      1.98      0.00
   -2    2   14      1.82      0.00
   -1    2   14      1.52      0.00
    0    2   14      0.45      0.00
    1    2   14     -0.48      0.00
  -15    3   14      1.36      0.00
  -14    3   14      3.21      0.00
  -13    3   14      4.76      0.00
  -12    3   14      5.13      0.00
  -11    3   14      3.30      0.00
  -10    3   14      2.35      0.00
   -9    3   14      2.55      0.00
   -8    3   14      1.68      0.00
   -7    3   14     -0.05      0.00
   -6    3   14      0.17      0.00
   -5    3   14      0.68      0.00
   -4    3   14      0.19      0.00
   -3    3   14      0.25      0.00
   -2    3   14     -0.41      0.00
   -1    3   14     -1.24      0.00
    0    3   14     -0.57      0.00
  -15    4   14     -1.91      0.00
  -14    4   14     -3.37      0.00
  -13    4   14     -3.16      0.00
  -12    4   14     -1.62      0.00
  -11    4   14      0.60      0.00
  -10    4   14      1.59      0.00
   -9    4   14      1.13      0.00
   -8    4   14     -0.03      0.00
   -7    4   14     -0.10      0.00
   -6    4   14      0.19      0.00
   -5    4   14      0.33      0.00
   -4    4   14      0.37      0.00
   -3    4   14      0.51      0.00
   -2    4   14      1.49      0.00
   -1    4   14      1.75      0.00
  -15    5   14      1.64      0.00
  -14    5   14      2.00      0.00
  -13    5   14      0.14      0.00
  -12    5   14     -1.37      0.00
  -11    5   14     -2.27      0.00
  -10    5   14     -3.22      0.00
   -9    5   14     -2.78      0.00
   -8    5   14     -0.64      0.00
   -7    5   14     -0.40      0.00
   -6    5   14     -1.01      0.00
   -5    5   14     -0.70      0.00
   -4    5   14     -0.46      0.00
   -3    5   14     -0.44      0.00
   -2    5   14     -0.65      0.00
  -14    6   14      0.11      0.00
  -13    6   14      0.90      0.00
  -12    6   14      0.70      0.00
  -11    6   14      0.25      0.00
  -10    6   14      0.71      0.00
   -9    6   14      1.00      0.00
   -8    6   14      0.18      0.00
   -7    6   14      0.04      0.00
   -6    6   14     -0.07      0.00
   -5    6   14     -0.09      0.00
   -4    6   14      0.12      0.00
   -3    6   14     -0.43      0.00
  -13    7   14     -0.08      0.00
  -12    7   14     -0.37      0.00
  -11    7   14      0.27      0.00
  -10    7   14      0.26      0.00
   -9    7   14     -0.48      0.00
   -8    7   14      0.19      0.00
   -7    7   14      0.99      0.00
   -6    7   14      0.69      0.00
   -5    7   14     -0.23      0.00
   -4    7   14     -0.43      0.00
  -12    8   14      1.35      0.00
  -11    8   14      0.62      0.00
  -10    8   14      0.40      0.00
   -9    8   14      0.66      0.00
   -8    8   14     -0.27      0.00
   -7    8   14     -0.66      0.00
   -6    8   14     -0.24      0.00
   -3  -13   15     -1.03      0.00
   -2  -13   15     -2.12      0.00
   -1  -13   15     -1.22      0.00
   -6  -12   15      0.65      0.00
   -5  -12   15      0.47      0.00
   -4  -12   15     -0.05      0.00
   -3  -12   15     -0.18      0.00
   -2  -12   15      1.54      0.00
   -1  -12   15      2.38      0.00
    0  -12   15      0.55      0.00
    1  -12   15      0.43      0.00
   -8  -11   15     -0.73      0.00
   -7  -11   15     -0.99      0.00
   -6  -11   15     -0.67      0.00
   -5  -11   15     -0.33      0.00
   -4  -11   15      0.46      0.00
   -3  -11   15      1.21      0.00
   -2  -11   15     -0.95      0.00
   -1  -11   15     -2.65      0.00
    0  -11   15     -0.87      0.00
    1  -11   15     -0.10      0.00
    2  -11   15     -0.97      0.00
   -9  -10   15     -1.24      0.00
   -8  -10   15      0.39      0.00
   -7  -10   15      1.19      0.00
   -6  -10   15      1.12      0.00
   -5  -10   15      1.30      0.00
   -4  -10   15      1.81      0.00
   -3  -10   15      1.18      0.00
   -2  -10   15      1.94      0.00
   -1  -10   15      3.42      0.00
    0  -10   15      2.52      0.00
    1  -10   15      1.26      0.00
    2  -10   15      1.59      0.00
    3  -10   15      2.52      0.00
  -10   -9   15      0.91      0.00
   -9   -9   15      1.62      0.00
   -8   -9   15      0.99      0.00
   -7   -9   15      0.05      0.00
   -6   -9   15      0.20      0.00
   -5   -9   15      0.18      0.00
   -4   -9   15     -0.73      0.00
   -3   -9   15      0.71      0.00
   -2   -9   15      1.13      0.00
   -1   -9   15     -1.39      0.00
    0   -9   15     -2.85      0.00
    1   -9   15     -1.99      0.00
    2   -9   15     -1.25      0.00
    3   -9   15     -1.75      0.00
  -11   -8   15      1.94      0.00
  -10   -8   15      1.83      0.00
   -9   -8   15     -0.56      0.00
   -8   -8   15     -1.21      0.00
   -7   -8   15     -0.61      0.00
   -6   -8   15     -1.55      0.00
   -5   -8   15     -2.92      0.00
   -4   -8   15     -2.75      0.00
   -3   -8   15     -3.72      0.00
   -2   -8   15     -3.96      0.00
   -1   -8   15     -1.48      0.00
    0   -8   15      0.90      0.00
    1   -8   15      0.06      0.00
    2   -8   15     -1.47      0.00
    3   -8   15     -0.72      0.00
  -12   -7   15     -0.08      0.00
  -11   -7   15     -1.40      0.00
  -10   -7   15     -1.51      0.00
   -9   -7   15     -0.21      0.00
   -8   -7   15      0.70      0.00
   -7   -7   15      0.57      0.00
   -6   -7   15      1.02      0.00
   -5   -7   15      1.90      0.00
   -4   -7   15      0.51      0.00
   -3   -7   15     -0.27      0.00
   -2   -7   15      0.80      0.00
   -1   -7   15      0.99      0.00
    0   -7   15     -0.35      0.00
    1   -7   15      0.08      0.00
    2   -7   15      1.29      0.00
    3   -7   15      0.97      0.00
  -12   -6   15     -2.51      0.00
  -11   -6   15     -1.93      0.00
  -10   -6   15      0.59      0.00
   -9   -6   15      1.10      0.00
   -8   -6   15     -0.85      0.00
   -7   -6   15     -0.94      0.00
   -6   -6   15      0.31      0.00
   -5   -6   15      0.66      0.00
   -4   -6   15      1.98      0.00
   -3   -6   15      2.43      0.00
   -2   -6   15     -0.15      0.00
   -1   -6   15     -2.69      0.00
    0   -6   15     -1.42      0.00
    1   -6   15      0.20      0.00
    2   -6   15      0.18      0.00
    3   -6   15     -0.30      0.00
  -13   -5   15      1.61      0.00
  -12   -5   15      3.27      0.00
  -11   -5   15      2.18      0.00
  -10   -5   15     -0.79      0.00
   -9   -5   15     -1.50      0.00
   -8   -5   15      0.62      0.00
   -7   -5   15      0.64      0.00
   -6   -5   15     -1.28      0.00
   -5   -5   15     -1.50      0.00
   -4   -5   15     -1.45      0.00
   -3   -5   15     -1.42      0.00
   -2   -5   15      1.19      0.00
   -1   -5   15      4.15      0.00
    0   -5   15      2.74      0.00
    1   -5   15      0.09      0.00
    2   -5   15     -0.92      0.00
    3   -5   15     -0.25      0.00
  -13   -4   15     -0.69      0.00
  -12   -4   15     -1.19      0.00
  -11   -4   15     -1.29      0.00
  -10   -4   15      0.39      0.00
   -9   -4   15      2.37      0.00
   -8   -4   15      1.25      0.00
   -7   -4   15      0.31      0.00
   -6   -4   15      1.53      0.00
   -5   -4   15      1.81      0.00
   -4   -4   15      1.34      0.00
   -3   -4   15      1.53      0.00
   -2   -4   15      0.32      0.00
   -1   -4   15     -2.19      0.00
    0   -4   15     -2.27      0.00
    1   -4   15     -0.58      0.00
    2   -4   15      1.06      0.00
    3   -4   15      0.91      0.00
  -14   -3   15      0.05      0.00
  -13   -3   15     -0.66      0.00
  -12   -3   15     -0.41      0.00
  -11   -3   15      0.56      0.00
  -10   -3   15     -0.82      0.00
   -9   -3   15     -3.90      0.00
   -8   -3   15     -3.55      0.00
   -7   -3   15     -2.16      0.00
   -6   -3   15     -3.14      0.00
   -5   -3   15     -3.78      0.00
   -4   -3   15     -2.97      0.00
   -3   -3   15     -3.10      0.00
   -2   -3   15     -2.64      0.00
   -1   -3   15      0.05      0.00
    0   -3   15      1.71      0.00
    1   -3   15      0.95      0.00
    2   -3   15     -1.15      0.00
  -14   -2   15     -0.74      0.00
  -13   -2   15      0.19      0.00
  -12   -2   15      0.65      0.00
  -11   -2   15     -0.24      0.00
  -10   -2   15     -0.38      0.00
   -9   -2   15      1.70      0.00
   -8   -2   15      2.14      0.00
   -7   -2   15      1.21      0.00
   -6   -2   15      1.64      0.00
   -5   -2   15      2.46      0.00
   -4   -2   15      2.24      0.00
   -3   -2   15      2.27      0.00
   -2   -2   15      2.10      0.00
   -1   -2   15      0.62      0.00
    0   -2   15     -0.98      0.00
    1   -2   15     -1.29      0.00
    2   -2   15      0.02      0.00
  -14   -1   15      0.10      0.00
  -13   -1   15     -1.31      0.00
  -12   -1   15     -2.34      0.00
  -11   -1   15     -1.16      0.00
  -10   -1   15      1.05      0.00
   -9   -1   15      0.40      0.00
   -8   -1   15     -0.45      0.00
   -7   -1   15      0.82      0.00
   -6   -1   15      1.70      0.00
   -5   -1   15      0.83      0.00
   -4   -1   15      0.47      0.00
   -3   -1   15      0.36      0.00
   -2   -1   15     -0.70      0.00
   -1   -1   15     -0.75      0.00
    0   -1   15      1.24      0.00
    1   -1   15      2.91      0.00
    2   -1   15      2.08      0.00
  -15    0   15     -0.21      0.00
  -14    0   15      0.43      0.00
  -13    0   15      1.44      0.00
  -12    0   15      2.40      0.00
  -11    0   15      1.76      0.00
  -10    0   15     -0.37      0.00
   -9    0   15     -0.09      0.00
   -8    0   15      1.13      0.00
   -7    0   15      0.66      0.00
   -6    0   15     -0.18      0.00
   -5    0   15      0.31      0.00
   -4    0   15      0.77      0.00
   -3    0   15      1.12      0.00
   -2    0   15      2.09      0.00
   -1    0   15      1.90      0.00
    0    0   15     -0.28      0.00
    1    0   15     -1.97      0.00
  -15    1   15      1.83      0.00
  -14    1   15      2.14      0.00
  -13    1   15      1.95      0.00
  -12    1   15      1.06      0.00
  -11    1   15      0.20      0.00
  -10    1   15      1.24      0.00
   -9    1   15      1.33      0.00
   -8    1   15     -0.63      0.00
   -7    1   15     -2.07      0.00
   -6    1   15     -1.49      0.00
   -5    1   15     -1.21      0.00
   -4    1   15     -1.43      0.00
   -3    1   15     -1.04      0.00
   -2    1   15     -1.50      0.00
   -1    1   15     -2.03      0.00
    0    1   15     -0.75      0.00
  -15    2   15     -1.86      0.00
  -14    2   15     -2.32      0.00
  -13    2   15     -2.08      0.00
  -12    2   15     -0.62      0.00
  -11    2   15      1.10      0.00
  -10    2   15      0.00      0.00
   -9    2   15     -1.17      0.00
   -8    2   15     -0.14      0.00
   -7    2   15      0.87      0.00
   -6    2   15      0.16      0.00
   -5    2   15     -0.06      0.00
   -4    2   15      0.08      0.00
   -3    2   15     -0.12      0.00
   -2    2   15      1.15      0.00
   -1    2   15      1.91      0.00
    0    2   15      0.66      0.00
  -14    3   15      1.07      0.00
  -13    3   15      0.16      0.00
  -12    3   15     -1.38      0.00
  -11    3   15     -2.82      0.00
  -10    3   15     -2.18      0.00
   -9    3   15     -0.38      0.00
   -8    3   15      0.95      0.00
   -7    3   15      0.95      0.00
   -6    3   15      0.87      0.00
   -5    3   15      0.65      0.00
   -4    3   15      0.08      0.00
   -3    3   15     -0.31      0.00
   -2    3   15     -1.16      0.00
   -1    3   15     -1.43      0.00
  -14    4   15      0.00      0.00
  -13    4   15      0.08      0.00
  -12    4   15     -0.11      0.00
  -11    4   15      0.57      0.00
  -10    4   15      0.70      0.00
   -9    4   15     -0.83      0.00
   -8    4   15     -2.17      0.00
   -7    4   15     -1.44      0.00
   -6    4   15     -0.91      0.00
   -5    4   15     -0.69      0.00
   -4    4   15     -0.36      0.00
   -3    4   15     -1.14      0.00
   -2    4   15     -1.20      0.00
  -14    5   15     -0.99      0.00
  -13    5   15     -0.39      0.00
  -12    5   15      0.22      0.00
  -11    5   15      0.34      0.00
  -10    5   15      0.50      0.00
   -9    5   15      1.05      0.00
   -8    5   15      1.70      0.00
   -7    5   15      1.27      0.00
   -6    5   15      0.39      0.00
   -5    5   15     -0.66      0.00
   -4    5   15     -0.64      0.00
  -13    6   15      0.84      0.00
  -12    6   15      1.17      0.00
  -11    6   15      0.61      0.00
  -10    6   15      0.58      0.00
   -9    6   15      0.35      0.00
   -8    6   15     -1.30      0.00
   -7    6   15     -1.51      0.00
   -6    6   15     -0.06      0.00
   -5    6   15      1.06      0.00
  -11    7   15     -0.06      0.00
  -10    7   15     -0.23      0.00
   -9    7   15      0.05      0.00
   -8    7   15      1.34      0.00
   -3  -12   16     -0.91      0.00
   -6  -11   16     -0.20      0.00
   -5  -11   16     -0.10      0.00
   -4  -11   16     -0.12      0.00
   -3  -11   16     -0.01      0.00
   -2  -11   16     -1.33      0.00
   -1  -11   16     -2.26      0.00
    0  -11   16     -0.93      0.00
   -8  -10   16     -1.25      0.00
   -7  -10   16     -0.62      0.00
   -6  -10   16     -0.66      0.00
   -5  -10   16     -0.60      0.00
   -4  -10   16     -0.35      0.00
   -3  -10   16     -1.16      0.00
   -2  -10   16      0.17      0.00
   -1  -10   16      2.34      0.00
    0  -10   16      1.79      0.00
    1  -10   16      0.23      0.00
   -9   -9   16      1.20      0.00
   -8   -9   16      0.59      0.00
   -7   -9   16     -0.44      0.00
   -6   -9   16     -0.14      0.00
   -5   -9   16      0.50      0.00
   -4   -9   16      0.27      0.00
   -3   -9   16      0.46      0.00
   -2   -9   16     -0.57      0.00
   -1   -9   16     -2.06      0.00
    0   -9   16     -1.44      0.00
    1   -9   16      0.72      0.00
  -10   -8   16      0.17      0.00
   -9   -8   16     -0.38      0.00
   -8   -8   16     -0.24      0.00
   -7   -8   16      0.72      0.00
   -6   -8   16      0.68      0.00
   -5   -8   16      0.43      0.00
   -4   -8   16      2.02      0.00
   -3   -8   16      2.46      0.00
   -2   -8   16      1.66      0.00
   -1   -8   16      1.40      0.00
    0   -8   16      1.29      0.00
    1   -8   16     -0.13      0.00
  -11   -7   16      0.29      0.00
  -10   -7   16     -1.55      0.00
   -9   -7   16     -0.72      0.00
   -8   -7   16      0.70      0.00
   -7   -7   16      0.09      0.00
   -6   -7   16     -0.37      0.00
   -5   -7   16     -0.15      0.00
   -4   -7   16     -0.80      0.00
   -3   -7   16     -0.29      0.00
   -2   -7   16      1.41      0.00
   -1   -7   16      1.70      0.00
    0   -7   16      0.07      0.00
    1   -7   16      0.00      0.00
    2   -7   16      1.02      0.00
  -12   -6   16     -1.32      0.00
  -11   -6   16      0.23      0.00
  -10   -6   16      1.82      0.00
   -9   -6   16      1.66      0.00
   -8   -6   16      0.64      0.00
   -7   -6   16      1.25      0.00
   -6   -6   16      1.72      0.00
   -5   -6   16      0.34      0.00
   -4   -6   16     -0.63      0.00
   -3   -6   16     -0.78      0.00
   -2   -6   16     -1.62      0.00
   -1   -6   16     -1.98      0.00
    0   -6   16     -0.38      0.00
    1   -6   16      0.18      0.00
  -12   -5   16      1.37      0.00
  -11   -5   16      1.86      0.00
  -10   -5   16     -0.31      0.00
   -9   -5   16     -2.92      0.00
   -8   -5   16     -2.74      0.00
   -7   -5   16     -2.63      0.00
   -6   -5   16     -2.80      0.00
   -5   -5   16     -1.32      0.00
   -4   -5   16     -0.18      0.00
   -3   -5   16     -0.93      0.00
   -2   -5   16     -0.84      0.00
   -1   -5   16      0.40      0.00
    0   -5   16      0.12      0.00
    1   -5   16     -0.29      0.00
  -13   -4   16      0.11      0.00
  -12   -4   16     -1.77      0.00
  -11   -4   16     -2.67      0.00
  -10   -4   16     -0.12      0.00
   -9   -4   16      2.99      0.00
   -8   -4   16      2.57      0.00
   -7   -4   16      1.83      0.00
   -6   -4   16      2.21      0.00
   -5   -4   16      1.34      0.00
   -4   -4   16      0.12      0.00
   -3   -4   16      1.04      0.00
   -2   -4   16      1.44      0.00
   -1   -4   16      0.21      0.00
    0   -4   16      0.01      0.00
    1   -4   16      0.30      0.00
  -13   -3   16     -0.40      0.00
  -12   -3   16      0.37      0.00
  -11   -3   16      1.75      0.00
  -10   -3   16      1.52      0.00
   -9   -3   16     -0.51      0.00
   -8   -3   16     -0.37      0.00
   -7   -3   16      0.76      0.00
   -6   -3   16      0.78      0.00
   -5   -3   16      0.95      0.00
   -4   -3   16      1.56      0.00
   -3   -3   16      0.31      0.00
   -2   -3   16     -1.29      0.00
   -1   -3   16     -1.47      0.00
    0   -3   16     -1.11      0.00
    1   -3   16     -0.52      0.00
  -13   -2   16      2.31      0.00
  -12   -2   16      1.85      0.00
  -11   -2   16     -0.54      0.00
  -10   -2   16     -1.74      0.00
   -9   -2   16      0.22      0.00
   -8   -2   16      0.63      0.00
   -7   -2   16     -1.11      0.00
   -6   -2   16     -1.79      0.00
   -5   -2   16     -1.47      0.00
   -4   -2   16     -1.78      0.00
   -3   -2   16     -0.70      0.00
   -2   -2   16      1.40      0.00
   -1   -2   16      2.06      0.00
    0   -2   16      1.08      0.00
  -14   -1   16     -1.50      0.00
  -13   -1   16     -1.78      0.00
  -12   -1   16     -1.40      0.00
  -11   -1   16     -0.04      0.00
  -10   -1   16      0.86      0.00
   -9   -1   16     -0.79      0.00
   -8   -1   16     -1.86      0.00
   -7   -1   16     -1.15      0.00
   -6   -1   16     -0.73      0.00
   -5   -1   16     -0.98      0.00
   -4   -1   16     -0.30      0.00
   -3   -1   16      0.13      0.00
   -2   -1   16     -0.55      0.00
   -1   -1   16     -1.19      0.00
    0   -1   16     -0.74      0.00
  -14    0   16     -0.20      0.00
  -13    0   16     -0.21      0.00
  -12    0   16      0.34      0.00
  -11    0   16      0.42      0.00
  -10    0   16     -0.97      0.00
   -9    0   16     -0.68      0.00
   -8    0   16      0.99      0.00
   -7    0   16      1.54      0.00
   -6    0   16      1.16      0.00
   -5    0   16      1.23      0.00
   -4    0   16      0.10      0.00
   -3    0   16     -1.66      0.00
   -2    0   16     -1.12      0.00
   -1    0   16      0.55      0.00
  -14    1   16     -0.44      0.00
  -13    1   16     -0.45      0.00
  -12    1   16     -1.31      0.00
  -11    1   16     -1.79      0.00
  -10    1   16     -0.02      0.00
   -9    1   16      0.85      0.00
   -8    1   16      0.06      0.00
   -7    1   16     -0.26      0.00
   -6    1   16      0.08      0.00
   -5    1   16     -0.06      0.00
   -4    1   16      0.63      0.00
   -3    1   16      1.42      0.00
   -2    1   16      0.04      0.00
   -1    1   16     -1.45      0.00
  -14    2   16      0.03      0.00
  -13    2   16     -0.53      0.00
  -12    2   16     -0.17      0.00
  -11    2   16      0.95      0.00
  -10    2   16      0.18      0.00
   -9    2   16     -1.31      0.00
   -8    2   16     -1.39      0.00
   -7    2   16     -0.44      0.00
   -6    2   16     -0.30      0.00
   -5    2   16     -0.32      0.00
   -4    2   16     -0.53      0.00
   -3    2   16     -1.26      0.00
   -2    2   16     -0.44      0.00
  -13    3   16      1.83      0.00
  -12    3   16      1.83      0.00
  -11    3   16      0.74      0.00
  -10    3   16      1.55      0.00
   -9    3   16      3.02      0.00
   -8    3   16      2.25      0.00
   -7    3   16      0.28      0.00
   -6    3   16     -0.13      0.00
   -5    3   16      0.08      0.00
   -4    3   16      1.15      0.00
   -3    3   16      3.05      0.00
  -13    4   16     -0.19      0.00
  -12    4   16      0.30      0.00
  -11    4   16      0.47      0.00
  -10    4   16     -0.47      0.00
   -9    4   16     -1.31      0.00
   -8    4   16     -1.11      0.00
   -7    4   16      0.01      0.00
   -6    4   16      0.67      0.00
   -5    4   16      0.69      0.00
  -12    5   16     -1.35      0.00
  -11    5   16     -1.67      0.00
  -10    5   16     -1.90      0.00
   -9    5   16     -1.13      0.00
   -8    5   16      0.21      0.00
   -7    5   16      0.05      0.00
   -6  -10   17      0.75      0.00
   -5  -10   17      0.71      0.00
   -4  -10   17      0.55      0.00
   -3  -10   17     -0.08      0.00
   -8   -9   17      1.53      0.00
   -7   -9   17      0.79      0.00
   -6   -9   17      0.61      0.00
   -5   -9   17      0.31      0.00
   -4   -9   17     -0.59      0.00
   -3   -9   17      0.19      0.00
   -2   -9   17      0.88      0.00
   -1   -9   17      0.42      0.00
   -9   -8   17     -1.35      0.00
   -8   -8   17     -2.25      0.00
   -7   -8   17     -1.83      0.00
   -6   -8   17     -1.86      0.00
   -5   -8   17     -2.13      0.00
   -4   -8   17     -2.26      0.00
   -3   -8   17     -3.22      0.00
   -2   -8   17     -3.42      0.00
   -1   -8   17     -2.08      0.00
  -10   -7   17      0.71      0.00
   -9   -7   17      0.99      0.00
   -8   -7   17      1.28      0.00
   -7   -7   17      0.63      0.00
   -6   -7   17      0.79      0.00
   -5   -7   17      2.05      0.00
   -4   -7   17      2.43      0.00
   -3   -7   17      2.13      0.00
   -2   -7   17      2.13      0.00
   -1   -7   17      1.84      0.00
  -11   -6   17     -3.17      0.00
  -10   -6   17     -1.62      0.00
   -9   -6   17     -0.32      0.00
   -8   -6   17     -0.70      0.00
   -7   -6   17     -0.26      0.00
   -6   -6   17      0.06      0.00
   -5   -6   17     -0.43      0.00
   -4   -6   17     -0.42      0.00
   -3   -6   17     -0.05      0.00
   -2   -6   17     -0.93      0.00
   -1   -6   17     -1.86      0.00
  -11   -5   17      2.44      0.00
  -10   -5   17      1.19      0.00
   -9   -5   17      0.26      0.00
   -8   -5   17      0.98      0.00
   -7   -5   17      0.49      0.00
   -6   -5   17     -0.89      0.00
   -5   -5   17     -0.98      0.00
   -4   -5   17     -0.07      0.00
   -3   -5   17      0.13      0.00
   -2   -5   17      0.91      0.00
   -1   -5   17      1.85      0.00
  -12   -4   17     -0.42      0.00
  -11   -4   17     -1.85      0.00
  -10   -4   17     -1.86      0.00
   -9   -4   17     -0.36      0.00
   -8   -4   17     -0.39      0.00
   -7   -4   17     -0.18      0.00
   -6   -4   17      1.01      0.00
   -5   -4   17      1.13      0.00
   -4   -4   17     -0.06      0.00
   -3   -4   17     -0.08      0.00
   -2   -4   17     -0.19      0.00
   -1   -4   17     -0.89      0.00
  -12   -3   17     -0.30      0.00
  -11   -3   17      1.41      0.00
  -10   -3   17      1.12      0.00
   -9   -3   17     -1.16      0.00
   -8   -3   17     -1.30      0.00
   -7   -3   17     -0.59      0.00
   -6   -3   17     -1.15      0.00
   -5   -3   17     -1.42      0.00
   -4   -3   17     -0.01      0.00
   -3   -3   17      0.64      0.00
   -2   -3   17      0.96      0.00
   -1   -3   17      1.27      0.00
  -12   -2   17      0.68      0.00
  -11   -2   17     -0.14      0.00
  -10   -2   17     -0.62      0.00
   -9   -2   17      0.57      0.00
   -8   -2   17      0.80      0.00
   -7   -2   17      0.22      0.00
   -6   -2   17      0.59      0.00
   -5   -2   17      1.03      0.00
   -4   -2   17     -0.38      0.00
   -3   -2   17     -1.83      0.00
   -2   -2   17     -2.25      0.00
  -12   -1   17     -1.70      0.00
  -11   -1   17     -0.56      0.00
  -10   -1   17      1.62      0.00
   -9   -1   17      1.51      0.00
   -8   -1   17      0.94      0.00
   -7   -1   17      1.61      0.00
   -6   -1   17      1.84      0.00
   -5   -1   17      0.93      0.00
   -4   -1   17      1.22      0.00
   -3   -1   17      1.87      0.00
   -2   -1   17      1.41      0.00
  -12    0   17      1.65      0.00
  -11    0   17      0.64      0.00
  -10    0   17     -1.10      0.00
   -9    0   17     -1.11      0.00
   -8    0   17     -0.74      0.00
   -7    0   17     -1.66      0.00
   -6    0   17     -2.23      0.00
   -5    0   17     -0.93      0.00
   -4    0   17      0.24      0.00
   -3    0   17      0.57      0.00
  -12    1   17      0.50      0.00
  -11    1   17      0.01      0.00
  -10    1   17      0.62      0.00
   -9    1   17      0.87      0.00
   -8    1   17      0.13      0.00
   -7    1   17      0.01      0.00
   -6    1   17      0.47      0.00
   -5    1   17     -0.60      0.00
   -4    1   17     -1.48      0.00
  -12    2   17     -0.92      0.00
  -11    2   17     -0.26      0.00
  -10    2   17     -1.07      0.00
   -9    2   17     -1.50      0.00
   -8    2   17     -0.38      0.00
   -7    2   17      0.32      0.00
   -6    2   17      0.12      0.00
   -5    2   17      0.75      0.00
  -11    3   17     -0.61      0.00
  -10    3   17     -0.47      0.00
   -9    3   17      0.18      0.00
   -8    3   17      0.46      0.00
   -7    3   17      0.32      0.00
   -8   -7   18      1.10      0.00
   -7   -7   18      0.59      0.00
   -6   -7   18     -0.04      0.00
   -5   -7   18     -1.12      0.00
   -4   -7   18     -2.21      0.00
   -9   -6   18      0.07      0.00
   -8   -6   18     -0.28      0.00
   -7   -6   18      0.77      0.00
   -6   -6   18      2.37      0.00
   -5   -6   18      3.09      0.00
   -4   -6   18      2.71      0.00
   -9   -5   18     -1.35      0.00
   -8   -5   18     -1.59      0.00
   -7   -5   18     -2.30      0.00
   -6   -5   18     -3.30      0.00
   -5   -5   18     -3.37      0.00
   -4   -5   18     -2.57      0.00
  -10   -4   18      0.18      0.00
   -9   -4   18      2.05      0.00
   -8   -4   18      2.03      0.00
   -7   -4   18      1.71      0.00
   -6   -4   18      2.16      0.00
   -5   -4   18      2.20      0.00
   -4   -4   18      1.07      0.00
  -10   -3   18      0.90      0.00
   -9   -3   18     -0.41      0.00
   -8   -3   18     -0.45      0.00
   -7   -3   18      0.30      0.00
   -6   -3   18      0.27      0.00
   -5   -3   18     -0.04      0.00
   -4   -3   18      0.47      0.00
  -10   -2   18     -1.63      0.00
   -9   -2   18     -0.20      0.00
   -8   -2   18     -0.06      0.00
   -7   -2   18     -1.71      0.00
   -6   -2   18     -2.53      0.00
   -5   -2   18     -1.66      0.00
  -10   -1   18     -0.06      0.00
   -9   -1   18     -1.38      0.00
   -8   -1   18     -1.47      0.00
   -7   -1   18      0.29      0.00
   -6   -1   18      1.50      0.00
   -5   -1   18      0.72      0.00
  -10    0   18      0.99      0.00
   -8    0   18      2.45      0.00
   -7    0   18      1.74      0.00
   -6    0   18      0.44      0.00
    1    0    0    135.52      0.00
   -1    1    0    -73.48      0.00
    0    1    0    -93.12      0.00
    1    1    0    -64.94      0.00
   14    1    0     -1.51      0.00
   10    8    0      1.33      0.00
    5   13    0     -0.69      0.00
    2   15    0     -0.02      0.00
    0   16    0      0.04      0.00
   -9   17    0      0.17      0.00
   -3   17    0     -0.46      0.00
    2  -17    1      0.24      0.00
   14  -13    1      1.57      0.00
  -12   -6    1     -1.45      0.00
   -2   -3    1      2.07      0.00
   15   -3    1     -0.24      0.00
   -1   -1    1    -42.65      0.00
    0   -1    1    -55.63      0.00
    1   -1    1    -29.69      0.00
  -15    0    1      0.40      0.00
   -1    0    1    -36.24      0.00
    0    0    1    -14.69      0.00
   14    0    1      0.03      0.00
   -1    1    1     43.50      0.00
    0    1    1     -2.92      0.00
  -16    4    1     -1.28      0.00
   11    6    1     -0.41      0.00
  -16    9    1     -0.43      0.00
    2    9    1      3.27      0.00
    3   14    1     -0.77      0.00
  -13   15    1     -0.79      0.00
   -1   16    1      0.10      0.00
   -9   17    1     -1.18      0.00
   -5   17    1     -1.04      0.00
    1  -17    2      0.04      0.00
    9  -17    2     -1.00      0.00
   11  -16    2     -1.46      0.00
   11  -14    2     -3.12      0.00
   13  -14    2     -1.36      0.00
  -11   -8    2      0.92      0.00
   15   -8    2      0.55      0.00
   15   -7    2     -0.40      0.00
   15   -6    2      0.10      0.00
   12   -5    2     -0.95      0.00
  -15   -1    2     -0.05      0.00
   -1   -1    2     19.96      0.00
   -1    0    2     35.90      0.00
  -16    2    2      0.31      0.00
    8    9    2      1.32      0.00
  -16   10    2      0.98      0.00
    6   11    2      0.05      0.00
  -14   14    2     -0.03      0.00
  -13   15    2      0.54      0.00
   -2   16    2      1.24      0.00
    9  -17    3      0.18      0.00
   -2  -16    3      0.63      0.00
   14  -11    3     -1.44      0.00
  -14   -4    3     -1.22      0.00
   -4   -3    3      6.33      0.00
    0   -3    3     10.64      0.00
   14   -3    3     -0.32      0.00
  -15   -2    3     -0.84      0.00
   13    0    3      0.01      0.00
  -16    1    3     -1.20      0.00
    9    7    3     -0.38      0.00
  -16   11    3     -0.23      0.00
  -14   14    3      0.35      0.00
  -11   16    3     -1.73      0.00
    0  -17    4      0.97      0.00
   -7  -13    4      1.11      0.00
  -11   -9    4     -1.24      0.00
   -3   -8    4      6.95      0.00
   14   -8    4      0.10      0.00
   14   -7    4     -0.35      0.00
  -16    0    4      0.48      0.00
   12    1    4     -0.50      0.00
   11    3    4      0.63      0.00
  -17    5    4     -0.25      0.00
  -17    6    4      1.21      0.00
  -17    7    4     -1.82      0.00
  -16   11    4     -0.52      0.00
  -14   14    4      0.36      0.00
   -2   15    4      0.22      0.00
  -10   16    4      2.35      0.00
   -5   16    4     -0.22      0.00
    0  -17    5     -0.13      0.00
    8  -17    5     -2.12      0.00
   -4  -15    5      1.66      0.00
   -6  -14    5     -0.40      0.00
   13  -11    5     -0.31      0.00
  -14   -5    5     -1.31      0.00
   13   -4    5     -0.02      0.00
  -16   -1    5     -0.55      0.00
  -17    3    5     -0.99      0.00
    9    5    5      1.96      0.00
  -17    8    5      2.04      0.00
  -16   11    5     -1.34      0.00
   -1   14    5     -0.27      0.00
  -12   15    5     -1.42      0.00
    7  -17    6     -0.56      0.00
   -3  -16    6     -0.51      0.00
    9  -16    6      1.32      0.00
   11  -14    6     -1.02      0.00
   12  -12    6     -0.27      0.00
  -13   -7    6      0.06      0.00
   11    0    6      0.09      0.00
  -17    2    6      1.58      0.00
    9    4    6     -2.52      0.00
  -17    8    6      0.12      0.00
    5    9    6      2.16      0.00
  -16   11    6      0.52      0.00
  -13   14    6     -0.66      0.00
  -11   15    6     -1.28      0.00
    6  -17    7      1.62      0.00
   -3  -16    7      0.28      0.00
   -5  -15    7      1.48      0.00
   -9  -12    7     -1.01      0.00
  -10  -11    7      0.38      0.00
  -11  -10    7      0.45      0.00
   12   -9    7      1.08      0.00
   12   -8    7     -0.73      0.00
   12   -7    7      0.09      0.00
  -14   -6    7      0.60      0.00
   12   -6    7     -0.38      0.00
  -15   -4    7      2.07      0.00
  -16   -2    7     -0.49      0.00
   11   -2    7     -0.95      0.00
  -17    8    7     -0.58      0.00
    5    8    7     -0.87      0.00
    4    9    7     -1.15      0.00
  -15   12    7      0.24      0.00
  -14   13    7      0.08      0.00
   -4   14    7     -2.06      0.00
    0  -17    8     -0.56      0.00
    5  -17    8     -0.67      0.00
   -3  -16    8      0.55      0.00
   -5  -15    8     -1.26      0.00
   -8  -13    8     -0.85      0.00
   10  -13    8     -1.22      0.00
  -11  -10    8      1.24      0.00
   11  -10    8      0.26      0.00
  -12   -9    8      1.36      0.00
  -14   -6    8      0.67      0.00
   11   -5    8      0.00      0.00
  -16   -2    8     -0.63      0.00
  -17    1    8     -0.20      0.00
    9    1    8      0.29      0.00
    5    7    8      1.43      0.00
  -17    8    8     -0.45      0.00
    4    8    8      0.14      0.00
    3    9    8      1.22      0.00
    0   11    8      0.38      0.00
  -11   14    8      1.47      0.00
   -7   14    8     -0.65      0.00
    1  -17    9     -0.49      0.00
    2  -17    9      0.48      0.00
    3  -17    9      0.14      0.00
   -3  -16    9      1.89      0.00
   -5  -15    9      0.84      0.00
   -8  -13    9      2.35      0.00
   10  -11    9     -0.30      0.00
   -7   -5    9     -4.49      0.00
   10   -4    9     -0.11      0.00
    9   -1    9      0.22      0.00
  -17    1    9     -3.10      0.00
    7    3    9      2.57      0.00
   -5    5    9     -3.60      0.00
  -17    7    9     -0.24      0.00
  -15   11    9      0.55      0.00
   -1   11    9     -1.14      0.00
  -14   12    9     -0.08      0.00
   -3   12    9      0.12      0.00
  -12   13    9      1.34      0.00
    5  -16   10      1.27      0.00
   -8  -13   10     -0.11      0.00
  -16   -2   10     -0.49      0.00
  -17    1   10      0.67      0.00
    6    3   10     -2.01      0.00
  -17    6   10     -2.17      0.00
  -16    9   10      0.84      0.00
   -1   10   10      1.38      0.00
  -13   12   10     -1.02      0.00
   -5   12   10      1.50      0.00
   -1  -16   11     -0.72      0.00
    3  -16   11     -0.53      0.00
    5  -15   11     -0.74      0.00
  -12   -9   11      2.15      0.00
  -16   -2   11     -0.52      0.00
  -17    2   11     -0.39      0.00
  -17    3   11      1.60      0.00
    5    3   11      0.33      0.00
  -17    4   11     -1.59      0.00
  -17    5   11      0.67      0.00
  -16    8   11     -0.51      0.00
   -1    9   11     -1.34      0.00
  -13   11   11      1.04      0.00
  -10   12   11     -0.28      0.00
   -9   12   11     -0.50      0.00
   -6  -14   12     -0.87      0.00
    5  -14   12      1.34      0.00
    6  -13   12     -2.13      0.00
  -10  -11   12      1.15      0.00
    7  -11   12     -1.70      0.00
  -11  -10   12      0.89      0.00
  -14   -6   12     -0.26      0.00
  -15   -4   12     -0.44      0.00
    6   -1   12      0.27      0.00
    5    1   12      0.01      0.00
    3    4   12     -0.49      0.00
  -16    7   12     -0.12      0.00
    0    7   12     -0.41      0.00
  -10   11   12     -0.24      0.00
   -9   11   12      0.30      0.00
   -8   11   12      0.03      0.00
   -2  -15   13     -1.08      0.00
   -1  -15   13     -0.16      0.00
    0  -15   13     -0.04      0.00
    1  -15   13     -1.12      0.00
   -5  -14   13     -0.71      0.00
   -7  -13   13      1.35      0.00
    6   -4   13     -1.51      0.00
  -16   -1   13      1.53      0.00
    5   -1   13     -1.07      0.00
  -16    5   13     -0.68      0.00
   -3    8   13      0.32      0.00
  -13    9   13      0.21      0.00
   -5    9   13      0.12      0.00
  -10   10   13     -0.78      0.00
   -9   10   13     -0.59      0.00
   -3  -14   14     -0.05      0.00
    1  -14   14     -1.07      0.00
   -6  -13   14     -0.61      0.00
    3  -13   14      0.26      0.00
   -9  -11   14     -0.41      0.00
    5   -9   14     -2.01      0.00
  -12   -8   14     -0.20      0.00
  -14   -5   14      0.08      0.00
    5   -5   14     -0.13      0.00
  -15   -3   14     -0.16      0.00
    4   -2   14      2.08      0.00
    3    0   14     -0.89      0.00
    1    3   14      0.38      0.00
    0    4   14      1.06      0.00
   -1    5   14     -0.85      0.00
   -2    6   14     -0.73      0.00
  -14    7   14      0.31      0.00
  -13    8   14      0.64      0.00
   -4  -13   15     -0.02      0.00
    0  -13   15      0.49      0.00
   -7  -12   15      0.41      0.00
    2  -12   15      1.38      0.00
  -13   -6   15     -0.93      0.00
  -14   -4   15     -0.61      0.00
    3   -3   15     -1.47      0.00
  -15   -1   15      0.55      0.00
    1    1   15      0.55      0.00
  -15    3   15      0.90      0.00
   -3    5   15      0.79      0.00
  -12    7   15     -0.70      0.00
   -7    7   15      1.25      0.00
   -5  -12   16     -0.08      0.00
   -4  -12   16     -1.00      0.00
   -2  -12   16      0.80      0.00
   -1  -12   16      1.02      0.00
   -7  -11   16      0.04      0.00
    2   -8   16     -1.17      0.00
    2   -6   16     -0.39      0.00
    2   -5   16     -0.17      0.00
  -14   -2   16      1.49      0.00
    1   -2   16     -0.23      0.00
    0    0   16      0.73      0.00
  -14    3   16      0.81      0.00
   -4    4   16     -0.35      0.00
   -6    5   16     -0.25      0.00
  -10    6   16      1.10      0.00
   -9    6   16      0.67      0.00
   -2  -10   17      0.19      0.00
    0   -8   17     -0.51      0.00
    0   -7   17      0.59      0.00
    0   -6   17     -0.92      0.00
  -12   -5   17      1.96      0.00
    0   -5   17      1.16      0.00
    0   -4   17     -0.57      0.00
  -13   -2   17      0.54      0.00
   -1   -2   17     -1.65      0.00
  -13   -1   17     -0.88      0.00
  -13    0   17      1.58      0.00
  -13    1   17      0.34      0.00
   -3    1   17     -0.66      0.00
   -4    2   17      0.60      0.00
  -12    3   17      0.02      0.00
   -6    3   17      0.38      0.00
  -10    4   17      1.75      0.00
   -9    4   17      0.75      0.00
   -8    4   17     -0.13      0.00
   -7   -8   18     -0.05      0.00
   -6   -8   18     -0.31      0.00
   -5   -8   18     -0.44      0.00
   -4   -8   18      0.63      0.00
   -3   -7   18     -2.03      0.00
   -3   -6   18      2.17      0.00
  -10   -5   18      0.12      0.00
   -3   -5   18     -2.29      0.00
   -3   -4   18      0.64      0.00
  -11   -3   18      0.85      0.00
   -3   -3   18      0.23      0.00
  -11   -2   18     -1.10      0.00
   -4   -2   18     -0.84      0.00
  -11   -1   18      0.25      0.00
   -4   -1   18     -0.09      0.00
  -11    0   18      0.87      0.00
   -9    0   18      1.65      0.00
   -5    0   18      0.37      0.00
  -10    1   18     -0.50      0.00
   -9    1   18     -0.63      0.00
   -8    1   18     -1.56      0.00
   -7    1   18     -1.39      0.00
    0    0    0      0.00      0.00
# SQUEEZE RESULTS (Version = 120716)
# Note: Data are Listed for all Voids in the P1 Unit Cell
# i.e. Centre of Gravity, Solvent Accessible Volume,
# Recovered number of Electrons in the Void and
# Details about the Squeezed Material
loop_
  _platon_squeeze_void_nr
  _platon_squeeze_void_average_x
  _platon_squeeze_void_average_y
  _platon_squeeze_void_average_z
  _platon_squeeze_void_volume
  _platon_squeeze_void_count_electrons
  _platon_squeeze_void_content
   1  0.000  0.500  0.603       542       165 ' '
# Missing Reflections Below sin(th)/lambda = 0.25
loop_
  _platon_missing_refln_index_h
  _platon_missing_refln_index_k
  _platon_missing_refln_index_l
  _platon_missing_refln_theta
    1    0    0     1.759
   -1    1    0     1.854
    0    1    0     1.603
    1    1    0     2.810
   -2   -3    1     6.360
   -1   -1    1     2.414
    0   -1    1     1.817
    1   -1    1     2.639
   -1    0    1     1.698
    0    0    1     1.607
   -1    1    1     2.253
    0    1    1     2.646
   -1   -1    2     2.989
   -1    0    2     2.799
   -4   -3    3     8.540
    0   -3    3     5.457
_platon_squeeze_void_probe_radius                  1.20
_platon_squeeze_details
)
TITL 1060210hgiP -1         R = 0.07
CELL   13.8172   14.1312   14.8978    101.86    114.26    105.52
SPGR P-1
# Solvent Accessible Volume =       543
# Electrons Found in S.A.V. =       165
# Note: Atoms in Void as Cxxx and Qxxx all others
C101 0.966 0.659 0.037 !       6.07 eA-3
C102 0.973 0.774 0.451 !       5.30 eA-3
C103 0.872 0.553 0.029 !       5.24 eA-3
C104 0.930 0.551 0.110 !       5.12 eA-3
Q105 0.264 0.397 0.000 !       4.82 eA-3
C106 0.951 0.467 0.156 !       4.59 eA-3
C107 0.065 0.564 0.437 !       4.50 eA-3
C108 0.981 0.598 0.063 !       4.34 eA-3
C109 0.027 0.738 0.438 !       4.32 eA-3
Q110 0.189 0.408 0.021 !       4.05 eA-3
C111 0.847 0.542 0.128 !       3.97 eA-3
Q112 0.968 0.880 0.430 !       3.65 eA-3
Q113 0.155 0.396 0.094 !       3.55 eA-3
Q114 1.000 0.799 0.105 !       3.44 eA-3
C115 0.141 0.801 0.419 !       3.36 eA-3
Q116 0.028 0.844 0.202 !       2.46 eA-3
C117 0.125 0.723 0.436 !       2.10 eA-3
Q118 0.043 0.223 0.264 !       1.39 eA-3
Q119 0.715 0.938 0.299 !       1.31 eA-3
Q120 0.548 0.647 0.407 !       1.31 eA-3
Q121 0.877 0.922 0.156 !       0.87 eA-3
C122 0.928 0.637 0.168 !       0.87 eA-3
C123 0.049 0.519 0.021 !       0.84 eA-3
C124 0.783 0.486 0.115 !       0.79 eA-3
Q125 0.111 0.418 0.029 !       0.73 eA-3
C126 0.904 0.746 0.464 !       0.72 eA-3
C127 0.936 0.586 0.204 !       0.71 eA-3
C128 1.000 0.500 0.500 !       0.69 eA-3
Q129 0.076 0.332 0.040 !       0.68 eA-3
Q130 0.983 0.965 0.135 !       0.67 eA-3
Q131 0.591 0.957 0.310 !       0.67 eA-3
Q132 0.046 0.296 0.347 !       0.66 eA-3
C133 0.952 0.477 0.250 !       0.66 eA-3
Q134 0.826 0.612 0.059 !       0.65 eA-3
Q135 0.234 0.381 0.155 !       0.65 eA-3
Q136 0.237 0.970 0.110 !       0.65 eA-3
C137 0.997 0.562 0.196 !       0.63 eA-3
Q138 0.155 0.451 0.063 !       0.63 eA-3
C139 0.016 0.513 0.265 !       0.62 eA-3
Q140 0.888 0.942 0.401 !       0.62 eA-3
Q141 0.324 0.530 0.396 !       0.60 eA-3
Q142 0.137 0.216 0.408 !       0.59 eA-3
Q143 0.766 0.439 0.049 !       0.58 eA-3
Q144 0.883 0.471 0.248 !       0.58 eA-3
Q145 0.126 0.455 0.117 !       0.57 eA-3
Q146 0.529 0.987 0.238 !       0.56 eA-3
Q147 0.887 0.387 0.222 !       0.55 eA-3
Q148 0.736 0.090 0.326 !       0.55 eA-3
Q149 0.655 0.454 0.283 !       0.53 eA-3
Q150 0.737 0.021 0.354 !       0.53 eA-3
Q151 0.018 0.285 0.059 !       0.53 eA-3
Q152 0.169 0.158 0.438 !       0.53 eA-3
Q153 0.356 0.627 0.481 !       0.53 eA-3
Q154 0.328 0.473 0.328 !       0.53 eA-3
Q155 0.878 0.672 0.408 !       0.53 eA-3
Q156 0.067 0.352 0.101 !       0.52 eA-3
Q157 0.082 0.317 0.155 !       0.52 eA-3
Q158 0.957 0.936 0.069 !       0.52 eA-3
Q159 0.472 0.595 0.408 !       0.52 eA-3
Q160 0.156 0.251 0.362 !       0.52 eA-3
Q161 0.846 0.535 0.478 !       0.52 eA-3
Q162 0.939 0.021 0.485 !       0.52 eA-3
Q163 0.901 0.675 0.122 !       0.52 eA-3
Q164 0.060 0.872 0.453 !       0.51 eA-3
Q165 0.193 0.710 0.184 !       0.51 eA-3
Q166 0.856 0.483 0.421 !       0.51 eA-3
Q167 0.224 0.347 0.400 !       0.51 eA-3
Q168 0.146 0.610 0.017 !       0.51 eA-3
Q169 0.190 0.538 0.120 !       0.51 eA-3
Q170 0.803 0.654 0.081 !       0.51 eA-3
Q171 0.140 0.323 0.151 !       0.51 eA-3
Q172 0.338 0.393 0.475 !       0.50 eA-3
Q173 0.642 0.797 0.372 !       0.50 eA-3
Q174 0.326 0.098 0.129 !       0.50 eA-3
C175 0.048 0.459 0.494 !       0.50 eA-3
)
;
_shelx_fab_checksum              29275
loop_
_space_group_symop_operation_xyz
'x, y, z'
'-x, -y, -z'
loop_
_atom_site_label
_atom_site_type_symbol
_atom_site_fract_x
_atom_site_fract_y
_atom_site_fract_z
_atom_site_U_iso_or_equiv
_atom_site_adp_type
_atom_site_occupancy
_atom_site_site_symmetry_order
_atom_site_calc_flag
_atom_site_refinement_flags_posn
_atom_site_refinement_flags_adp
_atom_site_refinement_flags_occupancy
_atom_site_disorder_assembly
_atom_site_disorder_group
Hg Hg 0.23717(2) 0.31046(2) 0.43289(2) 0.01947(7) Uani 1 1 d . . . . .
I I 0.02530(3) 0.26691(4) 0.28248(3) 0.04819(13) Uani 1 1 d . . . . .
O1 O 0.0720(5) 0.1099(5) -0.1141(4) 0.0716(17) Uani 1 1 d . . . . .
O2 O 0.2436(5) 0.2528(5) -0.0213(5) 0.0655(15) Uani 1 1 d . . . . .
N1 N 0.3205(3) 0.1856(3) 0.4277(3) 0.0184(8) Uani 1 1 d . . . . .
N2 N 0.3302(3) 0.3346(3) 0.6041(3) 0.0178(8) Uani 1 1 d . . . . .
N3 N 0.3399(3) 0.4958(3) 0.5042(3) 0.0172(8) Uani 1 1 d . . . . .
N4 N 0.2301(4) 0.2707(3) 0.1616(3) 0.0275(9) Uani 1 1 d . U . . .
C1 C 0.3249(4) 0.1303(4) 0.3429(4) 0.0210(10) Uani 1 1 d . . . . .
C2 C 0.3469(4) 0.0390(4) 0.3597(4) 0.0235(10) Uani 1 1 d . . . . .
H2A H 0.3559 -0.0114 0.3141 0.028 Uiso 1 1 calc R U . . .
C3 C 0.3523(4) 0.0389(4) 0.4522(4) 0.0227(10) Uani 1 1 d . . . . .
H3A H 0.3652 -0.0118 0.4837 0.027 Uiso 1 1 calc R U . . .
C4 C 0.3346(4) 0.1310(4) 0.4944(4) 0.0188(9) Uani 1 1 d . . . . .
C5 C 0.3305(4) 0.1582(4) 0.5899(4) 0.0172(9) Uani 1 1 d . . . . .
C6 C 0.3289(4) 0.2523(4) 0.6394(4) 0.0181(9) Uani 1 1 d . . . . .
C7 C 0.3366(4) 0.2826(4) 0.7419(4) 0.0215(10) Uani 1 1 d . . . . .
H7A H 0.3361 0.2398 0.7834 0.026 Uiso 1 1 calc R U . . .
C8 C 0.3446(4) 0.3823(4) 0.7674(4) 0.0225(10) Uani 1 1 d . . . . .
H8A H 0.3511 0.4231 0.8305 0.027 Uiso 1 1 calc R U . . .
C9 C 0.3413(4) 0.4167(4) 0.6808(4) 0.0188(9) Uani 1 1 d . . . . .
C10 C 0.3541(4) 0.5169(4) 0.6791(4) 0.0193(9) Uani 1 1 d . . . . .
C11 C 0.3582(4) 0.5550(4) 0.5980(3) 0.0169(9) Uani 1 1 d . . . . .
C12 C 0.3871(4) 0.6648(4) 0.6067(4) 0.0202(9) Uani 1 1 d . . . . .
H12A H 0.4049 0.7222 0.6651 0.024 Uiso 1 1 calc R U . . .
C13 C 0.3836(4) 0.6693(4) 0.5159(4) 0.0212(10) Uani 1 1 d . . . . .
H13A H 0.3986 0.7306 0.4985 0.025 Uiso 1 1 calc R U . . .
C14 C 0.3527(4) 0.5635(4) 0.4498(4) 0.0183(9) Uani 1 1 d . . . . .
C15 C 0.3352(4) 0.5312(4) 0.3476(4) 0.0176(9) Uani 1 1 d . . . . .
C16 C 0.3169(4) 0.4258(4) 0.2936(4) 0.0169(9) Uani 1 1 d . . . . .
C17 C 0.3580(4) 0.3554(4) 0.3343(4) 0.0167(9) Uani 1 1 d . . . . .
H17A H 0.418(4) 0.376(4) 0.402(4) 0.008(11) Uiso 1 1 d . . . . .
C18 C 0.3033(4) 0.2570(4) 0.2523(4) 0.0199(9) Uani 1 1 d . . . . .
C19 C 0.2386(4) 0.3694(3) 0.1852(3) 0.0158(9) Uani 1 1 d . . . . .
H19A H 0.1983 0.3977 0.1365 0.019 Uiso 1 1 calc R U . . .
C20 C 0.3080(4) 0.1571(4) 0.2546(4) 0.0205(9) Uani 1 1 d . . . . .
C21 C 0.3349(4) 0.0802(4) 0.6449(4) 0.0214(10) Uani 1 1 d . . . . .
C22 C 0.4362(6) 0.0647(5) 0.6949(5) 0.0393(14) Uani 1 1 d . . . . .
H22A H 0.5024 0.1017 0.6918 0.047 Uiso 1 1 calc R U . . .
C23 C 0.4414(7) -0.0045(6) 0.7491(6) 0.0531(19) Uani 1 1 d . . . . .
H23A H 0.5121 -0.0119 0.7856 0.064 Uiso 1 1 calc R U . . .
C24 C 0.3462(7) -0.0616(5) 0.7505(6) 0.0506(19) Uani 1 1 d . . . . .
H24A H 0.3497 -0.1107 0.7855 0.061 Uiso 1 1 calc R U . . .
C25 C 0.2439(7) -0.0482(6) 0.7008(7) 0.0563(19) Uani 1 1 d . . . . .
H25A H 0.1779 -0.0869 0.7033 0.068 Uiso 1 1 calc R U . . .
C26 C 0.2376(6) 0.0222(5) 0.6470(6) 0.0417(15) Uani 1 1 d . . . . .
H26A H 0.1670 0.0303 0.6119 0.050 Uiso 1 1 calc R U . . .
C27 C 0.3700(4) 0.5959(4) 0.7737(4) 0.0194(9) Uani 1 1 d . . . . .
C28 C 0.4676(5) 0.6308(4) 0.8714(4) 0.0277(11) Uani 1 1 d . . . . .
H28A H 0.5261 0.6048 0.8791 0.033 Uiso 1 1 calc R U . . .
C29 C 0.4806(6) 0.7038(5) 0.9588(4) 0.0389(14) Uani 1 1 d . . . . .
H29A H 0.5473 0.7265 1.0258 0.047 Uiso 1 1 calc R U . . .
C30 C 0.3972(6) 0.7430(4) 0.9481(5) 0.0372(14) Uani 1 1 d . . . . .
H30A H 0.4069 0.7936 1.0075 0.045 Uiso 1 1 calc R U . . .
C31 C 0.2997(6) 0.7091(4) 0.8518(5) 0.0352(13) Uani 1 1 d . . . . .
H31A H 0.2417 0.7355 0.8451 0.042 Uiso 1 1 calc R U . . .
C32 C 0.2857(5) 0.6367(4) 0.7644(4) 0.0280(11) Uani 1 1 d . . . . .
H32A H 0.2186 0.6145 0.6978 0.034 Uiso 1 1 calc R U . . .
C33 C 0.3262(4) 0.6019(4) 0.2874(4) 0.0208(10) Uani 1 1 d . . . . .
C34 C 0.2632(5) 0.6642(4) 0.2863(4) 0.0297(11) Uani 1 1 d . . . . .
H34A H 0.2284 0.6656 0.3296 0.036 Uiso 1 1 calc R U . . .
C35 C 0.2507(6) 0.7247(5) 0.2218(6) 0.0445(16) Uani 1 1 d . . . . .
H35A H 0.2078 0.7671 0.2220 0.053 Uiso 1 1 calc R U . . .
C36 C 0.3000(6) 0.7233(5) 0.1583(6) 0.0457(16) Uani 1 1 d . . . . .
H36A H 0.2906 0.7641 0.1144 0.055 Uiso 1 1 calc R U . . .
C37 C 0.3633(6) 0.6623(5) 0.1585(5) 0.0409(14) Uani 1 1 d . . . . .
H37A H 0.3975 0.6613 0.1146 0.049 Uiso 1 1 calc R U . . .
C38 C 0.3772(5) 0.6024(4) 0.2224(4) 0.0259(10) Uani 1 1 d . . . . .
H38A H 0.4215 0.5613 0.2224 0.031 Uiso 1 1 calc R U . . .
C39 C 0.2921(4) 0.0817(4) 0.1595(4) 0.0215(10) Uani 1 1 d . . . . .
C40 C 0.3526(5) 0.1158(4) 0.1085(4) 0.0243(10) Uani 1 1 d . . . . .
H40A H 0.4053 0.1870 0.1365 0.029 Uiso 1 1 calc R U . . .
C41 C 0.3367(5) 0.0474(4) 0.0183(4) 0.0303(12) Uani 1 1 d . . . . .
H41A H 0.3790 0.0710 -0.0150 0.036 Uiso 1 1 calc R U . . .
C42 C 0.2576(5) -0.0574(4) -0.0240(4) 0.0341(13) Uani 1 1 d . . . . .
H42A H 0.2459 -0.1046 -0.0866 0.041 Uiso 1 1 calc R U . . .
C43 C 0.1970(5) -0.0921(4) 0.0245(4) 0.0315(12) Uani 1 1 d . . . . .
H43A H 0.1435 -0.1632 -0.0045 0.038 Uiso 1 1 calc R U . . .
C44 C 0.2137(5) -0.0234(4) 0.1162(4) 0.0266(11) Uani 1 1 d . . . . .
H44A H 0.1718 -0.0478 0.1497 0.032 Uiso 1 1 calc R U . . .
C45 C 0.1336(6) 0.1918(6) 0.0632(5) 0.0498(16) Uani 1 1 d . U . . .
H45A H 0.0637 0.2070 0.0480 0.060 Uiso 1 1 calc R U . . .
H45B H 0.1181 0.1218 0.0700 0.060 Uiso 1 1 calc R U . . .
C46 C 0.1577(6) 0.1898(6) -0.0262(6) 0.0509(17) Uani 1 1 d . . . . .
C47 C 0.0819(11) 0.0989(8) -0.2084(8) 0.054(3) Uani 0.729(12) 1 d . . P A 1
H47A H 0.1467 0.0777 -0.2013 0.065 Uiso 0.729(12) 1 calc R U P A 1
H47B H 0.0968 0.1667 -0.2200 0.065 Uiso 0.729(12) 1 calc R U P A 1
C48 C -0.0285(10) 0.0172(10) -0.2983(9) 0.058(3) Uani 0.729(12) 1 d . . P A 1
H48A H -0.0244 0.0080 -0.3635 0.087 Uiso 0.729(12) 1 calc R U P A 1
H48B H -0.0422 -0.0495 -0.2861 0.087 Uiso 0.729(12) 1 calc R U P A 1
H48C H -0.0919 0.0391 -0.3047 0.087 Uiso 0.729(12) 1 calc R U P A 1
C47' C 0.013(3) 0.091(2) -0.225(2) 0.054(3) Uani 0.271(12) 1 d . . P A 2
H47C H 0.0438 0.1642 -0.2209 0.065 Uiso 0.271(12) 1 calc R U P A 2
H47D H -0.0649 0.0798 -0.2339 0.065 Uiso 0.271(12) 1 calc R U P A 2
C48' C -0.027(3) 0.034(3) -0.347(2) 0.058(3) Uani 0.271(12) 1 d . . P A 2
H48D H -0.0763 0.0633 -0.3905 0.087 Uiso 0.271(12) 1 calc R U P A 2
H48E H 0.0411 0.0449 -0.3556 0.087 Uiso 0.271(12) 1 calc R U P A 2
H48F H -0.0706 -0.0419 -0.3690 0.087 Uiso 0.271(12) 1 calc R U P A 2
loop_
_atom_site_aniso_label
_atom_site_aniso_U_11
_atom_site_aniso_U_22
_atom_site_aniso_U_33
_atom_site_aniso_U_23
_atom_site_aniso_U_13
_atom_site_aniso_U_12
Hg 0.02095(10) 0.01931(10) 0.01636(10) 0.00820(7) 0.00597(7) 0.00935(7)
I 0.02001(18) 0.0688(3) 0.0420(2) 0.0320(2) 0.00258(16) 0.00970(19)
O1 0.058(3) 0.079(4) 0.047(3) 0.008(3) 0.017(3) 0.009(3)
O2 0.052(3) 0.073(4) 0.061(3) 0.023(3) 0.027(3) 0.013(3)
N1 0.026(2) 0.0176(19) 0.0133(18) 0.0066(15) 0.0085(16) 0.0111(17)
N2 0.023(2) 0.0163(18) 0.0129(18) 0.0043(15) 0.0069(16) 0.0091(16)
N3 0.022(2) 0.0138(18) 0.0147(18) 0.0047(15) 0.0086(16) 0.0066(15)
N4 0.035(2) 0.023(2) 0.023(2) 0.0119(17) 0.0118(18) 0.0117(18)
C1 0.027(3) 0.016(2) 0.019(2) 0.0064(18) 0.011(2) 0.0083(19)
C2 0.032(3) 0.019(2) 0.021(2) 0.0079(19) 0.012(2) 0.014(2)
C3 0.030(3) 0.021(2) 0.024(2) 0.014(2) 0.014(2) 0.013(2)
C4 0.021(2) 0.015(2) 0.018(2) 0.0080(18) 0.0073(19) 0.0066(18)
C5 0.020(2) 0.016(2) 0.016(2) 0.0069(18) 0.0085(18) 0.0064(18)
C6 0.019(2) 0.021(2) 0.015(2) 0.0086(18) 0.0065(18) 0.0092(19)
C7 0.027(3) 0.024(2) 0.020(2) 0.013(2) 0.013(2) 0.013(2)
C8 0.028(3) 0.028(3) 0.019(2) 0.010(2) 0.014(2) 0.016(2)
C9 0.019(2) 0.022(2) 0.018(2) 0.0070(19) 0.0102(19) 0.0105(19)
C10 0.021(2) 0.022(2) 0.018(2) 0.0074(19) 0.0107(19) 0.0117(19)
C11 0.018(2) 0.017(2) 0.014(2) 0.0028(17) 0.0063(18) 0.0090(18)
C12 0.024(2) 0.016(2) 0.019(2) 0.0031(18) 0.011(2) 0.0078(19)
C13 0.026(2) 0.016(2) 0.024(2) 0.0091(19) 0.013(2) 0.0106(19)
C14 0.020(2) 0.019(2) 0.020(2) 0.0084(19) 0.0115(19) 0.0107(19)
C15 0.022(2) 0.017(2) 0.018(2) 0.0081(18) 0.0111(19) 0.0106(19)
C16 0.019(2) 0.020(2) 0.017(2) 0.0102(18) 0.0113(19) 0.0091(18)
C17 0.019(2) 0.019(2) 0.012(2) 0.0042(18) 0.0068(19) 0.0099(18)
C18 0.026(2) 0.018(2) 0.015(2) 0.0067(18) 0.0093(19) 0.0087(19)
C19 0.019(2) 0.014(2) 0.014(2) 0.0077(17) 0.0060(18) 0.0075(17)
C20 0.026(2) 0.017(2) 0.016(2) 0.0047(18) 0.0087(19) 0.0084(19)
C21 0.032(3) 0.018(2) 0.020(2) 0.0102(19) 0.015(2) 0.014(2)
C22 0.044(3) 0.054(4) 0.049(4) 0.039(3) 0.031(3) 0.032(3)
C23 0.069(5) 0.077(5) 0.062(5) 0.055(4) 0.042(4) 0.059(4)
C24 0.094(6) 0.046(4) 0.058(4) 0.044(4) 0.054(4) 0.046(4)
C25 0.069(5) 0.054(4) 0.076(5) 0.044(4) 0.052(5) 0.026(4)
C26 0.036(3) 0.050(4) 0.057(4) 0.034(3) 0.031(3) 0.018(3)
C27 0.028(3) 0.019(2) 0.018(2) 0.0086(19) 0.015(2) 0.011(2)
C28 0.035(3) 0.029(3) 0.019(2) 0.009(2) 0.013(2) 0.015(2)
C29 0.056(4) 0.032(3) 0.017(3) 0.006(2) 0.015(3) 0.006(3)
C30 0.071(4) 0.017(2) 0.040(3) 0.008(2) 0.044(3) 0.014(3)
C31 0.054(4) 0.022(3) 0.044(3) 0.009(2) 0.036(3) 0.020(3)
C32 0.039(3) 0.021(2) 0.032(3) 0.010(2) 0.022(2) 0.016(2)
C33 0.026(2) 0.020(2) 0.021(2) 0.0102(19) 0.013(2) 0.009(2)
C34 0.033(3) 0.031(3) 0.034(3) 0.018(2) 0.018(2) 0.018(2)
C35 0.049(4) 0.042(4) 0.061(4) 0.035(3) 0.026(3) 0.032(3)
C36 0.050(4) 0.050(4) 0.056(4) 0.044(3) 0.027(3) 0.027(3)
C37 0.049(4) 0.048(4) 0.040(3) 0.032(3) 0.026(3) 0.020(3)
C38 0.027(3) 0.027(3) 0.027(3) 0.013(2) 0.014(2) 0.012(2)
C39 0.028(3) 0.018(2) 0.016(2) 0.0050(18) 0.006(2) 0.013(2)
C40 0.035(3) 0.019(2) 0.018(2) 0.0067(19) 0.011(2) 0.013(2)
C41 0.043(3) 0.036(3) 0.021(3) 0.013(2) 0.017(2) 0.023(3)
C42 0.048(3) 0.027(3) 0.019(3) -0.001(2) 0.009(2) 0.022(3)
C43 0.042(3) 0.017(2) 0.027(3) 0.003(2) 0.011(2) 0.013(2)
C44 0.036(3) 0.016(2) 0.022(2) 0.0027(19) 0.013(2) 0.009(2)
C45 0.045(4) 0.051(4) 0.034(3) 0.007(3) 0.010(2) 0.013(3)
C46 0.041(4) 0.050(4) 0.042(4) 0.011(3) 0.012(3) 0.010(3)
C47 0.069(8) 0.047(5) 0.046(5) -0.004(4) 0.047(6) 0.007(6)
C48 0.050(5) 0.069(7) 0.039(6) 0.004(5) 0.021(5) 0.013(5)
C47' 0.069(8) 0.047(5) 0.046(5) -0.004(4) 0.047(6) 0.007(6)
C48' 0.050(5) 0.069(7) 0.039(6) 0.004(5) 0.021(5) 0.013(5)
loop_
_atom_type_symbol
_atom_type_description
_atom_type_scat_dispersion_real
_atom_type_scat_dispersion_imag
_atom_type_scat_source
C C 0.0033 0.0016 'International Tables Vol C Tables 4.2.6.8 and 6.1.1.4'
H H 0.0000 0.0000 'International Tables Vol C Tables 4.2.6.8 and 6.1.1.4'
N N 0.0061 0.0033 'International Tables Vol C Tables 4.2.6.8 and 6.1.1.4'
O O 0.0106 0.0060 'International Tables Vol C Tables 4.2.6.8 and 6.1.1.4'
I I -0.4742 1.8119 'International Tables Vol C Tables 4.2.6.8 and 6.1.1.4'
Hg Hg -2.3894 9.2266 'International Tables Vol C Tables 4.2.6.8 and 6.1.1.4'
loop_
_geom_angle_atom_site_label_1
_geom_angle_atom_site_label_2
_geom_angle_atom_site_label_3
_geom_angle
N2 Hg N1 79.64(13)
N2 Hg N3 80.23(14)
N1 Hg N3 125.37(14)
N2 Hg I 139.05(10)
N1 Hg I 120.35(10)
N3 Hg I 107.90(9)
N2 Hg C17 119.62(14)
N1 Hg C17 74.04(13)
N3 Hg C17 73.16(13)
I Hg C17 100.85(10)
C46 O1 C47' 137.0(14)
C46 O1 C47 116.6(7)
C4 N1 C1 107.2(4)
C4 N1 Hg 122.4(3)
C1 N1 Hg 126.9(3)
C9 N2 C6 107.8(4)
C9 N2 Hg 122.3(3)
C6 N2 Hg 122.4(3)
C11 N3 C14 106.7(4)
C11 N3 Hg 121.5(3)
C14 N3 Hg 127.9(3)
C19 N4 C18 109.8(4)
C19 N4 C45 119.0(5)
C18 N4 C45 128.9(5)
N1 C1 C20 125.0(4)
N1 C1 C2 109.0(4)
C20 C1 C2 125.9(4)
C3 C2 C1 107.3(4)
C3 C2 H2A 126.4
C1 C2 H2A 126.4
C2 C3 C4 107.0(4)
C2 C3 H3A 126.5
C4 C3 H3A 126.5
N1 C4 C5 125.7(4)
N1 C4 C3 109.5(4)
C5 C4 C3 124.8(4)
C6 C5 C4 126.1(4)
C6 C5 C21 117.3(4)
C4 C5 C21 116.6(4)
N2 C6 C5 125.8(4)
N2 C6 C7 109.0(4)
C5 C6 C7 125.0(4)
C8 C7 C6 107.3(4)
C8 C7 H7A 126.3
C6 C7 H7A 126.3
C7 C8 C9 107.7(4)
C7 C8 H8A 126.2
C9 C8 H8A 126.2
N2 C9 C10 126.0(4)
N2 C9 C8 108.2(4)
C10 C9 C8 125.7(4)
C9 C10 C11 127.1(4)
C9 C10 C27 116.9(4)
C11 C10 C27 115.9(4)
N3 C11 C10 125.4(4)
N3 C11 C12 110.0(4)
C10 C11 C12 124.5(4)
C13 C12 C11 106.9(4)
C13 C12 H12A 126.6
C11 C12 H12A 126.6
C12 C13 C14 107.5(4)
C12 C13 H13A 126.3
C14 C13 H13A 126.3
N3 C14 C15 124.1(4)
N3 C14 C13 108.9(4)
C15 C14 C13 126.9(4)
C14 C15 C16 121.9(4)
C14 C15 C33 120.9(4)
C16 C15 C33 117.1(4)
C17 C16 C19 106.3(4)
C17 C16 C15 129.7(4)
C19 C16 C15 123.6(4)
C16 C17 C18 108.3(4)
C16 C17 Hg 100.5(3)
C18 C17 Hg 98.0(3)
C16 C17 H17A 123(3)
C18 C17 H17A 128(3)
Hg C17 H17A 81(3)
C17 C18 N4 106.0(4)
C17 C18 C20 130.3(4)
N4 C18 C20 123.5(4)
N4 C19 C16 109.4(4)
N4 C19 H19A 125.3
C16 C19 H19A 125.3
C1 C20 C18 121.3(4)
C1 C20 C39 120.2(4)
C18 C20 C39 118.5(4)
C26 C21 C22 118.7(5)
C26 C21 C5 120.5(5)
C22 C21 C5 120.8(5)
C23 C22 C21 120.7(6)
C23 C22 H22A 119.6
C21 C22 H22A 119.6
C24 C23 C22 120.5(6)
C24 C23 H23A 119.8
C22 C23 H23A 119.8
C23 C24 C25 120.0(5)
C23 C24 H24A 120.0
C25 C24 H24A 120.0
C26 C25 C24 120.2(6)
C26 C25 H25A 119.9
C24 C25 H25A 119.9
C25 C26 C21 119.8(6)
C25 C26 H26A 120.1
C21 C26 H26A 120.1
C28 C27 C32 118.6(5)
C28 C27 C10 121.2(4)
C32 C27 C10 120.2(4)
C27 C28 C29 120.5(5)
C27 C28 H28A 119.8
C29 C28 H28A 119.8
C30 C29 C28 120.1(6)
C30 C29 H29A 119.9
C28 C29 H29A 119.9
C29 C30 C31 120.2(5)
C29 C30 H30A 119.9
C31 C30 H30A 119.9
C30 C31 C32 120.3(5)
C30 C31 H31A 119.8
C32 C31 H31A 119.8
C31 C32 C27 120.3(5)
C31 C32 H32A 119.8
C27 C32 H32A 119.8
C34 C33 C38 118.0(4)
C34 C33 C15 122.8(4)
C38 C33 C15 119.1(4)
C33 C34 C35 120.5(5)
C33 C34 H34A 119.8
C35 C34 H34A 119.8
C36 C35 C34 120.6(6)
C36 C35 H35A 119.7
C34 C35 H35A 119.7
C35 C36 C37 119.8(5)
C35 C36 H36A 120.1
C37 C36 H36A 120.1
C38 C37 C36 120.3(6)
C38 C37 H37A 119.8
C36 C37 H37A 119.8
C37 C38 C33 120.8(5)
C37 C38 H38A 119.6
C33 C38 H38A 119.6
C44 C39 C40 118.7(4)
C44 C39 C20 121.2(5)
C40 C39 C20 120.0(4)
C41 C40 C39 120.9(5)
C41 C40 H40A 119.6
C39 C40 H40A 119.6
C40 C41 C42 119.7(5)
C40 C41 H41A 120.2
C42 C41 H41A 120.2
C43 C42 C41 120.3(5)
C43 C42 H42A 119.8
C41 C42 H42A 119.8
C42 C43 C44 120.1(5)
C42 C43 H43A 119.9
C44 C43 H43A 119.9
C43 C44 C39 120.3(5)
C43 C44 H44A 119.8
C39 C44 H44A 119.8
N4 C45 C46 111.2(6)
N4 C45 H45A 109.4
C46 C45 H45A 109.4
N4 C45 H45B 109.4
C46 C45 H45B 109.4
H45A C45 H45B 108.0
O2 C46 O1 124.1(7)
O2 C46 C45 125.7(7)
O1 C46 C45 110.1(6)
O1 C47 C48 107.6(9)
O1 C47 H47A 110.2
C48 C47 H47A 110.2
O1 C47 H47B 110.2
C48 C47 H47B 110.2
H47A C47 H47B 108.5
C47 C48 H48A 109.5
C47 C48 H48B 109.5
H48A C48 H48B 109.5
C47 C48 H48C 109.5
H48A C48 H48C 109.5
H48B C48 H48C 109.5
O1 C47' C48' 155(3)
O1 C47' H47C 97.7
C48' C47' H47C 97.7
O1 C47' H47D 97.7
C48' C47' H47D 97.7
H47C C47' H47D 103.6
C47' C48' H48D 109.5
C47' C48' H48E 109.5
H48D C48' H48E 109.5
C47' C48' H48F 109.5
H48D C48' H48F 109.5
H48E C48' H48F 109.5
loop_
_geom_bond_atom_site_label_1
_geom_bond_atom_site_label_2
_geom_bond_distance
Hg N2 2.233(4)
Hg N1 2.356(4)
Hg N3 2.372(4)
Hg I 2.6546(4)
Hg C17 2.679(4)
O1 C46 1.339(9)
O1 C47' 1.44(3)
O1 C47 1.448(11)
O2 C46 1.242(9)
N1 C4 1.364(6)
N1 C1 1.375(6)
N2 C9 1.376(6)
N2 C6 1.370(6)
N3 C11 1.355(6)
N3 C14 1.396(6)
N4 C19 1.326(6)
N4 C18 1.405(6)
N4 C45 1.448(8)
C1 C20 1.388(7)
C1 C2 1.450(6)
C2 C3 1.350(7)
C2 H2A 0.9500
C3 C4 1.453(7)
C3 H3A 0.9500
C4 C5 1.423(6)
C5 C6 1.392(6)
C5 C21 1.503(6)
C6 C7 1.450(6)
C7 C8 1.344(7)
C7 H7A 0.9500
C8 C9 1.457(6)
C8 H8A 0.9500
C9 C10 1.386(7)
C10 C11 1.434(6)
C10 C27 1.500(6)
C11 C12 1.459(6)
C12 C13 1.349(7)
C12 H12A 0.9500
C13 C14 1.447(6)
C13 H13A 0.9500
C14 C15 1.393(6)
C15 C16 1.438(6)
C15 C33 1.470(6)
C16 C17 1.395(6)
C16 C19 1.410(6)
C17 C18 1.406(6)
C17 H17A 0.92(5)
C18 C20 1.438(6)
C19 H19A 0.9500
C20 C39 1.480(6)
C21 C26 1.392(8)
C21 C22 1.391(8)
C22 C23 1.389(8)
C22 H22A 0.9500
C23 C24 1.356(11)
C23 H23A 0.9500
C24 C25 1.387(11)
C24 H24A 0.9500
C25 C26 1.398(9)
C25 H25A 0.9500
C26 H26A 0.9500
C27 C28 1.384(7)
C27 C32 1.402(7)
C28 C29 1.396(8)
C28 H28A 0.9500
C29 C30 1.373(9)
C29 H29A 0.9500
C30 C31 1.373(9)
C30 H30A 0.9500
C31 C32 1.386(7)
C31 H31A 0.9500
C32 H32A 0.9500
C33 C34 1.391(7)
C33 C38 1.412(7)
C34 C35 1.403(8)
C34 H34A 0.9500
C35 C36 1.375(10)
C35 H35A 0.9500
C36 C37 1.382(9)
C36 H36A 0.9500
C37 C38 1.388(7)
C37 H37A 0.9500
C38 H38A 0.9500
C39 C44 1.402(7)
C39 C40 1.402(7)
C40 C41 1.377(7)
C40 H40A 0.9500
C41 C42 1.403(8)
C41 H41A 0.9500
C42 C43 1.375(9)
C42 H42A 0.9500
C43 C44 1.392(7)
C43 H43A 0.9500
C44 H44A 0.9500
C45 C46 1.497(10)
C45 H45A 0.9900
C45 H45B 0.9900
C47 C48 1.482(15)
C47 H47A 0.9900
C47 H47B 0.9900
C48 H48A 0.9800
C48 H48B 0.9800
C48 H48C 0.9800
C47' C48' 1.61(4)
C47' H47C 0.9900
C47' H47D 0.9900
C48' H48D 0.9800
C48' H48E 0.9800
C48' H48F 0.9800
