#------------------------------------------------------------------------------
#$Date: 2018-09-20 02:05:04 +0300 (Thu, 20 Sep 2018) $
#$Revision: 211069 $
#$URL: file:///home/coder/svn-repositories/cod/cif/7/04/75/7047595.cif $
#------------------------------------------------------------------------------
#
# This file is available in the Crystallography Open Database (COD),
# http://www.crystallography.net/
#
# All data on this site have been placed in the public domain by the
# contributors.
#
data_7047595
loop_
_publ_author_name
'Tung, Jo-Yu'
'Chen, Yi-Chun'
'Liu, Ta-Kang'
'Tsai, Wei-Joe'
'Lin, Hsiang-Yin'
'Chen, Jyh-Horung'
'Chang, Yu-Chang'
_publ_section_title
;
 The \h1-H--C&#x2026;Hg agostic interactions in mercury complexes of
 N-confused porphyrin
;
_journal_name_full               'Dalton Transactions'
_journal_paper_doi               10.1039/C8DT02895H
_journal_year                    2018
_chemical_formula_moiety         'C53 H37 Cl Hg N4 O2'
_chemical_formula_sum            'C53 H37 Cl Hg N4 O2'
_chemical_formula_weight         997.90
_space_group_crystal_system      triclinic
_space_group_IT_number           2
_space_group_name_Hall           '-P 1'
_space_group_name_H-M_alt        'P -1'
_symmetry_space_group_name_Hall  '-P 1'
_symmetry_space_group_name_H-M   'P -1'
_atom_sites_solution_hydrogens   geom
_audit_creation_method           SHELXL-2014/7
_audit_update_record
;
2018-06-21 deposited with the CCDC.
2018-09-19 downloaded from the CCDC.
;
_cell_angle_alpha                69.012(10)
_cell_angle_beta                 63.115(13)
_cell_angle_gamma                80.402(10)
_cell_formula_units_Z            2
_cell_length_a                   13.3823(19)
_cell_length_b                   14.1121(13)
_cell_length_c                   14.5139(16)
_cell_measurement_reflns_used    3820
_cell_measurement_temperature    293(2)
_cell_measurement_theta_max      22.6740
_cell_measurement_theta_min      3.0910
_cell_volume                     2282.5(6)
_computing_cell_refinement
; 
CrysAlis RED, Oxford Diffraction Ltd., 
Version 1.171.32.29 (release 10-06-2008 CrysAlis171 .NET) 
(compiled Jun 10 2008,16:49:55) 
;
_computing_data_collection
; 
CrysAlis CCD, Oxford Diffraction Ltd., 
Version 1.171.32.29 (release 10-06-2008 CrysAlis171 .NET) 
(compiled Jun 10 2008,16:49:55) 
;
_computing_data_reduction
; 
CrysAlis RED, Oxford Diffraction Ltd., 
Version 1.171.32.29 (release 10-06-2008 CrysAlis171 .NET) 
(compiled Jun 10 2008,16:49:55) 
;
_computing_structure_refinement  'SHELXL-2014/7 (Sheldrick, 2014)'
_diffrn_ambient_temperature      293(2)
_diffrn_measured_fraction_theta_full 0.999
_diffrn_measured_fraction_theta_max 0.836
_diffrn_measurement_device_type  'CCD detector'
_diffrn_measurement_method       '\w scans'
_diffrn_radiation_probe          x-ray
_diffrn_radiation_type           MoK\a
_diffrn_radiation_wavelength     0.71073
_diffrn_reflns_av_R_equivalents  0.0666
_diffrn_reflns_av_unetI/netI     0.1337
_diffrn_reflns_Laue_measured_fraction_full 0.999
_diffrn_reflns_Laue_measured_fraction_max 0.836
_diffrn_reflns_limit_h_max       18
_diffrn_reflns_limit_h_min       -18
_diffrn_reflns_limit_k_max       19
_diffrn_reflns_limit_k_min       -18
_diffrn_reflns_limit_l_max       18
_diffrn_reflns_limit_l_min       -19
_diffrn_reflns_number            20258
_diffrn_reflns_point_group_measured_fraction_full 0.999
_diffrn_reflns_point_group_measured_fraction_max 0.836
_diffrn_reflns_theta_full        25.242
_diffrn_reflns_theta_max         29.611
_diffrn_reflns_theta_min         2.845
_exptl_absorpt_coefficient_mu    3.475
_exptl_absorpt_correction_T_max  1.00000
_exptl_absorpt_correction_T_min  0.70797
_exptl_absorpt_correction_type   multi-scan
_exptl_absorpt_process_details
;
CrysAlisPro, Agilent Technologies,
Version 1.171.36.24 (release 03-12-2012 CrysAlis171 .NET)
(compiled Dec  3 2012,18:21:49)
Empirical absorption correction using spherical harmonics,
 implemented in SCALE3 ABSPACK scaling algorithm.
;
_exptl_crystal_colour            blue
_exptl_crystal_density_diffrn    1.452
_exptl_crystal_description       parallelepiped
_exptl_crystal_F_000             992
_exptl_crystal_size_max          0.40
_exptl_crystal_size_mid          0.20
_exptl_crystal_size_min          0.10
_refine_diff_density_max         2.085
_refine_diff_density_min         -2.149
_refine_diff_density_rms         0.145
_refine_ls_extinction_method     none
_refine_ls_goodness_of_fit_ref   1.002
_refine_ls_hydrogen_treatment    constr
_refine_ls_matrix_type           full
_refine_ls_number_parameters     490
_refine_ls_number_reflns         10742
_refine_ls_number_restraints     0
_refine_ls_restrained_S_all      1.002
_refine_ls_R_factor_all          0.1507
_refine_ls_R_factor_gt           0.0781
_refine_ls_shift/su_max          0.000
_refine_ls_shift/su_mean         0.000
_refine_ls_structure_factor_coef Fsqd
_refine_ls_weighting_details
'w=1/[\s^2^(Fo^2^)+(0.1051P)^2^+2.8665P] where P=(Fo^2^+2Fc^2^)/3'
_refine_ls_weighting_scheme      calc
_refine_ls_wR_factor_gt          0.1897
_refine_ls_wR_factor_ref         0.2324
_reflns_Friedel_coverage         0.000
_reflns_number_gt                5718
_reflns_number_total             10742
_reflns_threshold_expression     'I > 2\s(I)'
_cod_data_source_file            c8dt02895h2.cif
_cod_data_source_block           hgscn1221_sq
_cod_original_cell_volume        2282.5(5)
_cod_database_code               7047595
_shelx_shelxl_version_number     2014/7
_shelx_space_group_comment
;
The symmetry employed for this shelxl refinement is uniquely defined
by the following loop, which should always be used as a source of
symmetry information in preference to the above space-group names.
They are only intended as comments.
;
_shelx_res_file
;

    hgscn1221_sq.res created by SHELXL-2014/7


TITL hgscn1221 in P-1
CELL 0.71073  13.38232  14.11207  14.51391  69.0119  63.1154  80.4021
ZERR    2.00   0.00194   0.00134   0.00161   0.0096   0.0127   0.0099
LATT 1
SFAC C  H  N  O  Hg Cl
UNIT 106  74  8  4  2  2
L.S. 12
ACTA
BOND $H
FMAP 2
EADP C42 C43
EADP C48 > C53
PLAN 0
ABIN
WGHT    0.105100    2.866500
FVAR       0.11083
HG    5    0.305290    0.672197    0.424772    11.00000    0.08221    0.04314 =
         0.04308   -0.01885   -0.01204    0.00018
O1    4    0.656671    0.521047   -0.068885    11.00000    0.09975    0.11343 =
         0.06519   -0.05608   -0.01943   -0.00632
O2    4    0.753237    0.584729   -0.010474    11.00000    0.08889    0.09934 =
         0.08406   -0.04665   -0.02158   -0.00135
CL    6    0.236688    0.735638    0.287705    11.00000    0.14356    0.09854 =
         0.09802    0.01790   -0.07166   -0.02744
N1    3    0.338727    0.499923    0.488293    11.00000    0.09268    0.02850 =
         0.02757   -0.01159   -0.01613   -0.00198
N2    3    0.243905    0.653168    0.601729    11.00000    0.08328    0.03607 =
         0.03243   -0.01595    0.00180   -0.01136
N3    3    0.405427    0.804223    0.413439    11.00000    0.05585    0.03540 =
         0.03772   -0.01841    0.00157   -0.00542
N4    3    0.550279    0.620250    0.152653    11.00000    0.08326    0.05496 =
         0.03616   -0.02628   -0.01765    0.00429
C1    1    0.401348    0.433810    0.429485    11.00000    0.06591    0.02955 =
         0.04100   -0.02382   -0.00867   -0.00282
C2    1    0.371207    0.330111    0.499926    11.00000    0.08608    0.03479 =
         0.05476   -0.02516   -0.02242    0.00520
AFIX  43
H2A   2    0.401543    0.271796    0.481203    11.00000   -1.20000
AFIX   0
C3    1    0.291005    0.333672    0.597729    11.00000    0.06650    0.03615 =
         0.04115   -0.01959   -0.00541    0.00072
AFIX  43
H3B   2    0.256700    0.278004    0.658616    11.00000   -1.20000
AFIX   0
C4    1    0.267983    0.438082    0.591358    11.00000    0.05839    0.03143 =
         0.04243   -0.01812   -0.01334    0.00019
C5    1    0.189365    0.474374    0.677695    11.00000    0.05933    0.03171 =
         0.03776   -0.01450   -0.00692   -0.00158
C6    1    0.178661    0.572044    0.682265    11.00000    0.07165    0.03053 =
         0.03516   -0.01285   -0.00303   -0.00493
C7    1    0.103759    0.607856    0.771457    11.00000    0.06752    0.04237 =
         0.04901   -0.02241    0.01529   -0.02213
AFIX  43
H7A   2    0.050953    0.568102    0.837310    11.00000   -1.20000
AFIX   0
C8    1    0.120521    0.705471    0.746665    11.00000    0.06777    0.04461 =
         0.04655   -0.03172    0.00940    0.00254
AFIX  43
H8A   2    0.081930    0.746509    0.789987    11.00000   -1.20000
AFIX   0
C9    1    0.212674    0.735659    0.636581    11.00000    0.08223    0.03148 =
         0.03714   -0.01879    0.00177   -0.00760
C10   1    0.262351    0.832230    0.582397    11.00000    0.07522    0.03652 =
         0.04343   -0.02526   -0.00359    0.00169
C11   1    0.354998    0.861506    0.479235    11.00000    0.06907    0.02407 =
         0.04302   -0.01779    0.00229    0.00674
C12   1    0.417411    0.955671    0.432837    11.00000    0.08242    0.03750 =
         0.06073   -0.02968   -0.01270    0.00263
AFIX  43
H12A  2    0.402863    1.005643    0.465214    11.00000   -1.20000
AFIX   0
C13   1    0.497896    0.956862    0.336956    11.00000    0.07147    0.02891 =
         0.06017   -0.02088    0.00822   -0.01625
AFIX  43
H13A  2    0.549364    1.008530    0.287935    11.00000   -1.20000
AFIX   0
C14   1    0.490889    0.861630    0.322331    11.00000    0.07151    0.03177 =
         0.05036   -0.02420    0.00240   -0.00202
C15   1    0.560549    0.833345    0.229114    11.00000    0.06063    0.03381 =
         0.04329   -0.01944   -0.00162    0.00033
C16   1    0.556033    0.735192    0.224185    11.00000    0.05529    0.03014 =
         0.03895   -0.02208   -0.00832    0.00826
C17   1    0.522475    0.639000    0.309687    11.00000    0.06023    0.02051 =
         0.04260   -0.02057   -0.01186    0.00957
AFIX  13
H17A  2    0.566469    0.617326    0.352476    11.00000   -1.20000
AFIX   0
C18   1    0.517709    0.567393    0.266207    11.00000    0.03959    0.03952 =
         0.04527   -0.02309   -0.00382    0.00447
C19   1    0.571708    0.717281    0.129360    11.00000    0.07475    0.04453 =
         0.04262   -0.02539   -0.01751    0.01316
AFIX  43
H19A  2    0.593751    0.765818    0.060528    11.00000   -1.20000
AFIX   0
C20   1    0.480672    0.465508    0.321592    11.00000    0.05686    0.04448 =
         0.04449   -0.02569   -0.01527    0.00145
C21   1    0.111813    0.395890    0.774815    11.00000    0.07310    0.03176 =
         0.04425   -0.01632   -0.01087   -0.00357
C22   1    0.031043    0.348329    0.768136    11.00000    0.08076    0.03399 =
         0.06674   -0.02952   -0.02175    0.00948
AFIX  43
H22A  2    0.026002    0.364881    0.702316    11.00000   -1.20000
AFIX   0
C23   1   -0.039566    0.277690    0.859656    11.00000    0.05154    0.03358 =
         0.10303   -0.03367    0.00788   -0.01008
AFIX  43
H23A  2   -0.093833    0.247862    0.855696    11.00000   -1.20000
AFIX   0
C24   1   -0.031588    0.249660    0.958699    11.00000    0.07333    0.02641 =
         0.08214   -0.00563    0.01640   -0.01304
AFIX  43
H24A  2   -0.077012    0.198969    1.019230    11.00000   -1.20000
AFIX   0
C25   1    0.042958    0.297367    0.964724    11.00000    0.08405    0.04996 =
         0.04930   -0.00746    0.00918    0.00925
AFIX  43
H25A  2    0.046288    0.280835    1.031331    11.00000   -1.20000
AFIX   0
C26   1    0.115179    0.370414    0.875200    11.00000    0.07215    0.05924 =
         0.04380   -0.01823   -0.00758   -0.00031
AFIX  43
H26A  2    0.165647    0.402226    0.882265    11.00000   -1.20000
AFIX  66
C27   1    0.210161    0.913497    0.637267    11.00000    0.08264    0.03148 =
         0.04554   -0.02160    0.01139   -0.00998
C28   1    0.243561    0.919637    0.712770    11.00000    0.13283    0.08312 =
         0.09842   -0.07711   -0.02365    0.01642
AFIX  43
H28A  2    0.297579    0.875059    0.728472    11.00000   -1.20000
AFIX  65
C29   1    0.196226    0.992404    0.764804    11.00000    0.10084    0.07551 =
         0.11931   -0.07686    0.00638   -0.01681
AFIX  43
H29A  2    0.218574    0.996512    0.815320    11.00000   -1.20000
AFIX  65
C30   1    0.115490    1.059031    0.741336    11.00000    0.10003    0.05943 =
         0.12183   -0.06594    0.04141   -0.02762
AFIX  43
H30A  2    0.083820    1.107716    0.776150    11.00000   -1.20000
AFIX  65
C31   1    0.082088    1.052892    0.665833    11.00000    0.13918    0.08969 =
         0.26705   -0.13037   -0.06115    0.04951
AFIX  43
H31A  2    0.028070    1.097470    0.650131    11.00000   -1.20000
AFIX  65
C32   1    0.129422    0.980126    0.613798    11.00000    0.11299    0.11045 =
         0.14850   -0.09679   -0.04114    0.06303
AFIX  43
H32A  2    0.107074    0.976019    0.563282    11.00000   -1.20000
AFIX   0
C33   1    0.638068    0.908273    0.129291    11.00000    0.06932    0.02792 =
         0.03920   -0.01359   -0.00066   -0.00280
C34   1    0.594581    1.000283    0.080608    11.00000    0.09092    0.04723 =
         0.05517   -0.01711   -0.01042   -0.01157
AFIX  43
H34A  2    0.518393    1.015052    0.110375    11.00000   -1.20000
AFIX   0
C35   1    0.671911    1.070378   -0.016463    11.00000    0.12087    0.03383 =
         0.05289   -0.01502   -0.00848   -0.00085
AFIX  43
H35A  2    0.645573    1.132303   -0.049191    11.00000   -1.20000
AFIX   0
C36   1    0.783073    1.047959   -0.061551    11.00000    0.09391    0.05939 =
         0.04725   -0.02792    0.01222   -0.03015
AFIX  43
H36A  2    0.831925    1.093714   -0.125192    11.00000   -1.20000
AFIX   0
C37   1    0.824122    0.953954   -0.010634    11.00000    0.08095    0.05479 =
         0.05994   -0.02157   -0.00075   -0.01150
AFIX  43
H37A  2    0.900121    0.938275   -0.039526    11.00000   -1.20000
AFIX   0
C38   1    0.749673    0.886945    0.081729    11.00000    0.07815    0.03578 =
         0.05041   -0.01274   -0.01204   -0.00464
AFIX  43
H38A  2    0.776264    0.824545    0.113178    11.00000   -1.20000
AFIX   0
C39   1    0.528180    0.390666    0.261010    11.00000    0.06928    0.03398 =
         0.04933   -0.02692   -0.01244    0.00291
C40   1    0.640742    0.387044    0.200046    11.00000    0.10006    0.03591 =
         0.06587   -0.03130   -0.02984    0.00880
AFIX  43
H40A  2    0.687780    0.429663    0.198688    11.00000   -1.20000
AFIX   0
C41   1    0.686666    0.319846    0.139256    11.00000    0.10987    0.07156 =
         0.07633   -0.04334   -0.00400    0.04547
AFIX  43
H41A  2    0.763850    0.315516    0.100575    11.00000   -1.20000
AFIX   0
C42   1    0.615945    0.260286    0.137564    11.00000    0.16879    0.04581 =
         0.06956   -0.04143   -0.03715    0.01146
AFIX  43
H42A  2    0.645599    0.219949    0.092553    11.00000   -1.20000
AFIX   0
C43   1    0.505592    0.259512    0.199443    11.00000    0.16879    0.04581 =
         0.06956   -0.04143   -0.03715    0.01146
AFIX  43
H43A  2    0.459769    0.215979    0.200439    11.00000   -1.20000
AFIX   0
C44   1    0.458821    0.324402    0.262945    11.00000    0.10511    0.03940 =
         0.05610   -0.02268   -0.02576   -0.00929
AFIX  43
H44A  2    0.382083    0.323628    0.306263    11.00000   -1.20000
AFIX   0
C45   1    0.550276    0.587035    0.068868    11.00000    0.09449    0.06557 =
         0.06416   -0.03907   -0.01139   -0.00407
AFIX  23
H45A  2    0.516840    0.639690    0.026516    11.00000   -1.20000
H45B  2    0.504388    0.526819    0.103436    11.00000   -1.20000
AFIX   0
C46   1    0.664925    0.563877   -0.005864    11.00000    0.08515    0.05665 =
         0.05807   -0.02955   -0.01778    0.00598
C47   1    0.761524    0.479439   -0.135341    11.00000    0.10297    0.10852 =
         0.07489   -0.05181   -0.01077    0.00933
AFIX  23
H47A  2    0.813255    0.468348   -0.102448    11.00000   -1.20000
H47B  2    0.746094    0.413900   -0.133598    11.00000   -1.20000
AFIX  66
C48   1    0.815944    0.543045   -0.248758    11.00000    0.16786    0.21142 =
         0.08953   -0.05748   -0.02791   -0.06663
C49   1    0.871678    0.630206   -0.274626    11.00000    0.16786    0.21142 =
         0.08953   -0.05748   -0.02791   -0.06663
AFIX  43
H49A  2    0.870412    0.649768   -0.219352    11.00000   -1.20000
AFIX  65
C50   1    0.929305    0.688130   -0.383109    11.00000    0.16786    0.21142 =
         0.08953   -0.05748   -0.02791   -0.06663
AFIX  43
H50A  2    0.966595    0.746447   -0.400417    11.00000   -1.20000
AFIX  65
C51   1    0.931198    0.658893   -0.465724    11.00000    0.16786    0.21142 =
         0.08953   -0.05748   -0.02791   -0.06663
AFIX  43
H51A  2    0.969754    0.697648   -0.538306    11.00000   -1.20000
AFIX  65
C52   1    0.875464    0.571732   -0.439857    11.00000    0.16786    0.21142 =
         0.08953   -0.05748   -0.02791   -0.06663
AFIX  43
H52A  2    0.876731    0.552170   -0.495132    11.00000   -1.20000
AFIX  65
C53   1    0.817837    0.513807   -0.331375    11.00000    0.16786    0.21142 =
         0.08953   -0.05748   -0.02791   -0.06663
AFIX  43
H53A  2    0.780547    0.455490   -0.314068    11.00000   -1.20000

AFIX   0
HKLF 4

REM  hgscn1221 in P-1
REM R1 =  0.0781 for    5718 Fo > 4sig(Fo)  and  0.1507 for all   10742 data
REM    490 parameters refined using      0 restraints

END

WGHT      0.0992      2.0692

REM Highest difference peak  2.085,  deepest hole -2.149,  1-sigma level  0.145
Q1    1   0.2366  0.6529  0.4208  11.00000  0.05    2.09
Q2    1   0.5665  0.7720  0.0227  11.00000  0.05    1.07
Q3    1   0.0772  0.9723  0.7274  11.00000  0.05    0.96
Q4    1   0.1576  1.0149  0.7232  11.00000  0.05    0.81
Q5    1   0.3040  0.6957  0.5029  11.00000  0.05    0.72
Q6    1   0.8392  0.7463 -0.4408  11.00000  0.05    0.71
Q7    1   0.3077  0.7682  0.3539  11.00000  0.05    0.67
Q8    1   0.9174  0.7387 -0.4642  11.00000  0.05    0.65
Q9    1   0.8308  0.5430 -0.1096  11.00000  0.05    0.62
Q10   1   0.1907  0.7167  0.2567  11.00000  0.05    0.61
Q11   1   0.5048  0.6147  0.3938  11.00000  0.05    0.59
Q12   1   0.3852  0.7132  0.3868  11.00000  0.05    0.57
Q13   1   0.6345  0.7923  0.0020  11.00000  0.05    0.54
Q14   1   0.9870  0.7870 -0.4164  11.00000  0.05    0.51
Q15   1   0.3584  0.6425  0.4898  11.00000  0.05    0.50
Q16   1   0.3201  0.6434  0.4407  11.00000  0.05    0.49
Q17   1   0.7349  0.5575 -0.1278  11.00000  0.05    0.48
Q18   1   0.1930  1.1002  0.6206  11.00000  0.05    0.47
Q19   1   0.2363  0.6286  0.5527  11.00000  0.05    0.47
Q20   1   0.0164  0.9491  0.6909  11.00000  0.05    0.46
;
_shelx_res_checksum              33665
_shelx_fab_file
;
   18    5    6      1.41      0.00
   18    4    6      1.24      0.00
   18    2    5     -0.59      0.00
   17   10    8      0.91      0.00
   17    9    8      0.39      0.00
   17    9    7     -1.13      0.00
   17    8    8      0.44      0.00
   17    8    7     -0.77      0.00
   17    7    7     -0.48      0.00
   17    7    6      0.51      0.00
   17    6    7     -0.84      0.00
   17    6    6      1.82      0.00
   17    6    5      0.28      0.00
   17    5    7     -0.99      0.00
   17    5    6      1.60      0.00
   17    5    5     -2.79      0.00
   17    4    7     -0.48      0.00
   17    4    6      0.42      0.00
   17    4    5     -2.91      0.00
   17    4    4      0.69      0.00
   17    3    6      0.04      0.00
   17    3    5     -1.22      0.00
   17    3    4      1.01      0.00
   17    2    6      0.55      0.00
   17    2    5     -0.78      0.00
   17    2    4      0.79      0.00
   17    2    3      1.71      0.00
   17    1    6      0.54      0.00
   17    1    5     -1.34      0.00
   17    1    4      1.53      0.00
   17    1    3      1.60      0.00
   17    0    5     -0.59      0.00
   17    0    4      2.40      0.00
   17    0    3      0.67      0.00
   17   -1    5      1.00      0.00
   17   -1    4      1.51      0.00
   17   -1    3     -0.82      0.00
   17   -2    7     -0.52      0.00
   17   -2    4     -0.39      0.00
   17   -2    3     -1.75      0.00
   17   -3    4     -0.75      0.00
   16   10    7      0.18      0.00
   16    9    8     -0.64      0.00
   16    9    7      0.38      0.00
   16    9    6     -0.60      0.00
   16    8   11     -1.23      0.00
   16    8    9      0.39      0.00
   16    8    8      0.61      0.00
   16    8    7     -0.33      0.00
   16    8    6      0.45      0.00
   16    8    5      1.45      0.00
   16    7   12      0.23      0.00
   16    7   11     -0.30      0.00
   16    7   10      0.85      0.00
   16    7    8      0.59      0.00
   16    7    7     -1.43      0.00
   16    7    6      1.61      0.00
   16    7    5     -0.52      0.00
   16    7    4     -2.15      0.00
   16    6   12      0.43      0.00
   16    6   11      0.40      0.00
   16    6   10     -0.46      0.00
   16    6    9      0.16      0.00
   16    6    8     -0.49      0.00
   16    6    7     -1.33      0.00
   16    6    6      1.54      0.00
   16    6    5     -2.66      0.00
   16    6    4     -0.27      0.00
   16    6    3      1.21      0.00
   16    5   12      0.66      0.00
   16    5   11     -0.38      0.00
   16    5   10     -1.17      0.00
   16    5    9     -0.06      0.00
   16    5    8     -1.04      0.00
   16    5    7     -0.10      0.00
   16    5    6      0.43      0.00
   16    5    5     -2.43      0.00
   16    5    4      2.09      0.00
   16    5    3      0.69      0.00
   16    4   12      0.07      0.00
   16    4   11     -1.00      0.00
   16    4   10      0.24      0.00
   16    4    9     -0.56      0.00
   16    4    8     -0.47      0.00
   16    4    7      0.92      0.00
   16    4    6      0.00      0.00
   16    4    5     -0.52      0.00
   16    4    4      2.88      0.00
   16    4    3      0.04      0.00
   16    4    2      0.56      0.00
   16    3   12     -1.54      0.00
   16    3   11      0.03      0.00
   16    3   10      1.51      0.00
   16    3    9     -1.52      0.00
   16    3    8      0.78      0.00
   16    3    7      1.05      0.00
   16    3    6      0.48      0.00
   16    3    5      0.19      0.00
   16    3    4      1.88      0.00
   16    3    3     -0.57      0.00
   16    3    2      0.19      0.00
   16    2   12     -2.39      0.00
   16    2   11      1.75      0.00
   16    2   10      0.80      0.00
   16    2    9     -1.47      0.00
   16    2    8      1.86      0.00
   16    2    7      0.31      0.00
   16    2    6      0.35      0.00
   16    2    5     -0.58      0.00
   16    2    4      0.76      0.00
   16    2    3     -0.57      0.00
   16    2    2     -0.17      0.00
   16    1   12     -1.06      0.00
   16    1   11      2.15      0.00
   16    1   10     -0.45      0.00
   16    1    9      0.07      0.00
   16    1    8      1.91      0.00
   16    1    7     -1.09      0.00
   16    1    6     -0.40      0.00
   16    1    5     -0.34      0.00
   16    1    4      0.46      0.00
   16    1    3     -0.04      0.00
   16    1    2     -1.19      0.00
   16    1    1     -2.43      0.00
   16    0   11      0.77      0.00
   16    0   10     -0.35      0.00
   16    0    9      1.29      0.00
   16    0    8      1.05      0.00
   16    0    7     -2.41      0.00
   16    0    6     -0.27      0.00
   16    0    5      1.17      0.00
   16    0    4     -0.13      0.00
   16    0    3     -0.11      0.00
   16    0    2     -2.37      0.00
   16    0    1     -0.21      0.00
   16   -1   14      1.15      0.00
   16   -1   13      0.88      0.00
   16   -1   11     -0.51      0.00
   16   -1   10      0.72      0.00
   16   -1    9      0.86      0.00
   16   -1    8      0.13      0.00
   16   -1    7     -2.97      0.00
   16   -1    6      0.54      0.00
   16   -1    5      1.62      0.00
   16   -1    4     -1.40      0.00
   16   -1    3     -0.83      0.00
   16   -1    2     -1.80      0.00
   16   -1    1      2.59      0.00
   16   -2   13     -0.44      0.00
   16   -2   12     -0.89      0.00
   16   -2   11      0.03      0.00
   16   -2   10      1.07      0.00
   16   -2    9     -0.44      0.00
   16   -2    8     -0.48      0.00
   16   -2    7     -2.62      0.00
   16   -2    6      0.77      0.00
   16   -2    5      0.87      0.00
   16   -2    4     -1.61      0.00
   16   -2    3     -0.88      0.00
   16   -2    2      0.87      0.00
   16   -2    1      3.03      0.00
   16   -3   12     -0.67      0.00
   16   -3   10      0.11      0.00
   16   -3    9     -1.10      0.00
   16   -3    8     -0.73      0.00
   16   -3    7     -1.28      0.00
   16   -3    6      0.64      0.00
   16   -3    5      0.74      0.00
   16   -3    4     -0.24      0.00
   16   -3    3     -0.41      0.00
   16   -3    2      2.93      0.00
   16   -4    9     -0.60      0.00
   16   -4    8     -0.38      0.00
   16   -4    7      0.38      0.00
   16   -4    6      0.67      0.00
   16   -4    4      0.77      0.00
   16   -4    3     -0.79      0.00
   16   -4    2      2.46      0.00
   16   -5    9      0.19      0.00
   16   -5    8      0.10      0.00
   16   -5    7      0.85      0.00
   16   -5    6      0.37      0.00
   16   -5    4      0.65      0.00
   16   -5    3     -1.59      0.00
   16   -5    2      1.09      0.00
   16   -6    3     -1.42      0.00
   15   12   13     -0.10      0.00
   15   11   14     -0.60      0.00
   15   11   13      0.70      0.00
   15   11   12      1.35      0.00
   15   11    6     -0.93      0.00
   15   10   14     -1.68      0.00
   15   10   13      0.56      0.00
   15   10   12      0.20      0.00
   15   10   11      1.17      0.00
   15   10    7      1.33      0.00
   15   10    6     -1.31      0.00
   15   10    5      1.59      0.00
   15    9   14     -2.18      0.00
   15    9   13      0.61      0.00
   15    9   12     -0.50      0.00
   15    9   11      0.33      0.00
   15    9    8      0.64      0.00
   15    9    7      0.32      0.00
   15    9    6     -0.54      0.00
   15    9    5      0.93      0.00
   15    9    4     -0.74      0.00
   15    8   14      0.39      0.00
   15    8   13      0.52      0.00
   15    8   12     -0.01      0.00
   15    8   11      0.25      0.00
   15    8   10      0.32      0.00
   15    8    9      0.02      0.00
   15    8    8      0.54      0.00
   15    8    7     -1.03      0.00
   15    8    6      1.05      0.00
   15    8    5     -0.58      0.00
   15    8    4     -0.04      0.00
   15    8    3      0.47      0.00
   15    7   14      3.40      0.00
   15    7   13     -1.63      0.00
   15    7   12      0.92      0.00
   15    7   11     -0.81      0.00
   15    7   10      0.26      0.00
   15    7    9     -0.37      0.00
   15    7    8     -0.36      0.00
   15    7    7     -0.70      0.00
   15    7    6      1.56      0.00
   15    7    5     -1.67      0.00
   15    7    4      0.90      0.00
   15    7    3      0.64      0.00
   15    7    2     -0.65      0.00
   15    6   14      2.89      0.00
   15    6   13     -4.45      0.00
   15    6   12      1.78      0.00
   15    6   11     -2.48      0.00
   15    6   10      0.18      0.00
   15    6    9      0.30      0.00
   15    6    8     -0.72      0.00
   15    6    7      0.52      0.00
   15    6    6      0.41      0.00
   15    6    5     -1.20      0.00
   15    6    4      1.30      0.00
   15    6    3      0.21      0.00
   15    6    2     -1.24      0.00
   15    5   14      0.42      0.00
   15    5   13     -4.22      0.00
   15    5   12      2.01      0.00
   15    5   11     -2.50      0.00
   15    5   10      1.32      0.00
   15    5    9      0.74      0.00
   15    5    8     -0.18      0.00
   15    5    7      0.88      0.00
   15    5    6     -0.37      0.00
   15    5    5      0.21      0.00
   15    5    4      1.30      0.00
   15    5    3     -0.36      0.00
   15    5    2     -0.82      0.00
   15    5    1     -0.44      0.00
   15    4   14     -0.21      0.00
   15    4   13     -1.48      0.00
   15    4   12      0.69      0.00
   15    4   11     -0.23      0.00
   15    4   10      1.69      0.00
   15    4    9     -0.03      0.00
   15    4    8      0.89      0.00
   15    4    7      0.29      0.00
   15    4    6      0.11      0.00
   15    4    5      0.33      0.00
   15    4    4      0.84      0.00
   15    4    3     -1.26      0.00
   15    4    2      0.04      0.00
   15    4    1     -0.59      0.00
   15    3   14      0.39      0.00
   15    3   13      0.12      0.00
   15    3   12     -1.12      0.00
   15    3   11      2.67      0.00
   15    3   10      0.19      0.00
   15    3    9     -0.77      0.00
   15    3    8      1.54      0.00
   15    3    7     -0.58      0.00
   15    3    6      0.15      0.00
   15    3    5     -1.09      0.00
   15    3    4      0.24      0.00
   15    3    3     -1.54      0.00
   15    3    2      0.45      0.00
   15    3    1     -1.56      0.00
   15    3    0      1.96      0.00
   15    2   14     -0.01      0.00
   15    2   13      0.47      0.00
   15    2   12     -1.12      0.00
   15    2   11      3.96      0.00
   15    2   10     -1.68      0.00
   15    2    9     -0.76      0.00
   15    2    8      0.96      0.00
   15    2    7     -1.24      0.00
   15    2    6     -0.48      0.00
   15    2    5     -1.44      0.00
   15    2    4      0.33      0.00
   15    2    3     -0.24      0.00
   15    2    2     -0.25      0.00
   15    2    1     -1.58      0.00
   15    2    0      2.55      0.00
   15    1   16     -1.47      0.00
   15    1   15      1.49      0.00
   15    1   14     -0.53      0.00
   15    1   13      1.48      0.00
   15    1   12     -0.03      0.00
   15    1   11      2.46      0.00
   15    1   10     -2.29      0.00
   15    1    9     -0.73      0.00
   15    1    8     -0.11      0.00
   15    1    7     -1.15      0.00
   15    1    6      0.14      0.00
   15    1    5     -0.10      0.00
   15    1    4      0.57      0.00
   15    1    3      0.92      0.00
   15    1    2     -1.85      0.00
   15    1    1      0.06      0.00
   15    1    0      2.89      0.00
   15    0   15      2.11      0.00
   15    0   14      0.08      0.00
   15    0   13      1.69      0.00
   15    0   12     -0.36      0.00
   15    0   11     -0.27      0.00
   15    0   10     -1.43      0.00
   15    0    9     -0.78      0.00
   15    0    8     -0.41      0.00
   15    0    7     -0.45      0.00
   15    0    6      1.84      0.00
   15    0    5      0.27      0.00
   15    0    4     -0.20      0.00
   15    0    3      0.34      0.00
   15    0    2     -2.34      0.00
   15    0    1      2.12      0.00
   15    0    0      1.80      0.00
   15   -1   15      1.37      0.00
   15   -1   14      0.58      0.00
   15   -1   13     -0.54      0.00
   15   -1   12     -1.10      0.00
   15   -1   11     -1.19      0.00
   15   -1   10     -0.03      0.00
   15   -1    9     -0.45      0.00
   15   -1    8     -0.36      0.00
   15   -1    7      0.02      0.00
   15   -1    6      2.51      0.00
   15   -1    5     -0.91      0.00
   15   -1    4     -1.15      0.00
   15   -1    3     -0.33      0.00
   15   -1    2     -0.29      0.00
   15   -1    1      2.62      0.00
  -15    1    0     -0.13      0.00
   15   -2   14      0.22      0.00
   15   -2   13     -2.50      0.00
   15   -2   12      0.31      0.00
   15   -2   11     -0.15      0.00
   15   -2   10      0.37      0.00
   15   -2    9     -0.14      0.00
   15   -2    8     -0.70      0.00
   15   -2    7      0.40      0.00
   15   -2    6      1.98      0.00
   15   -2    5     -1.22      0.00
   15   -2    4     -1.09      0.00
   15   -2    3      0.41      0.00
   15   -2    2      2.10      0.00
   15   -2    1      0.56      0.00
  -15    2    0     -1.38      0.00
   15   -3   13     -1.61      0.00
   15   -3   12      2.33      0.00
   15   -3   11      0.22      0.00
   15   -3   10     -0.47      0.00
   15   -3    9     -0.01      0.00
   15   -3    8     -0.61      0.00
   15   -3    7      1.19      0.00
   15   -3    6      1.27      0.00
   15   -3    5     -0.41      0.00
   15   -3    4     -0.85      0.00
   15   -3    3      1.08      0.00
   15   -3    2      2.08      0.00
   15   -3    1     -2.35      0.00
  -15    3    0     -0.74      0.00
   15   -4   12      1.91      0.00
   15   -4   11     -0.53      0.00
   15   -4   10     -0.88      0.00
   15   -4    9      0.22      0.00
   15   -4    8      0.21      0.00
   15   -4    7      1.36      0.00
   15   -4    6      0.33      0.00
   15   -4    5     -0.51      0.00
   15   -4    4     -0.96      0.00
   15   -4    3      0.63      0.00
   15   -4    2      0.84      0.00
   15   -4    1     -3.21      0.00
  -15    4    0      1.32      0.00
   15   -5   11     -0.34      0.00
   15   -5   10     -0.22      0.00
   15   -5    9      0.09      0.00
   15   -5    8      0.49      0.00
   15   -5    7      0.28      0.00
   15   -5    6     -0.55      0.00
   15   -5    5     -1.22      0.00
   15   -5    4     -0.16      0.00
   15   -5    3      0.22      0.00
   15   -5    2      0.69      0.00
   15   -5    1     -1.95      0.00
  -15    5    0      2.43      0.00
   15   -6   10      0.07      0.00
   15   -6    9     -0.73      0.00
   15   -6    8     -0.02      0.00
   15   -6    7     -0.43      0.00
   15   -6    6     -0.23      0.00
   15   -6    5     -0.90      0.00
   15   -6    4      1.33      0.00
   15   -6    3      0.19      0.00
   15   -6    2      0.85      0.00
   15   -6    1     -1.04      0.00
   15   -7    4      1.37      0.00
   15   -7    3     -0.17      0.00
   15   -7    2      0.04      0.00
   14   13   15      0.78      0.00
   14   13   14     -0.72      0.00
   14   12   16      1.98      0.00
   14   12   15      0.48      0.00
   14   12   14      0.27      0.00
   14   12   13      1.79      0.00
   14   11   16      4.09      0.00
   14   11   15     -0.84      0.00
   14   11   14     -0.29      0.00
   14   11   13      1.04      0.00
   14   11   12     -1.09      0.00
   14   11    5      0.55      0.00
   14   11    4     -1.27      0.00
   14   10   16      2.76      0.00
   14   10   15     -3.49      0.00
   14   10   14     -1.50      0.00
   14   10   13      0.82      0.00
   14   10   12     -1.15      0.00
   14   10   11     -0.46      0.00
   14   10    7      0.60      0.00
   14   10    6     -0.72      0.00
   14   10    5      0.62      0.00
   14   10    4     -1.72      0.00
   14   10    3     -0.57      0.00
   14    9   16     -0.52      0.00
   14    9   15     -3.89      0.00
   14    9   14      0.00      0.00
   14    9   13      1.68      0.00
   14    9   12     -0.13      0.00
   14    9   11      0.10      0.00
   14    9   10     -0.63      0.00
   14    9    8     -0.01      0.00
   14    9    7     -0.63      0.00
   14    9    6      0.29      0.00
   14    9    5      0.17      0.00
   14    9    4     -0.31      0.00
   14    9    3      0.08      0.00
   14    9    2      2.70      0.00
   14    8   16     -0.95      0.00
   14    8   15     -0.39      0.00
   14    8   14      2.38      0.00
   14    8   13      0.49      0.00
   14    8   12      0.64      0.00
   14    8   11     -0.62      0.00
   14    8   10      0.03      0.00
   14    8    9      0.12      0.00
   14    8    8      0.04      0.00
   14    8    7     -0.21      0.00
   14    8    6      0.82      0.00
   14    8    5     -0.38      0.00
   14    8    4      0.73      0.00
   14    8    3     -0.42      0.00
   14    8    2      1.26      0.00
   14    7   16      1.65      0.00
   14    7   15      2.45      0.00
   14    7   14      0.87      0.00
   14    7   13     -2.87      0.00
   14    7   12      1.37      0.00
   14    7   11     -2.20      0.00
   14    7   10      1.01      0.00
   14    7    9     -0.57      0.00
   14    7    8      0.35      0.00
   14    7    7      0.60      0.00
   14    7    6     -0.27      0.00
   14    7    5     -0.38      0.00
   14    7    4      0.28      0.00
   14    7    3     -0.91      0.00
   14    7    2     -0.62      0.00
   14    7    1      0.09      0.00
   14    6   16      2.78      0.00
   14    6   15      0.91      0.00
   14    6   14     -2.82      0.00
   14    6   13     -3.74      0.00
   14    6   12      2.94      0.00
   14    6   11     -2.42      0.00
   14    6   10      2.81      0.00
   14    6    9     -0.61      0.00
   14    6    8      0.22      0.00
   14    6    7      0.38      0.00
   14    6    6     -0.89      0.00
   14    6    5      0.34      0.00
   14    6    4     -0.12      0.00
   14    6    3     -0.28      0.00
   14    6    2     -0.78      0.00
   14    6    1      1.91      0.00
   14    6    0     -0.20      0.00
   14    5   16      0.82      0.00
   14    5   15     -1.79      0.00
   14    5   14     -3.03      0.00
   14    5   13     -0.95      0.00
   14    5   12      3.67      0.00
   14    5   11     -1.30      0.00
   14    5   10      2.91      0.00
   14    5    9     -0.93      0.00
   14    5    8     -0.15      0.00
   14    5    7     -0.23      0.00
   14    5    6      0.16      0.00
   14    5    5      0.32      0.00
   14    5    4      0.19      0.00
   14    5    3     -0.17      0.00
   14    5    2     -0.04      0.00
   14    5    1      1.86      0.00
   14    5    0     -0.02      0.00
   14    4   15     -1.54      0.00
   14    4   14     -0.22      0.00
   14    4   13      1.05      0.00
   14    4   12      2.04      0.00
   14    4   11      0.02      0.00
   14    4   10      0.62      0.00
   14    4    9     -0.61      0.00
   14    4    8     -0.35      0.00
   14    4    7     -0.60      0.00
   14    4    6      0.76      0.00
   14    4    5     -0.99      0.00
   14    4    4      0.61      0.00
   14    4    3     -1.10      0.00
   14    4    2      0.45      0.00
   14    4    1     -0.04      0.00
   14    4    0     -0.07      0.00
  -14   -4    1     -2.68      0.00
   14    3   18      0.09      0.00
   14    3   17     -0.58      0.00
   14    3   16     -1.37      0.00
   14    3   15      0.49      0.00
   14    3   14      0.84      0.00
   14    3   13      0.62      0.00
   14    3   12      0.04      0.00
   14    3   11      1.32      0.00
   14    3   10     -2.00      0.00
   14    3    9      0.34      0.00
   14    3    8     -0.57      0.00
   14    3    7     -0.90      0.00
   14    3    6      0.01      0.00
   14    3    5     -1.35      0.00
   14    3    4      1.27      0.00
   14    3    3     -1.21      0.00
   14    3    2      0.51      0.00
   14    3    1     -0.82      0.00
   14    3    0      1.03      0.00
  -14   -3    1     -2.49      0.00
   14    2   17     -1.44      0.00
   14    2   16      0.18      0.00
   14    2   15      1.42      0.00
   14    2   14     -0.25      0.00
   14    2   13      0.63      0.00
   14    2   12     -0.59      0.00
   14    2   11      1.75      0.00
   14    2   10     -3.51      0.00
   14    2    9      0.64      0.00
   14    2    8     -0.16      0.00
   14    2    7     -0.66      0.00
   14    2    6     -0.15      0.00
   14    2    5      0.12      0.00
   14    2    4      1.87      0.00
   14    2    3     -0.64      0.00
   14    2    2     -0.21      0.00
   14    2    1      0.33      0.00
   14    2    0      2.01      0.00
  -14   -2    1     -1.78      0.00
  -14   -2    2      2.48      0.00
   14    1   16      2.06      0.00
   14    1   15      0.86      0.00
   14    1   14     -0.68      0.00
   14    1   13      1.18      0.00
   14    1   12     -1.11      0.00
   14    1   11      0.51      0.00
   14    1   10     -3.29      0.00
   14    1    9      0.61      0.00
   14    1    8      1.51      0.00
   14    1    7      0.06      0.00
   14    1    6      0.48      0.00
   14    1    5      0.66      0.00
   14    1    4      1.25      0.00
   14    1    3     -1.06      0.00
   14    1    2     -0.92      0.00
   14    1    1      1.92      0.00
   14    1    0      1.62      0.00
  -14   -1    1     -1.76      0.00
  -14   -1    2      1.37      0.00
   14    0   16      2.87      0.00
   14    0   15     -0.33      0.00
   14    0   14     -0.38      0.00
   14    0   13      0.00      0.00
   14    0   12     -1.58      0.00
   14    0   11     -0.83      0.00
   14    0   10     -0.95      0.00
   14    0    9      0.99      0.00
   14    0    8      2.65      0.00
   14    0    7      0.14      0.00
   14    0    6      0.06      0.00
   14    0    5     -0.93      0.00
   14    0    4      0.09      0.00
   14    0    3     -1.35      0.00
   14    0    2      0.05      0.00
   14    0    1      2.58      0.00
   14    0    0      0.31      0.00
  -14    0    1     -2.10      0.00
  -14    0    2     -0.55      0.00
   14   -1   16      1.75      0.00
   14   -1   15     -1.29      0.00
   14   -1   14     -0.46      0.00
   14   -1   13     -1.50      0.00
   14   -1   12     -0.13      0.00
   14   -1   11     -0.79      0.00
   14   -1   10      1.77      0.00
   14   -1    9      0.74      0.00
   14   -1    8      1.48      0.00
   14   -1    7     -0.20      0.00
   14   -1    6     -1.12      0.00
   14   -1    5     -1.90      0.00
   14   -1    4      0.16      0.00
   14   -1    3      0.36      0.00
   14   -1    2      1.60      0.00
   14   -1    1      1.44      0.00
  -14    1    0     -1.14      0.00
  -14    1    1     -1.85      0.00
  -14    1    2     -1.57      0.00
   14   -2   15     -0.79      0.00
   14   -2   14     -0.26      0.00
   14   -2   13     -0.65      0.00
   14   -2   12      1.94      0.00
   14   -2   11     -0.78      0.00
   14   -2   10      2.26      0.00
   14   -2    9     -0.45      0.00
   14   -2    8     -0.22      0.00
   14   -2    7      0.41      0.00
   14   -2    6     -1.39      0.00
   14   -2    5     -0.96      0.00
   14   -2    4      0.88      0.00
   14   -2    3      2.41      0.00
   14   -2    2      0.80      0.00
   14   -2    1     -0.93      0.00
  -14    2    0     -1.72      0.00
  -14    2    1     -0.75      0.00
  -14    2    2     -1.43      0.00
   14   -3   15      1.01      0.00
   14   -3   14      0.23      0.00
   14   -3   13      0.88      0.00
   14   -3   12      1.44      0.00
   14   -3   11     -1.63      0.00
   14   -3   10      1.08      0.00
   14   -3    9     -0.80      0.00
   14   -3    8     -0.26      0.00
   14   -3    7      1.19      0.00
   14   -3    6     -1.12      0.00
   14   -3    5     -0.19      0.00
   14   -3    4      0.74      0.00
   14   -3    3      2.40      0.00
   14   -3    2     -1.76      0.00
   14   -3    1     -2.14      0.00
  -14    3    0     -0.52      0.00
  -14    3    1      0.29      0.00
  -14    3    2     -0.86      0.00
   14   -4   12     -0.62      0.00
   14   -4   11     -1.47      0.00
   14   -4   10      0.41      0.00
   14   -4    9      0.09      0.00
   14   -4    8      0.24      0.00
   14   -4    7      0.55      0.00
   14   -4    6     -1.13      0.00
   14   -4    5     -0.42      0.00
   14   -4    4      0.60      0.00
   14   -4    3      1.09      0.00
   14   -4    2     -2.72      0.00
   14   -4    1     -1.21      0.00
  -14    4    0      1.49      0.00
  -14    4    1      0.01      0.00
  -14    4    2     -0.26      0.00
   14   -5   12     -0.90      0.00
   14   -5   11      0.14      0.00
   14   -5   10     -0.04      0.00
   14   -5    9      0.48      0.00
   14   -5    8     -0.12      0.00
   14   -5    7     -0.37      0.00
   14   -5    6     -0.69      0.00
   14   -5    5     -0.34      0.00
   14   -5    4      1.56      0.00
   14   -5    3     -0.24      0.00
   14   -5    2     -1.72      0.00
   14   -5    1     -0.16      0.00
  -14    5    0      2.39      0.00
  -14    5    1     -1.36      0.00
   14   -6   11      0.88      0.00
   14   -6   10     -1.27      0.00
   14   -6    9      0.15      0.00
   14   -6    8     -0.17      0.00
   14   -6    7      0.24      0.00
   14   -6    6      0.14      0.00
   14   -6    5      0.00      0.00
   14   -6    3     -1.82      0.00
   14   -6    2     -0.80      0.00
   14   -6    1     -0.16      0.00
  -14    6    0      2.27      0.00
  -14    6    1     -2.14      0.00
   14   -7   11      0.16      0.00
   14   -7   10     -1.98      0.00
   14   -7    9      0.36      0.00
   14   -7    8      0.85      0.00
   14   -7    7      1.13      0.00
   14   -7    6     -0.05      0.00
  -14    7    0      2.18      0.00
   13   14   14     -1.38      0.00
   13   13   16      2.39      0.00
   13   13   15     -0.92      0.00
   13   13   14      0.49      0.00
   13   13   13     -0.10      0.00
   13   12   17      1.11      0.00
   13   12   16      3.55      0.00
   13   12   15     -1.98      0.00
   13   12   14      1.17      0.00
   13   12   13     -1.58      0.00
   13   12   12     -0.63      0.00
   13   11   17      2.52      0.00
   13   11   16      1.50      0.00
   13   11   15     -4.00      0.00
   13   11   14      0.40      0.00
   13   11   13     -1.90      0.00
   13   11   12     -0.03      0.00
   13   11   11      0.15      0.00
   13   11    5     -0.90      0.00
   13   11    4      0.32      0.00
   13   11    3      0.33      0.00
   13   10   17      1.09      0.00
   13   10   16     -2.08      0.00
   13   10   15     -4.23      0.00
   13   10   14      1.63      0.00
   13   10   13      0.16      0.00
   13   10   12      0.57      0.00
   13   10   11     -0.05      0.00
   13   10   10      0.79      0.00
   13   10    6     -0.48      0.00
   13   10    5     -0.11      0.00
   13   10    4      0.44      0.00
   13   10    3      1.84      0.00
   13   10    2      1.92      0.00
   13    9   17     -1.61      0.00
   13    9   16     -2.27      0.00
   13    9   15     -1.06      0.00
   13    9   14      4.15      0.00
   13    9   13      0.96      0.00
   13    9   12      0.06      0.00
   13    9   11     -0.43      0.00
   13    9   10      0.92      0.00
   13    9    9      0.73      0.00
   13    9    7      0.21      0.00
   13    9    6      0.22      0.00
   13    9    5      0.39      0.00
   13    9    4      0.19      0.00
   13    9    3      1.25      0.00
   13    9    2      0.61      0.00
   13    9    1     -3.60      0.00
   13    8   17     -2.28      0.00
   13    8   16      1.05      0.00
   13    8   15      1.40      0.00
   13    8   14      3.02      0.00
   13    8   13     -1.22      0.00
   13    8   12     -0.74      0.00
   13    8   11     -1.26      0.00
   13    8   10      0.59      0.00
   13    8    9      0.05      0.00
   13    8    8     -0.21      0.00
   13    8    7      0.27      0.00
   13    8    6     -0.52      0.00
   13    8    5      0.33      0.00
   13    8    4     -0.92      0.00
   13    8    3     -0.23      0.00
   13    8    2     -0.69      0.00
   13    8    1     -3.21      0.00
   13    8    0     -0.86      0.00
   13    7   17     -0.96      0.00
   13    7   16      2.69      0.00
   13    7   15     -0.40      0.00
   13    7   14     -1.23      0.00
   13    7   13     -1.79      0.00
   13    7   12      0.32      0.00
   13    7   11     -1.08      0.00
   13    7   10      1.38      0.00
   13    7    9     -0.21      0.00
   13    7    8      0.49      0.00
   13    7    7     -0.63      0.00
   13    7    6     -0.78      0.00
   13    7    5      0.42      0.00
   13    7    4     -1.06      0.00
   13    7    3     -0.25      0.00
   13    7    2      0.09      0.00
   13    7    1      0.00      0.00
   13    7    0      0.20      0.00
  -13   -7    1      3.36      0.00
   13    6   17     -0.08      0.00
   13    6   16      0.56      0.00
   13    6   15     -2.89      0.00
   13    6   14     -2.53      0.00
   13    6   13      1.78      0.00
   13    6   12      1.88      0.00
   13    6   11     -0.74      0.00
   13    6   10      1.62      0.00
   13    6    9     -1.01      0.00
   13    6    8      0.36      0.00
   13    6    7     -0.87      0.00
   13    6    6      0.55      0.00
   13    6    5      0.15      0.00
   13    6    4      0.00      0.00
   13    6    3     -0.04      0.00
   13    6    2      1.21      0.00
   13    6    1      1.35      0.00
   13    6    0     -1.05      0.00
  -13   -6    1      2.05      0.00
   13    5   19      0.70      0.00
   13    5   18     -0.65      0.00
   13    5   17     -0.47      0.00
   13    5   16     -1.64      0.00
   13    5   15     -1.53      0.00
   13    5   14      0.04      0.00
   13    5   13      4.56      0.00
   13    5   12      0.81      0.00
   13    5   11     -1.44      0.00
   13    5   10      0.72      0.00
   13    5    9     -1.23      0.00
   13    5    8     -0.15      0.00
   13    5    7      0.15      0.00
   13    5    6      1.16      0.00
   13    5    5     -1.10      0.00
   13    5    4      0.70      0.00
   13    5    3     -1.05      0.00
   13    5    2      1.32      0.00
   13    5    1     -0.09      0.00
   13    5    0     -2.21      0.00
  -13   -5    1      0.39      0.00
  -13   -5    2     -0.25      0.00
   13    4   18     -0.36      0.00
   13    4   17     -1.19      0.00
   13    4   16     -0.92      0.00
   13    4   15      1.49      0.00
   13    4   14      1.39      0.00
   13    4   13      2.75      0.00
   13    4   12     -1.57      0.00
   13    4   11     -1.53      0.00
   13    4   10      0.14      0.00
   13    4    9     -0.43      0.00
   13    4    8     -0.98      0.00
   13    4    7      1.05      0.00
   13    4    6      0.02      0.00
   13    4    5     -1.53      0.00
   13    4    4      0.89      0.00
   13    4    3     -1.64      0.00
   13    4    2      1.36      0.00
   13    4    1     -1.02      0.00
   13    4    0     -1.02      0.00
  -13   -4    1      0.16      0.00
  -13   -4    2      1.67      0.00
   13    3   18      0.28      0.00
   13    3   17     -1.47      0.00
   13    3   16      1.47      0.00
   13    3   15      1.67      0.00
   13    3   14      0.14      0.00
   13    3   13     -0.32      0.00
   13    3   12     -1.61      0.00
   13    3   11     -0.11      0.00
   13    3   10     -0.23      0.00
   13    3    9      0.24      0.00
   13    3    8     -1.33      0.00
   13    3    7      1.20      0.00
   13    3    6     -0.52      0.00
   13    3    5      0.07      0.00
   13    3    4      0.94      0.00
   13    3    3     -1.06      0.00
   13    3    2      1.50      0.00
   13    3    1     -0.30      0.00
   13    3    0      0.63      0.00
  -13   -3    1      0.15      0.00
  -13   -3    2      2.76      0.00
  -13   -3    3     -0.86      0.00
   13    2   17     -0.98      0.00
   13    2   16      3.03      0.00
   13    2   15     -0.81      0.00
   13    2   14     -0.40      0.00
   13    2   13     -1.17      0.00
   13    2   12      0.14      0.00
   13    2   11      0.62      0.00
   13    2   10     -1.08      0.00
   13    2    9      0.76      0.00
   13    2    8     -0.14      0.00
   13    2    7      0.51      0.00
   13    2    6      0.33      0.00
   13    2    5      1.30      0.00
   13    2    4      0.17      0.00
   13    2    3     -0.89      0.00
   13    2    2      1.18      0.00
   13    2    1      0.44      0.00
   13    2    0      0.48      0.00
  -13   -2    1     -0.88      0.00
  -13   -2    2      1.71      0.00
  -13   -2    3     -2.52      0.00
   13    1   17      0.15      0.00
   13    1   16      2.65      0.00
   13    1   15     -2.89      0.00
   13    1   14      0.54      0.00
   13    1   13     -1.01      0.00
   13    1   12      0.90      0.00
   13    1   11     -0.19      0.00
   13    1   10     -0.88      0.00
   13    1    9      1.63      0.00
   13    1    8      1.25      0.00
   13    1    7     -1.42      0.00
   13    1    6      0.72      0.00
   13    1    5      0.54      0.00
   13    1    4     -0.81      0.00
   13    1    3     -0.99      0.00
   13    1    2      1.10      0.00
   13    1    1      0.40      0.00
   13    1    0     -0.76      0.00
  -13   -1    1     -1.98      0.00
  -13   -1    2      0.43      0.00
  -13   -1    3     -2.12      0.00
   13    0   16      0.69      0.00
   13    0   15     -3.08      0.00
   13    0   14      1.02      0.00
   13    0   13     -0.82      0.00
   13    0   12      0.73      0.00
   13    0   11     -0.51      0.00
   13    0   10      0.97      0.00
   13    0    9      1.36      0.00
   13    0    8      0.73      0.00
   13    0    7     -3.29      0.00
   13    0    6      0.32      0.00
   13    0    5      0.00      0.00
   13    0    4     -0.20      0.00
   13    0    3      0.03      0.00
   13    0    2      1.18      0.00
   13    0    1     -0.29      0.00
   13    0    0     -1.67      0.00
  -13    0    1     -1.84      0.00
  -13    0    2      0.46      0.00
  -13    0    3      0.51      0.00
   13   -1   15     -1.53      0.00
   13   -1   14      0.83      0.00
   13   -1   13      0.18      0.00
   13   -1   12      0.47      0.00
   13   -1   11      0.16      0.00
   13   -1   10      1.93      0.00
   13   -1    9     -0.79      0.00
   13   -1    8     -0.47      0.00
   13   -1    7     -2.70      0.00
   13   -1    6      0.28      0.00
   13   -1    5      1.18      0.00
   13   -1    4      1.33      0.00
   13   -1    3      0.93      0.00
   13   -1    2     -0.35      0.00
   13   -1    1     -1.34      0.00
  -13    1    0     -1.77      0.00
  -13    1    1     -0.50      0.00
  -13    1    2      1.07      0.00
  -13    1    3      2.69      0.00
  -13    1    4      0.78      0.00
   13   -2   16     -1.15      0.00
   13   -2   15      0.73      0.00
   13   -2   14      0.51      0.00
   13   -2   13      1.02      0.00
   13   -2   12     -0.56      0.00
   13   -2   11      0.53      0.00
   13   -2   10      0.84      0.00
   13   -2    9     -2.15      0.00
   13   -2    8     -0.15      0.00
   13   -2    7     -0.35      0.00
   13   -2    6      0.08      0.00
   13   -2    5      2.13      0.00
   13   -2    4      1.34      0.00
   13   -2    3     -0.12      0.00
   13   -2    2     -3.09      0.00
   13   -2    1     -1.30      0.00
  -13    2    0     -0.69      0.00
  -13    2    1      1.16      0.00
  -13    2    2      1.25      0.00
  -13    2    3      2.86      0.00
  -13    2    4     -1.00      0.00
   13   -3   15      1.83      0.00
   13   -3   14     -0.56      0.00
   13   -3   13      0.36      0.00
   13   -3   12     -1.78      0.00
   13   -3   11      0.83      0.00
   13   -3   10     -0.24      0.00
   13   -3    9     -0.99      0.00
   13   -3    8      0.51      0.00
   13   -3    7      0.73      0.00
   13   -3    6     -0.89      0.00
   13   -3    5      1.57      0.00
   13   -3    4      0.05      0.00
   13   -3    3     -1.71      0.00
   13   -3    2     -3.75      0.00
   13   -3    1      0.84      0.00
  -13    3    0      1.11      0.00
  -13    3    1      1.85      0.00
  -13    3    2      1.02      0.00
  -13    3    3      1.55      0.00
  -13    3    4     -1.77      0.00
   13   -4   14     -1.84      0.00
   13   -4   13     -0.30      0.00
   13   -4   12     -1.33      0.00
   13   -4   11      1.46      0.00
   13   -4   10     -0.37      0.00
   13   -4    9      0.52      0.00
   13   -4    8     -0.33      0.00
   13   -4    7      0.33      0.00
   13   -4    6     -1.29      0.00
   13   -4    5      0.79      0.00
   13   -4    4     -0.29      0.00
   13   -4    3     -1.93      0.00
   13   -4    2     -1.38      0.00
   13   -4    1      2.96      0.00
  -13    4    0      1.97      0.00
  -13    4    1      0.66      0.00
  -13    4    2      0.82      0.00
  -13    4    3     -0.40      0.00
   13   -5   14     -1.59      0.00
   13   -5   13      0.33      0.00
   13   -5   12      0.06      0.00
   13   -5   11      1.10      0.00
   13   -5   10     -0.60      0.00
   13   -5    9      0.69      0.00
   13   -5    8     -1.17      0.00
   13   -5    7      0.52      0.00
   13   -5    6     -0.61      0.00
   13   -5    5      0.55      0.00
   13   -5    4      0.50      0.00
   13   -5    2      1.42      0.00
   13   -5    1      2.60      0.00
  -13    5    0      1.38      0.00
  -13    5    1     -1.78      0.00
  -13    5    2      1.07      0.00
  -13    5    3     -2.22      0.00
   13   -6   13      0.76      0.00
   13   -6   12      0.23      0.00
   13   -6   11     -0.39      0.00
   13   -6   10     -0.69      0.00
   13   -6    9      0.83      0.00
   13   -6    8     -0.24      0.00
   13   -6    7      0.89      0.00
   13   -6    6     -0.50      0.00
   13   -6    5      0.27      0.00
   13   -6    4      0.79      0.00
  -13    6    1     -3.60      0.00
  -13    6    2      1.91      0.00
  -13    6    3     -2.83      0.00
   13   -7   12     -0.45      0.00
   13   -7   11     -0.89      0.00
   13   -7   10      0.08      0.00
   13   -7    9      1.56      0.00
   13   -7    8      0.94      0.00
   13   -7    7     -0.46      0.00
   13   -7    6     -1.29      0.00
   13   -7    5      0.06      0.00
   13   -7    4      0.42      0.00
  -13    7    2      2.63      0.00
   13   -8   11      0.18      0.00
   13   -8   10      0.44      0.00
   13   -8    9      1.59      0.00
   12   14   14      1.21      0.00
   12   13   16      0.65      0.00
   12   13   15     -1.14      0.00
   12   13   14      1.66      0.00
   12   13   13     -1.87      0.00
   12   12   18      0.38      0.00
   12   12   17      3.44      0.00
   12   12   16     -1.25      0.00
   12   12   15     -2.14      0.00
   12   12   14      0.43      0.00
   12   12   13     -2.24      0.00
   12   12   12      3.03      0.00
   12   11   18      0.56      0.00
   12   11   17      1.88      0.00
   12   11   16     -3.55      0.00
   12   11   15     -2.27      0.00
   12   11   14      0.81      0.00
   12   11   13     -0.18      0.00
   12   11   12      2.62      0.00
   12   11   11     -1.34      0.00
   12   11    4      1.54      0.00
   12   11    3     -0.64      0.00
   12   11    2      0.88      0.00
   12   11    1      0.09      0.00
   12   10   18      0.49      0.00
   12   10   17     -0.99      0.00
   12   10   16     -2.61      0.00
   12   10   15     -0.03      0.00
   12   10   14      3.17      0.00
   12   10   13      0.84      0.00
   12   10   12      0.97      0.00
   12   10   11     -0.66      0.00
   12   10   10      0.88      0.00
   12   10    5      0.88      0.00
   12   10    4      0.68      0.00
   12   10    3      0.07      0.00
   12   10    2     -1.51      0.00
   12   10    1     -1.89      0.00
   12   10    0      0.06      0.00
   12    9   18      0.24      0.00
   12    9   17     -2.04      0.00
   12    9   16      1.08      0.00
   12    9   15      1.80      0.00
   12    9   14      3.42      0.00
   12    9   13     -1.61      0.00
   12    9   12     -0.75      0.00
   12    9   11     -0.48      0.00
   12    9   10      0.35      0.00
   12    9    9     -0.62      0.00
   12    9    6     -0.42      0.00
   12    9    5      0.41      0.00
   12    9    4     -1.12      0.00
   12    9    3     -0.18      0.00
   12    9    2     -2.84      0.00
   12    9    1     -1.59      0.00
   12    9    0      2.51      0.00
  -12   -9    1      0.63      0.00
   12    8   17     -1.07      0.00
   12    8   16      3.08      0.00
   12    8   15      0.31      0.00
   12    8   14      0.75      0.00
   12    8   13     -3.69      0.00
   12    8   12     -0.43      0.00
   12    8   11      0.08      0.00
   12    8   10      0.51      0.00
   12    8    9     -0.08      0.00
   12    8    8     -0.87      0.00
   12    8    7      0.41      0.00
   12    8    6     -0.77      0.00
   12    8    5      0.09      0.00
   12    8    4     -1.35      0.00
   12    8    3      0.43      0.00
   12    8    2     -0.99      0.00
   12    8    1      0.57      0.00
   12    8    0      4.02      0.00
  -12   -8    1      1.29      0.00
   12    7   18     -1.18      0.00
   12    7   17     -0.02      0.00
   12    7   16      1.81      0.00
   12    7   15     -1.93      0.00
   12    7   14     -0.37      0.00
   12    7   13     -1.47      0.00
   12    7   12      0.83      0.00
   12    7   11      0.78      0.00
   12    7   10      0.56      0.00
   12    7    9      0.18      0.00
   12    7    8     -0.98      0.00
   12    7    7      0.00      0.00
   12    7    6      0.31      0.00
   12    7    5     -0.03      0.00
   12    7    4      0.10      0.00
   12    7    3      0.85      0.00
   12    7    2      1.42      0.00
   12    7    1      0.72      0.00
   12    7    0      2.30      0.00
  -12   -7    1      0.49      0.00
  -12   -7    2     -2.15      0.00
   12    6   19     -1.12      0.00
   12    6   18     -1.37      0.00
   12    6   17      0.33      0.00
   12    6   16      0.39      0.00
   12    6   15     -1.12      0.00
   12    6   14      1.32      0.00
   12    6   13      1.85      0.00
   12    6   12     -0.47      0.00
   12    6   11      0.37      0.00
   12    6   10     -0.07      0.00
   12    6    9      0.05      0.00
   12    6    8     -0.92      0.00
   12    6    7      0.52      0.00
   12    6    6      0.84      0.00
   12    6    5     -0.88      0.00
   12    6    4      1.06      0.00
   12    6    3     -0.17      0.00
   12    6    2      1.99      0.00
   12    6    1     -1.61      0.00
   12    6    0     -0.21      0.00
  -12   -6    1     -0.21      0.00
  -12   -6    2     -3.09      0.00
  -12   -6    3     -1.32      0.00
   12    5   19     -0.65      0.00
   12    5   18     -0.83      0.00
   12    5   17      0.34      0.00
   12    5   16      1.07      0.00
   12    5   15      1.01      0.00
   12    5   14      1.82      0.00
   12    5   13      1.46      0.00
   12    5   12     -3.55      0.00
   12    5   11      0.07      0.00
   12    5   10      0.11      0.00
   12    5    9     -0.18      0.00
   12    5    8     -0.62      0.00
   12    5    7      1.18      0.00
   12    5    6     -0.53      0.00
   12    5    5     -1.39      0.00
   12    5    4      1.18      0.00
   12    5    3     -0.84      0.00
   12    5    2      1.63      0.00
   12    5    1     -2.89      0.00
   12    5    0     -0.32      0.00
  -12   -5    1      0.65      0.00
  -12   -5    2     -1.48      0.00
  -12   -5    3     -0.16      0.00
   12    4   18     -0.03      0.00
   12    4   17      0.17      0.00
   12    4   16      2.47      0.00
   12    4   15      0.53      0.00
   12    4   14     -0.17      0.00
   12    4   13     -1.08      0.00
   12    4   12     -3.51      0.00
   12    4   11      1.17      0.00
   12    4   10      0.98      0.00
   12    4    9     -0.99      0.00
   12    4    8     -0.05      0.00
   12    4    7      1.44      0.00
   12    4    6     -1.75      0.00
   12    4    5     -0.17      0.00
   12    4    4      1.20      0.00
   12    4    3     -0.02      0.00
   12    4    2      1.22      0.00
   12    4    1     -1.95      0.00
   12    4    0      0.78      0.00
  -12   -4    1      1.50      0.00
  -12   -4    2     -0.11      0.00
  -12   -4    3     -0.36      0.00
  -12   -4    4      1.67      0.00
   12    3   18      0.90      0.00
   12    3   17     -0.12      0.00
   12    3   16      2.59      0.00
   12    3   15     -2.08      0.00
   12    3   14     -1.12      0.00
   12    3   13     -1.64      0.00
   12    3   12      0.28      0.00
   12    3   11      1.40      0.00
   12    3   10      0.62      0.00
   12    3    9     -1.67      0.00
   12    3    8      1.00      0.00
   12    3    7      1.24      0.00
   12    3    6     -1.26      0.00
   12    3    5      1.09      0.00
   12    3    4      0.55      0.00
   12    3    3      0.62      0.00
   12    3    2      0.31      0.00
   12    3    1     -0.90      0.00
   12    3    0      0.50      0.00
  -12   -3    1      0.78      0.00
  -12   -3    2     -0.50      0.00
  -12   -3    3     -1.42      0.00
  -12   -3    4      1.07      0.00
   12    2   17     -0.35      0.00
   12    2   16      1.18      0.00
   12    2   15     -3.38      0.00
   12    2   14      0.34      0.00
   12    2   13     -0.34      0.00
   12    2   12      2.91      0.00
   12    2   11     -0.83      0.00
   12    2   10     -0.40      0.00
   12    2    9     -0.77      0.00
   12    2    8      1.48      0.00
   12    2    7      0.17      0.00
   12    2    6     -0.06      0.00
   12    2    5      0.48      0.00
   12    2    4     -0.74      0.00
   12    2    3      0.41      0.00
   12    2    2     -0.58      0.00
   12    2    1     -0.76      0.00
   12    2    0     -0.55      0.00
  -12   -2    1     -0.21      0.00
  -12   -2    2     -0.64      0.00
  -12   -2    3     -1.06      0.00
  -12   -2    4      1.08      0.00
  -12   -2    5      0.20      0.00
   12    1   17     -0.51      0.00
   12    1   16     -0.82      0.00
   12    1   15     -2.19      0.00
   12    1   14      1.76      0.00
   12    1   13      0.53      0.00
   12    1   12      1.78      0.00
   12    1   11     -2.55      0.00
   12    1   10     -0.11      0.00
   12    1    9      0.71      0.00
   12    1    8      0.30      0.00
   12    1    7     -1.04      0.00
   12    1    6      1.21      0.00
   12    1    5     -0.71      0.00
   12    1    4     -1.08      0.00
   12    1    3      0.39      0.00
   12    1    2     -0.66      0.00
   12    1    1     -0.73      0.00
   12    1    0     -0.43      0.00
  -12   -1    1     -0.04      0.00
  -12   -1    2      0.67      0.00
  -12   -1    3      0.37      0.00
  -12   -1    4      0.77      0.00
  -12   -1    5      0.07      0.00
   12    0   16     -1.99      0.00
   12    0   15      0.02      0.00
   12    0   14      1.81      0.00
   12    0   13      0.46      0.00
   12    0   12     -0.55      0.00
   12    0   11     -1.31      0.00
   12    0   10      0.62      0.00
   12    0    9      0.60      0.00
   12    0    8     -1.09      0.00
   12    0    7     -0.72      0.00
   12    0    6      2.40      0.00
   12    0    5     -0.81      0.00
   12    0    4     -0.43      0.00
   12    0    3      0.13      0.00
   12    0    2     -0.65      0.00
   12    0    1     -0.41      0.00
   12    0    0      0.68      0.00
  -12    0    1      0.40      0.00
  -12    0    2      1.81      0.00
  -12    0    3      0.72      0.00
  -12    0    4     -0.72      0.00
  -12    0    5     -0.32      0.00
   12   -1   16     -1.39      0.00
   12   -1   15      1.48      0.00
   12   -1   14      1.18      0.00
   12   -1   13     -0.26      0.00
   12   -1   12     -1.37      0.00
   12   -1   11      0.89      0.00
   12   -1   10     -0.09      0.00
   12   -1    9     -0.36      0.00
   12   -1    8     -0.61      0.00
   12   -1    7      0.61      0.00
   12   -1    6      2.21      0.00
   12   -1    5     -0.44      0.00
   12   -1    4     -0.68      0.00
   12   -1    3     -1.26      0.00
   12   -1    2     -0.91      0.00
   12   -1    1      0.54      0.00
  -12    1    0      1.53      0.00
  -12    1    1      0.25      0.00
  -12    1    2      1.69      0.00
  -12    1    3     -0.15      0.00
  -12    1    4     -2.11      0.00
  -12    1    5     -0.50      0.00
   12   -2   15      1.24      0.00
   12   -2   14      0.13      0.00
   12   -2   13     -1.20      0.00
   12   -2   12     -0.48      0.00
   12   -2   11      1.58      0.00
   12   -2   10     -1.32      0.00
   12   -2    9     -0.10      0.00
   12   -2    8      0.54      0.00
   12   -2    7      0.74      0.00
   12   -2    6      0.34      0.00
   12   -2    5     -0.21      0.00
   12   -2    4     -1.85      0.00
   12   -2    3     -2.17      0.00
   12   -2    2     -0.04      0.00
   12   -2    1      2.45      0.00
  -12    2    0      1.53      0.00
  -12    2    1      0.01      0.00
  -12    2    2      0.85      0.00
  -12    2    3     -0.97      0.00
  -12    2    4     -2.21      0.00
  -12    2    5     -0.27      0.00
   12   -3   15     -0.28      0.00
   12   -3   14     -1.01      0.00
   12   -3   13     -1.05      0.00
   12   -3   12      0.99      0.00
   12   -3   11      1.02      0.00
   12   -3   10     -1.56      0.00
   12   -3    9      0.81      0.00
   12   -3    8      0.07      0.00
   12   -3    7     -0.08      0.00
   12   -3    6     -1.03      0.00
   12   -3    5      0.40      0.00
   12   -3    4     -1.93      0.00
   12   -3    3     -0.95      0.00
   12   -3    2      2.13      0.00
   12   -3    1      3.62      0.00
  -12    3    0      0.42      0.00
  -12    3    1     -0.36      0.00
  -12    3    2     -0.34      0.00
  -12    3    3     -1.68      0.00
  -12    3    4     -1.31      0.00
  -12    3    5     -0.12      0.00
   12   -4   14     -1.24      0.00
   12   -4   13      0.37      0.00
   12   -4   12      1.58      0.00
   12   -4   11      0.07      0.00
   12   -4   10     -1.10      0.00
   12   -4    9      0.75      0.00
   12   -4    8     -1.03      0.00
   12   -4    7      0.20      0.00
   12   -4    6     -0.69      0.00
   12   -4    5      1.14      0.00
   12   -4    4     -0.57      0.00
   12   -4    3      0.62      0.00
   12   -4    2      3.32      0.00
   12   -4    1      1.75      0.00
  -12    4    0     -1.31      0.00
  -12    4    1     -1.47      0.00
  -12    4    2     -1.21      0.00
  -12    4    3     -2.28      0.00
  -12    4    4      0.40      0.00
  -12    4    5      0.00      0.00
   12   -5   14     -0.69      0.00
   12   -5   13      1.18      0.00
   12   -5   12      0.92      0.00
   12   -5   11     -0.81      0.00
   12   -5   10     -0.31      0.00
   12   -5    9      0.17      0.00
   12   -5    8     -0.58      0.00
   12   -5    7      0.97      0.00
   12   -5    6     -0.22      0.00
   12   -5    5      1.15      0.00
   12   -5    4      0.36      0.00
   12   -5    3      0.34      0.00
  -12    5    1     -2.41      0.00
  -12    5    2     -0.19      0.00
  -12    5    3     -1.93      0.00
  -12    5    4      2.74      0.00
  -12    5    5      0.22      0.00
   12   -6   13      0.66      0.00
   12   -6   12      0.34      0.00
   12   -6   11     -0.86      0.00
   12   -6   10      0.86      0.00
   12   -6    9      0.06      0.00
   12   -6    8      0.38      0.00
   12   -6    7      0.05      0.00
   12   -6    6     -0.50      0.00
   12   -6    5      0.84      0.00
   12   -6    4     -0.05      0.00
   12   -6    3     -0.62      0.00
  -12    6    3     -0.97      0.00
  -12    6    4      3.82      0.00
   12   -7   12      0.59      0.00
   12   -7   11     -0.08      0.00
   12   -7   10      1.16      0.00
   12   -7    9      0.11      0.00
   12   -7    8     -0.45      0.00
   12   -7    7     -1.78      0.00
   12   -7    6     -0.03      0.00
   12   -7    5      1.11      0.00
   12   -7    4     -0.65      0.00
   12   -7    3     -0.22      0.00
  -12    7    4      2.32      0.00
   12   -8   11      0.36      0.00
   12   -8   10     -0.27      0.00
   12   -8    9      0.31      0.00
   12   -8    8     -2.32      0.00
   12   -8    7     -1.69      0.00
   12   -8    6      1.78      0.00
   12   -8    5      1.51      0.00
   12   -8    4     -0.56      0.00
   12   -9   10     -1.70      0.00
   12   -9    9      1.20      0.00
   12   -9    8     -2.86      0.00
   12   -9    7      0.28      0.00
   12  -10    9      2.00      0.00
   12  -10    8     -1.82      0.00
   12  -10    7      1.42      0.00
   11   14   13     -1.37      0.00
   11   13   16     -1.29      0.00
   11   13   15      0.88      0.00
   11   13   14     -1.32      0.00
   11   13   13     -1.31      0.00
   11   13   12      2.15      0.00
   11   12   18      0.91      0.00
   11   12   17     -0.02      0.00
   11   12   16     -2.93      0.00
   11   12   15      0.17      0.00
   11   12   14     -0.95      0.00
   11   12   13      0.50      0.00
   11   12   12      1.77      0.00
   11   12   11     -2.77      0.00
   11   11   19     -1.04      0.00
   11   11   18      0.73      0.00
   11   11   17     -1.51      0.00
   11   11   16     -1.93      0.00
   11   11   15      0.62      0.00
   11   11   14      1.78      0.00
   11   11   13      1.37      0.00
   11   11   12      0.52      0.00
   11   11   11     -1.39      0.00
   11   11   10      0.92      0.00
   11   11    3     -0.41      0.00
   11   11    2      0.59      0.00
   11   11    1     -0.87      0.00
   11   11    0     -0.68      0.00
   11   10   19     -1.12      0.00
   11   10   18      0.69      0.00
   11   10   17     -1.33      0.00
   11   10   16      0.70      0.00
   11   10   15      1.21      0.00
   11   10   14      2.98      0.00
   11   10   13     -0.63      0.00
   11   10   12     -0.72      0.00
   11   10   11     -0.71      0.00
   11   10   10     -0.13      0.00
   11   10    9     -0.22      0.00
   11   10    5      0.05      0.00
   11   10    4     -0.90      0.00
   11   10    3     -0.85      0.00
   11   10    2     -1.09      0.00
   11   10    1      0.79      0.00
   11   10    0      0.31      0.00
  -11  -10    1     -0.52      0.00
   11    9   17      0.04      0.00
   11    9   16      1.86      0.00
   11    9   15      0.25      0.00
   11    9   14      1.03      0.00
   11    9   13     -3.07      0.00
   11    9   12     -0.35      0.00
   11    9   11     -0.46      0.00
   11    9   10     -0.26      0.00
   11    9    9     -0.32      0.00
   11    9    8     -0.34      0.00
   11    9    6     -1.01      0.00
   11    9    5     -0.17      0.00
   11    9    4     -0.97      0.00
   11    9    3      0.25      0.00
   11    9    2     -0.23      0.00
   11    9    1      2.63      0.00
   11    9    0      1.28      0.00
  -11   -9    1     -1.25      0.00
  -11   -9    2      1.45      0.00
   11    8   16      1.05      0.00
   11    8   15     -1.37      0.00
   11    8   14     -0.78      0.00
   11    8   13     -2.67      0.00
   11    8   12      1.59      0.00
   11    8   11      0.04      0.00
   11    8   10      0.38      0.00
   11    8    9     -0.18      0.00
   11    8    8     -0.13      0.00
   11    8    7      1.35      0.00
   11    8    6     -1.20      0.00
   11    8    5      0.54      0.00
   11    8    4      0.41      0.00
   11    8    3      1.21      0.00
   11    8    2      0.90      0.00
   11    8    1      1.84      0.00
   11    8    0      0.80      0.00
  -11   -8    1     -2.66      0.00
  -11   -8    2      0.44      0.00
  -11   -8    3     -1.32      0.00
   11    7   17      1.60      0.00
   11    7   16      0.29      0.00
   11    7   15     -1.82      0.00
   11    7   14     -0.17      0.00
   11    7   13     -0.65      0.00
   11    7   12      2.32      0.00
   11    7   11      0.11      0.00
   11    7   10      0.12      0.00
   11    7    9     -0.22      0.00
   11    7    8     -0.52      0.00
   11    7    7      1.48      0.00
   11    7    6     -0.68      0.00
   11    7    5      0.67      0.00
   11    7    4      1.04      0.00
   11    7    3      0.15      0.00
   11    7    2      0.58      0.00
   11    7    1     -1.07      0.00
   11    7    0     -0.16      0.00
  -11   -7    1     -3.50      0.00
  -11   -7    2     -0.42      0.00
  -11   -7    3     -0.79      0.00
   11    6   19     -1.23      0.00
   11    6   18      2.22      0.00
   11    6   17      1.38      0.00
   11    6   16      0.37      0.00
   11    6   15     -1.63      0.00
   11    6   14      0.78      0.00
   11    6   13     -0.30      0.00
   11    6   12      0.61      0.00
   11    6   11      0.13      0.00
   11    6   10     -0.59      0.00
   11    6    9     -0.15      0.00
   11    6    8     -0.81      0.00
   11    6    7      1.62      0.00
   11    6    6     -0.97      0.00
   11    6    5      0.07      0.00
   11    6    4      0.79      0.00
   11    6    3     -1.11      0.00
   11    6    2      0.03      0.00
   11    6    1     -2.70      0.00
   11    6    0      0.40      0.00
  -11   -6    1     -2.08      0.00
  -11   -6    2      0.32      0.00
  -11   -6    3      0.96      0.00
  -11   -6    4      2.03      0.00
   11    5   19     -0.19      0.00
   11    5   18      2.07      0.00
   11    5   17      0.61      0.00
   11    5   16      0.34      0.00
   11    5   15     -2.22      0.00
   11    5   14      0.34      0.00
   11    5   13     -1.27      0.00
   11    5   12     -0.59      0.00
   11    5   11      1.24      0.00
   11    5   10     -0.66      0.00
   11    5    9     -0.26      0.00
   11    5    8     -0.22      0.00
   11    5    7      1.28      0.00
   11    5    6     -1.53      0.00
   11    5    5      0.44      0.00
   11    5    4      1.04      0.00
   11    5    3     -0.94      0.00
   11    5    2     -0.14      0.00
   11    5    1     -1.90      0.00
   11    5    0      1.80      0.00
  -11   -5    1      0.17      0.00
  -11   -5    2      0.69      0.00
  -11   -5    3      1.89      0.00
  -11   -5    4      2.26      0.00
  -11   -5    5     -0.91      0.00
   11    4   18      1.16      0.00
   11    4   17     -0.36      0.00
   11    4   16     -0.08      0.00
   11    4   15     -2.94      0.00
   11    4   14      0.06      0.00
   11    4   13     -0.78      0.00
   11    4   12      0.67      0.00
   11    4   11      1.83      0.00
   11    4   10     -0.65      0.00
   11    4    9     -0.71      0.00
   11    4    8      1.24      0.00
   11    4    7      0.34      0.00
   11    4    6     -1.41      0.00
   11    4    5      1.59      0.00
   11    4    4      1.09      0.00
   11    4    3     -0.71      0.00
   11    4    2     -0.84      0.00
   11    4    1     -0.50      0.00
   11    4    0      1.83      0.00
  -11   -4    1      0.77      0.00
  -11   -4    2     -0.68      0.00
  -11   -4    3      1.49      0.00
  -11   -4    4      0.65      0.00
  -11   -4    5     -2.50      0.00
   11    3   18      0.68      0.00
   11    3   17     -1.19      0.00
   11    3   16     -0.27      0.00
   11    3   15     -2.38      0.00
   11    3   14      1.05      0.00
   11    3   13      1.05      0.00
   11    3   12      1.58      0.00
   11    3   11     -0.15      0.00
   11    3   10     -0.71      0.00
   11    3    9     -0.50      0.00
   11    3    8      2.18      0.00
   11    3    7     -0.90      0.00
   11    3    6     -0.95      0.00
   11    3    5      1.75      0.00
   11    3    4     -0.04      0.00
   11    3    3     -1.15      0.00
   11    3    2     -1.68      0.00
   11    3    1      0.43      0.00
   11    3    0      0.71      0.00
  -11   -3    1      0.29      0.00
  -11   -3    2     -1.64      0.00
  -11   -3    3      1.25      0.00
  -11   -3    4     -0.86      0.00
  -11   -3    5     -2.36      0.00
  -11   -3    6     -1.16      0.00
   11    2   17     -1.87      0.00
   11    2   16     -0.01      0.00
   11    2   15     -0.73      0.00
   11    2   14      1.93      0.00
   11    2   13      1.69      0.00
   11    2   12     -0.34      0.00
   11    2   11     -2.32      0.00
   11    2   10      0.27      0.00
   11    2    9      0.72      0.00
   11    2    8      1.27      0.00
   11    2    7     -1.38      0.00
   11    2    6     -0.49      0.00
   11    2    5      0.75      0.00
   11    2    4     -1.01      0.00
   11    2    3     -0.89      0.00
   11    2    2     -1.33      0.00
   11    2    1      1.25      0.00
   11    2    0      0.33      0.00
  -11   -2    1      0.32      0.00
  -11   -2    2     -0.72      0.00
  -11   -2    3      1.04      0.00
  -11   -2    4     -1.32      0.00
  -11   -2    5     -0.57      0.00
  -11   -2    6      0.17      0.00
   11    1   17     -2.12      0.00
   11    1   16      0.38      0.00
   11    1   15      0.82      0.00
   11    1   14      1.62      0.00
   11    1   13      0.29      0.00
   11    1   12     -2.64      0.00
   11    1   11     -1.28      0.00
   11    1   10      1.73      0.00
   11    1    9      1.45      0.00
   11    1    8     -0.60      0.00
   11    1    7     -0.32      0.00
   11    1    6     -0.13      0.00
   11    1    5     -0.51      0.00
   11    1    4     -0.66      0.00
   11    1    3      0.12      0.00
   11    1    2     -0.11      0.00
   11    1    1      1.70      0.00
   11    1    0      0.71      0.00
  -11   -1    1      0.02      0.00
  -11   -1    2      0.43      0.00
  -11   -1    3     -0.44      0.00
  -11   -1    4     -0.96      0.00
  -11   -1    5      1.13      0.00
  -11   -1    6      0.49      0.00
   11    0   17     -1.47      0.00
   11    0   16      0.66      0.00
   11    0   15      1.56      0.00
   11    0   14      0.59      0.00
   11    0   13     -1.70      0.00
   11    0   12     -1.94      0.00
   11    0   11      1.32      0.00
   11    0   10      1.70      0.00
   11    0    9      0.73      0.00
   11    0    8     -1.28      0.00
   11    0    7      0.89      0.00
   11    0    6     -0.48      0.00
   11    0    5     -1.56      0.00
   11    0    4      0.14      0.00
   11    0    3      0.59      0.00
   11    0    2      0.91      0.00
   11    0    1      1.36      0.00
   11    0    0      0.38      0.00
  -11    0    1     -1.41      0.00
  -11    0    2      0.84      0.00
  -11    0    3     -2.13      0.00
  -11    0    4      0.17      0.00
  -11    0    5      1.80      0.00
  -11    0    6     -0.09      0.00
   11   -1   16      0.72      0.00
   11   -1   15      1.14      0.00
   11   -1   14     -0.39      0.00
   11   -1   13     -2.48      0.00
   11   -1   12      1.07      0.00
   11   -1   11      1.52      0.00
   11   -1   10      0.41      0.00
   11   -1    9     -0.36      0.00
   11   -1    8     -0.52      0.00
   11   -1    7      0.42      0.00
   11   -1    6     -1.23      0.00
   11   -1    5     -1.72      0.00
   11   -1    4      0.57      0.00
   11   -1    3      0.75      0.00
   11   -1    2      1.77      0.00
   11   -1    1      0.68      0.00
  -11    1    0     -0.91      0.00
  -11    1    1     -2.14      0.00
  -11    1    2      1.30      0.00
  -11    1    3     -2.22      0.00
  -11    1    4      1.31      0.00
  -11    1    5      1.45      0.00
  -11    1    6     -0.45      0.00
   11   -2   15     -0.32      0.00
   11   -2   14     -0.57      0.00
   11   -2   13     -1.40      0.00
   11   -2   12      2.99      0.00
   11   -2   11     -0.73      0.00
   11   -2   10     -0.21      0.00
   11   -2    9     -0.65      0.00
   11   -2    8      0.06      0.00
   11   -2    7     -0.70      0.00
   11   -2    6     -0.89      0.00
   11   -2    5     -0.49      0.00
   11   -2    4      0.90      0.00
   11   -2    3      1.39      0.00
   11   -2    2      2.42      0.00
   11   -2    1     -0.25      0.00
  -11    2    0     -2.22      0.00
  -11    2    1     -1.10      0.00
  -11    2    2      1.35      0.00
  -11    2    3     -1.36      0.00
  -11    2    4      1.23      0.00
  -11    2    5      0.54      0.00
  -11    2    6     -0.14      0.00
   11   -3   15     -1.71      0.00
   11   -3   14      0.30      0.00
   11   -3   13      0.40      0.00
   11   -3   12      2.06      0.00
   11   -3   11     -2.43      0.00
   11   -3   10      0.21      0.00
   11   -3    9     -0.31      0.00
   11   -3    8     -0.11      0.00
   11   -3    7     -0.24      0.00
   11   -3    6      0.35      0.00
   11   -3    5      0.94      0.00
   11   -3    4      0.91      0.00
   11   -3    3      1.53      0.00
   11   -3    2      1.74      0.00
   11   -3    1     -2.03      0.00
  -11    3    0     -2.55      0.00
  -11    3    1     -0.02      0.00
  -11    3    2      0.31      0.00
  -11    3    3     -0.67      0.00
  -11    3    4      0.74      0.00
  -11    3    5     -0.10      0.00
  -11    3    6      0.75      0.00
   11   -4   15     -1.85      0.00
   11   -4   14      1.06      0.00
   11   -4   13      1.30      0.00
   11   -4   12     -0.19      0.00
   11   -4   11     -2.06      0.00
   11   -4   10      0.72      0.00
   11   -4    9      0.14      0.00
   11   -4    8     -0.12      0.00
   11   -4    7      1.14      0.00
   11   -4    6      0.54      0.00
   11   -4    5      1.10      0.00
   11   -4    4     -0.02      0.00
   11   -4    3      0.23      0.00
  -11    4    1      0.03      0.00
  -11    4    2     -0.03      0.00
  -11    4    3      0.31      0.00
  -11    4    4      1.41      0.00
  -11    4    5     -0.40      0.00
  -11    4    6      1.46      0.00
   11   -5   14      0.59      0.00
   11   -5   13      1.46      0.00
   11   -5   12     -1.26      0.00
   11   -5   11     -0.72      0.00
   11   -5   10      0.88      0.00
   11   -5    9      0.27      0.00
   11   -5    8      0.14      0.00
   11   -5    7      1.04      0.00
   11   -5    6     -0.45      0.00
   11   -5    5      0.47      0.00
   11   -5    4     -1.44      0.00
   11   -5    3     -0.95      0.00
  -11    5    3      1.14      0.00
  -11    5    4      2.13      0.00
  -11    5    5     -1.40      0.00
  -11    5    6      0.96      0.00
   11   -6   13      1.79      0.00
   11   -6   12     -0.89      0.00
   11   -6   11     -0.14      0.00
   11   -6   10      0.56      0.00
   11   -6    9     -0.10      0.00
   11   -6    8     -0.21      0.00
   11   -6    7     -0.25      0.00
   11   -6    6     -0.54      0.00
   11   -6    5      0.30      0.00
   11   -6    4     -2.02      0.00
   11   -6    3     -0.33      0.00
  -11    6    5     -2.83      0.00
  -11    6    6     -0.06      0.00
   11   -7   12     -0.57      0.00
   11   -7   11     -0.76      0.00
   11   -7   10     -0.14      0.00
   11   -7    9     -0.37      0.00
   11   -7    8     -1.13      0.00
   11   -7    7     -0.11      0.00
   11   -7    6      0.83      0.00
   11   -7    5      0.41      0.00
   11   -7    4     -1.50      0.00
   11   -7    3      0.81      0.00
   11   -8   11     -1.35      0.00
   11   -8   10     -0.37      0.00
   11   -8    9      0.26      0.00
   11   -8    8     -1.62      0.00
   11   -8    7      1.94      0.00
   11   -8    6      1.75      0.00
   11   -8    5     -0.27      0.00
   11   -8    4     -0.98      0.00
   11   -8    3      0.44      0.00
   11   -9   10      0.27      0.00
   11   -9    9      1.10      0.00
   11   -9    8     -1.43      0.00
   11   -9    7      3.38      0.00
   11   -9    6      0.95      0.00
   11  -10    9      0.89      0.00
   11  -10    8     -1.07      0.00
   11  -10    7      2.54      0.00
   11  -10    6     -0.43      0.00
   11  -11    8     -0.71      0.00
   11  -11    7      0.71      0.00
   10   13   15     -1.12      0.00
   10   13   14     -1.87      0.00
   10   13   13      1.38      0.00
   10   13   12      0.88      0.00
   10   12   17     -1.11      0.00
   10   12   16      0.34      0.00
   10   12   15     -0.61      0.00
   10   12   14      0.55      0.00
   10   12   13      2.01      0.00
   10   12   12      0.18      0.00
   10   12   11     -0.38      0.00
   10   11   19     -1.56      0.00
   10   11   18      0.60      0.00
   10   11   17     -0.15      0.00
   10   11   16      1.06      0.00
   10   11   15      0.25      0.00
   10   11   14      2.16      0.00
   10   11   13      0.00      0.00
   10   11   12     -0.51      0.00
   10   11   11     -0.59      0.00
   10   11   10     -0.45      0.00
   10   11    2     -0.90      0.00
   10   11    1     -0.51      0.00
   10   11    0     -0.47      0.00
  -10  -11    1      0.73      0.00
   10   10   17      0.76      0.00
   10   10   16      0.35      0.00
   10   10   15      0.51      0.00
   10   10   14      1.10      0.00
   10   10   13     -2.32      0.00
   10   10   12     -0.80      0.00
   10   10   11     -0.80      0.00
   10   10   10     -0.46      0.00
   10   10    9      0.61      0.00
   10   10    4     -0.63      0.00
   10   10    3     -0.15      0.00
   10   10    2      0.57      0.00
   10   10    1      0.91      0.00
   10   10    0     -0.99      0.00
  -10  -10    1      1.04      0.00
  -10  -10    2      0.67      0.00
   10    9   15      0.18      0.00
   10    9   14     -0.77      0.00
   10    9   13     -2.28      0.00
   10    9   12      0.06      0.00
   10    9   11     -0.01      0.00
   10    9   10      0.70      0.00
   10    9    9      0.67      0.00
   10    9    8      0.66      0.00
   10    9    5      0.79      0.00
   10    9    4      0.22      0.00
   10    9    3      1.21      0.00
   10    9    2      1.03      0.00
   10    9    1      0.38      0.00
   10    9    0     -1.25      0.00
  -10   -9    1      0.34      0.00
  -10   -9    2      1.48      0.00
  -10   -9    3     -1.55      0.00
   10    8   14     -0.82      0.00
   10    8   13     -0.32      0.00
   10    8   12      1.55      0.00
   10    8   11      0.40      0.00
   10    8   10      1.15      0.00
   10    8    9     -0.24      0.00
   10    8    8      0.70      0.00
   10    8    7     -0.33      0.00
   10    8    6     -1.12      0.00
   10    8    5      1.77      0.00
   10    8    4      0.33      0.00
   10    8    3      0.27      0.00
   10    8    2     -0.11      0.00
   10    8    1     -1.15      0.00
   10    8    0     -1.19      0.00
  -10   -8    1     -0.86      0.00
  -10   -8    2      1.76      0.00
  -10   -8    3     -2.81      0.00
  -10   -8    4      1.16      0.00
   10    7   16     -1.17      0.00
   10    7   15     -1.29      0.00
   10    7   14      0.94      0.00
   10    7   13      0.89      0.00
   10    7   12      1.91      0.00
   10    7   11     -0.75      0.00
   10    7   10      0.29      0.00
   10    7    9     -1.05      0.00
   10    7    8      0.42      0.00
   10    7    7     -0.09      0.00
   10    7    6     -0.50      0.00
   10    7    5      1.09      0.00
   10    7    4     -0.68      0.00
   10    7    3     -1.34      0.00
   10    7    2     -0.34      0.00
   10    7    1     -1.44      0.00
   10    7    0     -0.32      0.00
  -10   -7    1     -0.62      0.00
  -10   -7    2      2.30      0.00
  -10   -7    3     -1.97      0.00
  -10   -7    4      2.45      0.00
  -10   -7    5     -0.07      0.00
   10    6   19      1.74      0.00
   10    6   18      1.87      0.00
   10    6   17     -2.92      0.00
   10    6   16     -0.78      0.00
   10    6   15     -1.82      0.00
   10    6   14      2.72      0.00
   10    6   13      0.37      0.00
   10    6   12      1.02      0.00
   10    6   11     -1.86      0.00
   10    6   10     -0.47      0.00
   10    6    9     -0.50      0.00
   10    6    8      0.43      0.00
   10    6    7      0.75      0.00
   10    6    6     -0.98      0.00
   10    6    5      0.51      0.00
   10    6    4     -0.85      0.00
   10    6    3     -1.17      0.00
   10    6    2      0.65      0.00
   10    6    1     -0.51      0.00
   10    6    0      0.92      0.00
  -10   -6    1      0.73      0.00
  -10   -6    2      2.12      0.00
  -10   -6    3     -0.36      0.00
  -10   -6    4      2.08      0.00
  -10   -6    5     -1.20      0.00
   10    5   18      0.51      0.00
   10    5   17     -3.70      0.00
   10    5   16     -0.03      0.00
   10    5   15     -1.25      0.00
   10    5   14      3.29      0.00
   10    5   13     -0.32      0.00
   10    5   12      0.24      0.00
   10    5   11     -1.52      0.00
   10    5   10     -0.39      0.00
   10    5    9      0.73      0.00
   10    5    8      0.68      0.00
   10    5    7      0.80      0.00
   10    5    6     -1.53      0.00
   10    5    5      1.22      0.00
   10    5    4     -0.47      0.00
   10    5    3     -0.69      0.00
   10    5    2      0.80      0.00
   10    5    1      0.30      0.00
   10    5    0      1.34      0.00
  -10   -5    1      0.81      0.00
  -10   -5    2      0.34      0.00
  -10   -5    3      0.18      0.00
  -10   -5    4     -0.62      0.00
  -10   -5    5     -2.59      0.00
  -10   -5    6      0.06      0.00
   10    4   18     -0.66      0.00
   10    4   17     -2.83      0.00
   10    4   16      1.19      0.00
   10    4   15     -0.12      0.00
   10    4   14      2.56      0.00
   10    4   13     -0.04      0.00
   10    4   12     -0.48      0.00
   10    4   11     -0.77      0.00
   10    4   10      0.08      0.00
   10    4    9      1.25      0.00
   10    4    8      0.54      0.00
   10    4    7     -0.51      0.00
   10    4    6     -1.19      0.00
   10    4    5      1.87      0.00
   10    4    4     -1.20      0.00
   10    4    3     -1.27      0.00
   10    4    2      0.30      0.00
   10    4    1      0.99      0.00
   10    4    0      0.75      0.00
  -10   -4    1     -0.42      0.00
  -10   -4    2     -1.17      0.00
  -10   -4    3      0.24      0.00
  -10   -4    4     -2.92      0.00
  -10   -4    5     -1.64      0.00
  -10   -4    6      1.49      0.00
   10    3   18     -1.01      0.00
   10    3   17     -1.15      0.00
   10    3   16      2.01      0.00
   10    3   15      0.24      0.00
   10    3   14      1.30      0.00
   10    3   13      0.26      0.00
   10    3   12     -1.79      0.00
   10    3   11     -0.15      0.00
   10    3   10      0.87      0.00
   10    3    9      0.81      0.00
   10    3    8     -0.32      0.00
   10    3    7     -1.72      0.00
   10    3    6     -0.01      0.00
   10    3    5      1.47      0.00
   10    3    4     -2.21      0.00
   10    3    3     -1.27      0.00
   10    3    2      0.96      0.00
   10    3    1      1.90      0.00
   10    3    0     -0.06      0.00
  -10   -3    1     -1.03      0.00
  -10   -3    2     -0.89      0.00
  -10   -3    3      0.44      0.00
  -10   -3    4     -2.82      0.00
  -10   -3    5      1.41      0.00
  -10   -3    6      2.97      0.00
  -10   -3    7      1.79      0.00
   10    2   18     -0.49      0.00
   10    2   17     -0.05      0.00
   10    2   16      1.86      0.00
   10    2   15     -0.22      0.00
   10    2   14      0.43      0.00
   10    2   13     -0.56      0.00
   10    2   12     -2.29      0.00
   10    2   11      1.21      0.00
   10    2   10      1.67      0.00
   10    2    9     -0.15      0.00
   10    2    8     -1.43      0.00
   10    2    7     -1.19      0.00
   10    2    6      0.94      0.00
   10    2    5      0.64      0.00
   10    2    4     -1.78      0.00
   10    2    3      0.09      0.00
   10    2    2      2.13      0.00
   10    2    1      1.96      0.00
   10    2    0     -0.90      0.00
  -10   -2    1     -0.91      0.00
  -10   -2    2     -0.11      0.00
  -10   -2    3      0.05      0.00
  -10   -2    4     -0.87      0.00
  -10   -2    5      3.37      0.00
  -10   -2    6      1.97      0.00
  -10   -2    7      0.27      0.00
   10    1   17      0.04      0.00
   10    1   16      1.18      0.00
   10    1   15     -0.39      0.00
   10    1   14     -0.13      0.00
   10    1   13     -1.83      0.00
   10    1   12     -0.29      0.00
   10    1   11      2.45      0.00
   10    1   10      1.27      0.00
   10    1    9     -1.37      0.00
   10    1    8     -1.88      0.00
   10    1    7      0.28      0.00
   10    1    6      0.63      0.00
   10    1    5      0.12      0.00
   10    1    4     -0.28      0.00
   10    1    3      1.09      0.00
   10    1    2      1.87      0.00
   10    1    1      0.44      0.00
   10    1    0     -1.91      0.00
  -10   -1    1     -0.94      0.00
  -10   -1    2      0.27      0.00
  -10   -1    3     -0.58      0.00
  -10   -1    4      1.58      0.00
  -10   -1    5      2.29      0.00
  -10   -1    6     -0.87      0.00
  -10   -1    7     -1.48      0.00
   10    0   17     -0.27      0.00
   10    0   16      0.53      0.00
   10    0   15     -0.05      0.00
   10    0   14     -0.97      0.00
   10    0   13     -1.77      0.00
   10    0   12      2.73      0.00
   10    0   11      1.40      0.00
   10    0   10     -0.29      0.00
   10    0    9     -2.24      0.00
   10    0    8     -1.15      0.00
   10    0    7      0.74      0.00
   10    0    6     -0.14      0.00
   10    0    5      0.28      0.00
   10    0    4      1.07      0.00
   10    0    3      0.85      0.00
   10    0    2      0.43      0.00
   10    0    1     -1.39      0.00
   10    0    0     -2.32      0.00
  -10    0    1     -0.23      0.00
  -10    0    2      1.12      0.00
  -10    0    3     -0.49      0.00
  -10    0    4      2.96      0.00
  -10    0    5     -0.63      0.00
  -10    0    6     -2.76      0.00
  -10    0    7     -1.26      0.00
  -10    0    8     -0.51      0.00
   10   -1   16      0.05      0.00
   10   -1   15      0.06      0.00
   10   -1   14     -1.33      0.00
   10   -1   13     -0.07      0.00
   10   -1   12      3.50      0.00
   10   -1   11     -1.36      0.00
   10   -1   10     -1.14      0.00
   10   -1    9     -1.95      0.00
   10   -1    8      0.39      0.00
   10   -1    7      0.18      0.00
   10   -1    6      0.27      0.00
   10   -1    5      0.95      0.00
   10   -1    4      1.69      0.00
   10   -1    3      0.04      0.00
   10   -1    2     -0.71      0.00
   10   -1    1     -2.32      0.00
  -10    1    0     -1.32      0.00
  -10    1    1      1.69      0.00
  -10    1    2      1.74      0.00
  -10    1    3     -0.41      0.00
  -10    1    4      1.99      0.00
  -10    1    5     -2.76      0.00
  -10    1    6     -2.38      0.00
  -10    1    7      0.33      0.00
  -10    1    8      1.36      0.00
   10   -2   16     -0.37      0.00
   10   -2   15     -0.23      0.00
   10   -2   14     -0.16      0.00
   10   -2   13      1.05      0.00
   10   -2   12      1.30      0.00
   10   -2   11     -2.80      0.00
   10   -2   10     -0.28      0.00
   10   -2    9     -0.70      0.00
   10   -2    8      1.58      0.00
   10   -2    7     -0.06      0.00
   10   -2    6      1.19      0.00
   10   -2    5      1.13      0.00
   10   -2    4      1.09      0.00
   10   -2    3     -0.97      0.00
   10   -2    2     -1.23      0.00
   10   -2    1     -2.56      0.00
  -10    2    0      0.64      0.00
  -10    2    1      2.72      0.00
  -10    2    2      0.67      0.00
  -10    2    3     -1.02      0.00
  -10    2    4     -0.05      0.00
  -10    2    5     -2.36      0.00
  -10    2    6     -0.55      0.00
  -10    2    7      1.28      0.00
  -10    2    8      2.07      0.00
   10   -3   15     -0.31      0.00
   10   -3   14      1.35      0.00
   10   -3   13      0.07      0.00
   10   -3   12     -1.20      0.00
   10   -3   11     -1.52      0.00
   10   -3   10      1.06      0.00
   10   -3    9      0.35      0.00
   10   -3    8      1.49      0.00
   10   -3    7      0.14      0.00
   10   -3    6      0.55      0.00
   10   -3    5      0.43      0.00
   10   -3    4     -0.71      0.00
   10   -3    3     -1.68      0.00
   10   -3    2     -1.36      0.00
  -10    3    0      2.39      0.00
  -10    3    1      1.48      0.00
  -10    3    2     -0.62      0.00
  -10    3    3     -1.09      0.00
  -10    3    4     -0.54      0.00
  -10    3    5     -0.36      0.00
  -10    3    6      1.04      0.00
  -10    3    7      0.64      0.00
  -10    3    8      1.85      0.00
   10   -4   15      0.05      0.00
   10   -4   14      1.30      0.00
   10   -4   13     -1.04      0.00
   10   -4   12     -1.76      0.00
   10   -4   11      0.80      0.00
   10   -4   10      1.32      0.00
   10   -4    9      0.41      0.00
   10   -4    8      0.36      0.00
   10   -4    7      0.05      0.00
   10   -4    6     -1.27      0.00
   10   -4    5     -0.14      0.00
   10   -4    4     -2.21      0.00
   10   -4    3     -0.84      0.00
   10   -4    2     -0.76      0.00
  -10    4    3     -0.25      0.00
  -10    4    4      0.31      0.00
  -10    4    5      0.46      0.00
  -10    4    6      1.33      0.00
  -10    4    7     -0.81      0.00
  -10    4    8      1.13      0.00
   10   -5   14      0.19      0.00
   10   -5   13     -0.13      0.00
   10   -5   12     -1.35      0.00
   10   -5   11      1.77      0.00
   10   -5   10      0.50      0.00
   10   -5    9     -0.13      0.00
   10   -5    8     -0.69      0.00
   10   -5    7     -0.21      0.00
   10   -5    6     -1.79      0.00
   10   -5    5      0.14      0.00
   10   -5    4     -1.85      0.00
   10   -5    3      1.30      0.00
   10   -5    2      0.48      0.00
  -10    5    5     -0.68      0.00
  -10    5    6      1.01      0.00
  -10    5    7     -1.58      0.00
  -10    5    8      0.27      0.00
   10   -6   13      1.18      0.00
   10   -6   12     -1.68      0.00
   10   -6   11      0.88      0.00
   10   -6   10     -0.03      0.00
   10   -6    9     -0.46      0.00
   10   -6    8     -0.85      0.00
   10   -6    7      0.10      0.00
   10   -6    6     -0.44      0.00
   10   -6    5      0.39      0.00
   10   -6    4     -0.23      0.00
   10   -6    3      2.40      0.00
   10   -6    2      1.27      0.00
  -10    6    6      1.36      0.00
  -10    6    7     -1.29      0.00
   10   -7   12     -1.87      0.00
   10   -7   11     -0.38      0.00
   10   -7   10      0.89      0.00
   10   -7    9     -0.39      0.00
   10   -7    8     -0.32      0.00
   10   -7    7      0.95      0.00
   10   -7    6      0.77      0.00
   10   -7    5     -0.27      0.00
   10   -7    4      0.72      0.00
   10   -7    3      1.22      0.00
   10   -7    2      1.09      0.00
  -10    7    7     -0.97      0.00
   10   -8   12     -0.56      0.00
   10   -8   11     -0.70      0.00
   10   -8   10      2.39      0.00
   10   -8    9     -0.54      0.00
   10   -8    8      0.17      0.00
   10   -8    7      1.53      0.00
   10   -8    6      0.30      0.00
   10   -8    5     -1.48      0.00
   10   -8    4      0.44      0.00
   10   -8    3     -0.28      0.00
   10   -8    2      0.69      0.00
   10   -9   11     -0.43      0.00
   10   -9   10      2.44      0.00
   10   -9    9     -1.06      0.00
   10   -9    8      0.23      0.00
   10   -9    7      1.31      0.00
   10   -9    6     -1.17      0.00
   10   -9    5     -2.08      0.00
   10   -9    4      0.40      0.00
   10   -9    3     -0.11      0.00
   10  -10    9     -1.17      0.00
   10  -10    8      0.12      0.00
   10  -10    7      0.66      0.00
   10  -10    6     -1.94      0.00
   10  -10    5     -1.43      0.00
   10  -11    8      0.17      0.00
   10  -11    7      0.20      0.00
   10  -11    6     -1.39      0.00
   10  -12    7      0.02      0.00
   10  -12    6     -0.34      0.00
    9   15   17     -0.15      0.00
    9   14   17     -0.60      0.00
    9   13   17     -0.22      0.00
    9   13   14      1.39      0.00
    9   13   13      1.47      0.00
    9   13   12      0.09      0.00
    9   13   11     -0.08      0.00
    9   12   16     -0.39      0.00
    9   12   15     -0.46      0.00
    9   12   14      1.99      0.00
    9   12   13      0.59      0.00
    9   12   12     -1.11      0.00
    9   12   11     -0.16      0.00
    9   12   10     -1.50      0.00
    9   11   17      0.97      0.00
    9   11   16     -1.61      0.00
    9   11   15      0.27      0.00
    9   11   14      1.03      0.00
    9   11   13     -1.08      0.00
    9   11   12     -1.28      0.00
    9   11   11     -0.71      0.00
    9   11   10     -0.40      0.00
    9   11    9      1.78      0.00
    9   11    1      0.56      0.00
    9   11    0      0.10      0.00
   -9  -11    1      1.43      0.00
   -9  -11    2     -0.60      0.00
    9   10   15      0.82      0.00
    9   10   14     -0.49      0.00
    9   10   13     -1.61      0.00
    9   10   12     -0.47      0.00
    9   10   11      0.02      0.00
    9   10   10      1.14      0.00
    9   10    9      1.29      0.00
    9   10    8     -0.24      0.00
    9   10    3      1.56      0.00
    9   10    2      0.95      0.00
    9   10    1     -0.18      0.00
    9   10    0     -0.08      0.00
   -9  -10    1      1.72      0.00
   -9  -10    2     -0.47      0.00
   -9  -10    3     -0.16      0.00
    9    9   14     -0.88      0.00
    9    9   13     -0.47      0.00
    9    9   12      0.93      0.00
    9    9   11      1.33      0.00
    9    9   10      1.25      0.00
    9    9    9     -0.08      0.00
    9    9    8     -0.39      0.00
    9    9    7     -1.34      0.00
    9    9    4      0.39      0.00
    9    9    3      0.93      0.00
    9    9    2     -0.82      0.00
    9    9    1     -1.27      0.00
    9    9    0      0.21      0.00
   -9   -9    1      0.82      0.00
   -9   -9    2     -0.57      0.00
   -9   -9    3     -2.41      0.00
   -9   -9    4      0.90      0.00
    9    8   13      0.69      0.00
    9    8   12      1.36      0.00
    9    8   11      0.78      0.00
    9    8   10     -0.32      0.00
    9    8    9     -1.32      0.00
    9    8    8      0.03      0.00
    9    8    7     -0.83      0.00
    9    8    5      0.78      0.00
    9    8    4     -0.70      0.00
    9    8    3     -1.11      0.00
    9    8    2     -0.77      0.00
    9    8    1     -1.18      0.00
    9    8    0      1.02      0.00
   -9   -8    1      0.36      0.00
   -9   -8    2     -0.55      0.00
   -9   -8    3     -2.54      0.00
   -9   -8    4      2.89      0.00
   -9   -8    5     -1.79      0.00
    9    7   12      0.10      0.00
    9    7   11     -1.25      0.00
    9    7   10     -1.10      0.00
    9    7    9     -0.79      0.00
    9    7    8      0.92      0.00
    9    7    7      0.05      0.00
    9    7    6      0.61      0.00
    9    7    5     -0.97      0.00
    9    7    4     -1.06      0.00
    9    7    3     -0.63      0.00
    9    7    2      1.19      0.00
    9    7    1     -0.62      0.00
    9    7    0      1.57      0.00
   -9   -7    1      0.79      0.00
   -9   -7    2     -0.75      0.00
   -9   -7    3     -0.68      0.00
   -9   -7    4      3.15      0.00
   -9   -7    5     -1.60      0.00
   -9   -7    6      1.27      0.00
    9    6   18     -2.14      0.00
    9    6   17     -1.91      0.00
    9    6   16      2.72      0.00
    9    6   15      0.06      0.00
    9    6   14      3.09      0.00
    9    6   13     -2.33      0.00
    9    6   12     -1.29      0.00
    9    6   11     -1.85      0.00
    9    6   10      0.47      0.00
    9    6    9      0.97      0.00
    9    6    8      1.14      0.00
    9    6    7      0.22      0.00
    9    6    6     -1.11      0.00
    9    6    5     -0.41      0.00
    9    6    4     -0.55      0.00
    9    6    3      1.29      0.00
    9    6    2      1.45      0.00
    9    6    1     -0.69      0.00
    9    6    0      1.17      0.00
   -9   -6    1      0.75      0.00
   -9   -6    2     -1.54      0.00
   -9   -6    3      0.42      0.00
   -9   -6    4      0.87      0.00
   -9   -6    5     -1.75      0.00
   -9   -6    6      0.31      0.00
   -9   -6    7     -0.74      0.00
    9    5   18     -2.75      0.00
    9    5   17     -0.95      0.00
    9    5   16      4.08      0.00
    9    5   15     -0.53      0.00
    9    5   14      2.01      0.00
    9    5   13     -3.48      0.00
    9    5   12     -1.42      0.00
    9    5   11     -0.11      0.00
    9    5   10      2.48      0.00
    9    5    9      1.39      0.00
    9    5    8     -0.14      0.00
    9    5    7     -0.79      0.00
    9    5    6     -1.72      0.00
    9    5    5      1.10      0.00
    9    5    4     -0.89      0.00
    9    5    3      1.72      0.00
    9    5    2      0.05      0.00
    9    5    1     -0.53      0.00
    9    5    0      0.26      0.00
   -9   -5    1     -0.15      0.00
   -9   -5    2     -1.77      0.00
   -9   -5    3      0.15      0.00
   -9   -5    4     -0.95      0.00
   -9   -5    5     -0.45      0.00
   -9   -5    6      0.83      0.00
   -9   -5    7     -0.31      0.00
    9    4   18     -2.75      0.00
    9    4   17      0.98      0.00
    9    4   16      3.70      0.00
    9    4   15     -1.79      0.00
    9    4   14      0.36      0.00
    9    4   13     -2.27      0.00
    9    4   12     -0.94      0.00
    9    4   11      2.10      0.00
    9    4   10      2.51      0.00
    9    4    9     -0.46      0.00
    9    4    8     -1.76      0.00
    9    4    7     -1.51      0.00
    9    4    6     -0.26      0.00
    9    4    5      1.34      0.00
    9    4    4     -1.51      0.00
    9    4    3      1.35      0.00
    9    4    2      0.30      0.00
    9    4    1      0.18      0.00
    9    4    0     -0.59      0.00
   -9   -4    1     -0.76      0.00
   -9   -4    2     -0.62      0.00
   -9   -4    3     -0.15      0.00
   -9   -4    4     -0.33      0.00
   -9   -4    5      2.24      0.00
   -9   -4    6      1.34      0.00
   -9   -4    7     -0.70      0.00
   -9   -4    8      0.12      0.00
    9    3   18     -1.67      0.00
    9    3   17      2.31      0.00
    9    3   16      1.22      0.00
    9    3   15     -2.46      0.00
    9    3   14     -0.06      0.00
    9    3   13     -0.31      0.00
    9    3   12     -0.48      0.00
    9    3   11      2.88      0.00
    9    3   10      0.73      0.00
    9    3    9     -2.74      0.00
    9    3    8     -1.78      0.00
    9    3    7     -0.31      0.00
    9    3    6      1.84      0.00
    9    3    5      0.38      0.00
    9    3    4     -0.92      0.00
    9    3    3      1.49      0.00
    9    3    2      1.95      0.00
    9    3    1     -0.38      0.00
    9    3    0     -1.47      0.00
   -9   -3    1     -0.59      0.00
   -9   -3    2      0.63      0.00
   -9   -3    3      0.06      0.00
   -9   -3    4      1.07      0.00
   -9   -3    5      3.47      0.00
   -9   -3    6     -0.67      0.00
   -9   -3    7     -2.32      0.00
   -9   -3    8     -1.21      0.00
    9    2   17      1.60      0.00
    9    2   16     -1.20      0.00
    9    2   15     -1.43      0.00
    9    2   14      0.38      0.00
    9    2   13      0.45      0.00
    9    2   12      0.39      0.00
    9    2   11      1.62      0.00
    9    2   10     -1.05      0.00
    9    2    9     -3.49      0.00
    9    2    8     -0.12      0.00
    9    2    7      1.94      0.00
    9    2    6      2.10      0.00
    9    2    5     -0.66      0.00
    9    2    4     -0.04      0.00
    9    2    3      1.29      0.00
    9    2    2      1.90      0.00
    9    2    1     -2.53      0.00
    9    2    0     -2.00      0.00
   -9   -2    1      0.17      0.00
   -9   -2    2      0.91      0.00
   -9   -2    3      0.49      0.00
   -9   -2    4      1.31      0.00
   -9   -2    5      1.65      0.00
   -9   -2    6     -3.63      0.00
   -9   -2    7     -2.86      0.00
   -9   -2    8     -0.73      0.00
    9    1   17     -0.76      0.00
    9    1   16     -1.38      0.00
    9    1   15      0.19      0.00
    9    1   14      0.01      0.00
    9    1   13      0.54      0.00
    9    1   12      1.38      0.00
    9    1   11     -1.01      0.00
    9    1   10     -1.69      0.00
    9    1    9     -2.36      0.00
    9    1    8      1.56      0.00
    9    1    7      3.12      0.00
    9    1    6      0.33      0.00
    9    1    5     -1.08      0.00
    9    1    4     -0.11      0.00
    9    1    3      0.44      0.00
    9    1    2      0.06      0.00
    9    1    1     -3.53      0.00
    9    1    0     -1.13      0.00
   -9   -1    1      1.62      0.00
   -9   -1    2      0.76      0.00
   -9   -1    3      0.81      0.00
   -9   -1    4      0.37      0.00
   -9   -1    5     -1.48      0.00
   -9   -1    6     -3.77      0.00
   -9   -1    7     -0.82      0.00
   -9   -1    8      1.45      0.00
   -9   -1    9      2.50      0.00
    9    0   17     -2.57      0.00
    9    0   16      0.31      0.00
    9    0   15      0.53      0.00
    9    0   14     -0.83      0.00
    9    0   13      1.32      0.00
    9    0   12      1.11      0.00
    9    0   11     -3.05      0.00
    9    0   10     -1.11      0.00
    9    0    9     -0.01      0.00
    9    0    8      2.09      0.00
    9    0    7      2.72      0.00
    9    0    6     -1.22      0.00
    9    0    5     -0.89      0.00
    9    0    4     -0.43      0.00
    9    0    3     -0.08      0.00
    9    0    2     -1.13      0.00
    9    0    1     -1.99      0.00
    9    0    0      0.94      0.00
   -9    0    1      2.91      0.00
   -9    0    2      0.11      0.00
   -9    0    3      0.26      0.00
   -9    0    4     -0.91      0.00
   -9    0    5     -3.13      0.00
   -9    0    6     -0.58      0.00
   -9    0    7      1.94      0.00
   -9    0    8      2.49      0.00
   -9    0    9      1.24      0.00
    9   -1   16      1.58      0.00
    9   -1   15     -0.23      0.00
    9   -1   14     -0.50      0.00
    9   -1   13      1.79      0.00
    9   -1   12     -0.52      0.00
    9   -1   11     -2.90      0.00
    9   -1   10      0.19      0.00
    9   -1    9      2.29      0.00
    9   -1    8      1.40      0.00
    9   -1    7      1.39      0.00
    9   -1    6     -1.46      0.00
    9   -1    5     -0.75      0.00
    9   -1    4     -0.36      0.00
    9   -1    3     -0.31      0.00
    9   -1    2     -0.92      0.00
    9   -1    1      0.06      0.00
   -9    1    0      2.61      0.00
   -9    1    1      2.07      0.00
   -9    1    2     -1.46      0.00
   -9    1    3     -1.03      0.00
   -9    1    4     -1.39      0.00
   -9    1    5     -2.03      0.00
   -9    1    6      2.75      0.00
   -9    1    7      2.85      0.00
   -9    1    8      1.12      0.00
   -9    1    9     -0.83      0.00
    9   -2   16      0.92      0.00
    9   -2   15     -0.42      0.00
    9   -2   14      0.50      0.00
    9   -2   13      0.28      0.00
    9   -2   12     -1.45      0.00
    9   -2   11     -0.99      0.00
    9   -2   10      1.36      0.00
    9   -2    9      2.84      0.00
    9   -2    8     -0.15      0.00
    9   -2    7     -0.38      0.00
    9   -2    6     -1.18      0.00
    9   -2    5     -0.82      0.00
    9   -2    4     -0.46      0.00
    9   -2    3     -0.50      0.00
    9   -2    2     -0.21      0.00
    9   -2    1      1.01      0.00
   -9    2    0      2.79      0.00
   -9    2    1     -0.76      0.00
   -9    2    2     -2.37      0.00
   -9    2    3     -1.45      0.00
   -9    2    4     -0.19      0.00
   -9    2    5      0.52      0.00
   -9    2    6      3.44      0.00
   -9    2    7      1.60      0.00
   -9    2    8     -0.92      0.00
   -9    2    9     -2.05      0.00
    9   -3   15      0.39      0.00
    9   -3   14      0.34      0.00
    9   -3   13     -1.68      0.00
    9   -3   12     -0.25      0.00
    9   -3   11      0.95      0.00
    9   -3   10      1.49      0.00
    9   -3    9      1.17      0.00
    9   -3    8     -1.58      0.00
    9   -3    7     -1.66      0.00
    9   -3    6     -0.65      0.00
    9   -3    5     -0.30      0.00
    9   -3    4     -0.74      0.00
    9   -3    3      0.29      0.00
    9   -3    2      0.49      0.00
   -9    3    2     -1.12      0.00
   -9    3    3     -0.46      0.00
   -9    3    4      1.67      0.00
   -9    3    5      1.77      0.00
   -9    3    6      1.63      0.00
   -9    3    7     -0.33      0.00
   -9    3    8     -1.67      0.00
   -9    3    9     -2.20      0.00
    9   -4   15      0.90      0.00
    9   -4   14     -0.53      0.00
    9   -4   13     -1.35      0.00
    9   -4   12      1.36      0.00
    9   -4   11      1.65      0.00
    9   -4   10      0.29      0.00
    9   -4    9     -0.98      0.00
    9   -4    8     -1.66      0.00
    9   -4    7     -1.32      0.00
    9   -4    6      0.46      0.00
    9   -4    5      0.81      0.00
    9   -4    4     -0.38      0.00
    9   -4    3      1.82      0.00
    9   -4    2      0.76      0.00
   -9    4    4      2.03      0.00
   -9    4    5      0.59      0.00
   -9    4    6     -0.41      0.00
   -9    4    7     -1.64      0.00
   -9    4    8     -0.96      0.00
   -9    4    9     -1.67      0.00
    9   -5   14     -0.29      0.00
    9   -5   13      0.33      0.00
    9   -5   12      0.90      0.00
    9   -5   11      1.16      0.00
    9   -5   10     -1.09      0.00
    9   -5    9     -1.62      0.00
    9   -5    8     -0.42      0.00
    9   -5    7      0.12      0.00
    9   -5    6      1.39      0.00
    9   -5    5      1.20      0.00
    9   -5    4      0.54      0.00
    9   -5    3      1.75      0.00
    9   -5    2      0.26      0.00
    9   -5    1     -0.02      0.00
   -9    5    6     -0.89      0.00
   -9    5    7     -1.91      0.00
   -9    5    8      0.47      0.00
   -9    5    9     -0.73      0.00
    9   -6   13      0.48      0.00
    9   -6   12     -0.82      0.00
    9   -6   11      0.49      0.00
    9   -6   10     -0.82      0.00
    9   -6    9     -1.12      0.00
    9   -6    8      0.83      0.00
    9   -6    7      1.01      0.00
    9   -6    6      1.18      0.00
    9   -6    5      0.23      0.00
    9   -6    4      0.93      0.00
    9   -6    3     -0.50      0.00
    9   -6    2     -0.35      0.00
    9   -6    1     -2.73      0.00
   -9    6    7     -1.14      0.00
   -9    6    8      1.72      0.00
   -9    6    9      0.05      0.00
    9   -7   13     -0.49      0.00
    9   -7   12     -1.18      0.00
    9   -7   11      0.47      0.00
    9   -7   10      1.01      0.00
    9   -7    9     -1.28      0.00
    9   -7    8      1.30      0.00
    9   -7    7      0.86      0.00
    9   -7    6      0.11      0.00
    9   -7    5     -1.16      0.00
    9   -7    4      0.51      0.00
    9   -7    3     -2.10      0.00
    9   -7    2     -0.20      0.00
    9   -7    1     -3.54      0.00
   -9    7    8      1.81      0.00
    9   -8   12     -0.28      0.00
    9   -8   11      0.72      0.00
    9   -8   10      2.02      0.00
    9   -8    9     -2.31      0.00
    9   -8    8      1.28      0.00
    9   -8    7      0.37      0.00
    9   -8    6     -1.07      0.00
    9   -8    5     -1.66      0.00
    9   -8    4      0.30      0.00
    9   -8    3     -1.03      0.00
    9   -8    2      0.27      0.00
    9   -8    1     -1.48      0.00
    9   -9   11      0.63      0.00
    9   -9   10      0.96      0.00
    9   -9    9     -2.51      0.00
    9   -9    8      1.10      0.00
    9   -9    7      0.01      0.00
    9   -9    6     -1.78      0.00
    9   -9    5     -0.82      0.00
    9   -9    4      0.96      0.00
    9   -9    3      0.87      0.00
    9   -9    2      0.24      0.00
    9  -10   10     -0.47      0.00
    9  -10    9     -1.11      0.00
    9  -10    8      0.77      0.00
    9  -10    7     -0.27      0.00
    9  -10    6     -1.45      0.00
    9  -10    5      0.59      0.00
    9  -10    4      1.55      0.00
    9  -11    8      0.36      0.00
    9  -11    7     -0.53      0.00
    9  -11    6     -0.27      0.00
    9  -11    5      1.05      0.00
    9  -12    7     -0.75      0.00
    9  -12    6      0.65      0.00
    9  -12    5      0.15      0.00
    8   15   17      0.56      0.00
    8   15   16      0.05      0.00
    8   14   17      0.22      0.00
    8   14   16     -0.43      0.00
    8   13   17      0.01      0.00
    8   13   16     -0.91      0.00
    8   13   13      0.69      0.00
    8   13   12     -0.28      0.00
    8   13   11     -0.02      0.00
    8   12   17     -0.51      0.00
    8   12   16     -1.60      0.00
    8   12   15      1.01      0.00
    8   12   14      0.76      0.00
    8   12   13     -0.34      0.00
    8   12   12     -0.73      0.00
    8   12   11      0.22      0.00
    8   12   10     -1.20      0.00
    8   11   16     -1.69      0.00
    8   11   15      1.83      0.00
    8   11   14      0.33      0.00
    8   11   13     -1.30      0.00
    8   11   12     -0.47      0.00
    8   11   11      0.13      0.00
    8   11   10      0.47      0.00
    8   11    9      1.13      0.00
   -8  -11    1      0.43      0.00
   -8  -11    2     -0.74      0.00
   -8  -11    3     -0.14      0.00
   -8  -11    4     -0.38      0.00
    8   10   16     -0.44      0.00
    8   10   14      0.03      0.00
    8   10   13     -1.27      0.00
    8   10   12      0.72      0.00
    8   10   11      0.70      0.00
    8   10   10      1.49      0.00
    8   10    9     -0.71      0.00
    8   10    8     -0.83      0.00
    8   10    1     -0.62      0.00
    8   10    0      0.29      0.00
   -8  -10    1      0.10      0.00
   -8  -10    2     -1.48      0.00
   -8  -10    3     -0.99      0.00
   -8  -10    4      0.19      0.00
   -8  -10    5     -0.63      0.00
    8    9   16      1.07      0.00
    8    9   13     -0.58      0.00
    8    9   12      1.39      0.00
    8    9   11      0.73      0.00
    8    9   10      0.11      0.00
    8    9    9     -1.41      0.00
    8    9    8     -0.07      0.00
    8    9    7      0.12      0.00
    8    9    5      0.65      0.00
    8    9    4     -1.65      0.00
    8    9    3     -1.59      0.00
    8    9    2     -1.65      0.00
    8    9    1      0.06      0.00
    8    9    0      1.03      0.00
   -8   -9    1     -0.45      0.00
   -8   -9    2     -1.51      0.00
   -8   -9    3     -0.55      0.00
   -8   -9    4      1.71      0.00
   -8   -9    5     -0.60      0.00
   -8   -9    6      2.51      0.00
    8    8   11     -0.17      0.00
    8    8   10     -1.67      0.00
    8    8    9     -0.12      0.00
    8    8    8      0.30      0.00
    8    8    7      0.70      0.00
    8    8    6     -0.21      0.00
    8    8    5     -1.30      0.00
    8    8    4     -1.25      0.00
    8    8    3     -0.94      0.00
    8    8    2      1.13      0.00
    8    8    1      0.44      0.00
    8    8    0      1.99      0.00
   -8   -8    1     -1.26      0.00
   -8   -8    2     -1.03      0.00
   -8   -8    3      1.40      0.00
   -8   -8    4      1.99      0.00
   -8   -8    5     -0.33      0.00
   -8   -8    6      1.97      0.00
    8    7   10     -0.92      0.00
    8    7    9      1.76      0.00
    8    7    8      0.15      0.00
    8    7    7      0.22      0.00
    8    7    6     -1.96      0.00
    8    7    5     -0.82      0.00
    8    7    4      0.98      0.00
    8    7    3      1.36      0.00
    8    7    2      1.54      0.00
    8    7    1     -0.47      0.00
    8    7    0      1.53      0.00
   -8   -7    1     -2.02      0.00
   -8   -7    2     -0.67      0.00
   -8   -7    3      2.67      0.00
   -8   -7    4      0.10      0.00
   -8   -7    5     -0.62      0.00
   -8   -7    6      0.13      0.00
   -8   -7    7     -1.06      0.00
    8    6   17      1.84      0.00
    8    6   16      0.77      0.00
    8    6   15     -1.74      0.00
    8    6   14     -0.17      0.00
    8    6   13     -3.20      0.00
    8    6   12      0.90      0.00
    8    6   11      1.23      0.00
    8    6   10      1.25      0.00
    8    6    9      1.28      0.00
    8    6    8     -0.94      0.00
    8    6    7     -1.09      0.00
    8    6    6     -1.68      0.00
    8    6    5      0.82      0.00
    8    6    4      2.23      0.00
    8    6    3      1.75      0.00
    8    6    2     -1.32      0.00
    8    6    1     -1.03      0.00
    8    6    0      0.31      0.00
   -8   -6    1     -1.63      0.00
   -8   -6    2     -0.42      0.00
   -8   -6    3      2.26      0.00
   -8   -6    4     -1.43      0.00
   -8   -6    5     -0.65      0.00
   -8   -6    6     -0.42      0.00
   -8   -6    7     -0.24      0.00
   -8   -6    8      0.11      0.00
    8    5   18     -2.17      0.00
    8    5   17      2.76      0.00
    8    5   16      0.35      0.00
    8    5   15     -2.98      0.00
    8    5   14      0.45      0.00
    8    5   13     -2.11      0.00
    8    5   12      2.37      0.00
    8    5   11      2.79      0.00
    8    5   10      1.06      0.00
    8    5    9     -1.92      0.00
    8    5    8     -1.96      0.00
    8    5    7     -1.29      0.00
    8    5    6      0.50      0.00
    8    5    5      1.43      0.00
    8    5    4      1.80      0.00
    8    5    3      0.55      0.00
    8    5    2     -2.98      0.00
    8    5    1     -0.15      0.00
    8    5    0     -0.16      0.00
   -8   -5    1     -0.11      0.00
   -8   -5    2     -0.13      0.00
   -8   -5    3      1.24      0.00
   -8   -5    4     -0.61      0.00
   -8   -5    5     -0.12      0.00
   -8   -5    6     -0.12      0.00
   -8   -5    7      0.01      0.00
   -8   -5    8      0.33      0.00
    8    4   18     -1.99      0.00
    8    4   17      3.48      0.00
    8    4   16     -1.05      0.00
    8    4   15     -2.86      0.00
    8    4   14      1.80      0.00
    8    4   13     -0.25      0.00
    8    4   12      1.82      0.00
    8    4   11      2.74      0.00
    8    4   10     -1.95      0.00
    8    4    9     -4.29      0.00
    8    4    8     -0.70      0.00
    8    4    7      1.01      0.00
    8    4    6      2.49      0.00
    8    4    5      0.73      0.00
    8    4    4      1.02      0.00
    8    4    3     -0.28      0.00
    8    4    2     -1.91      0.00
    8    4    1     -0.04      0.00
    8    4    0      0.11      0.00
   -8   -4    1      0.89      0.00
   -8   -4    2     -0.04      0.00
   -8   -4    3      0.59      0.00
   -8   -4    4      0.83      0.00
   -8   -4    5     -0.26      0.00
   -8   -4    6     -1.20      0.00
   -8   -4    7     -0.11      0.00
   -8   -4    8      0.52      0.00
   -8   -4    9     -0.53      0.00
    8    3   18     -0.13      0.00
    8    3   17      2.27      0.00
    8    3   16     -2.43      0.00
    8    3   15     -0.78      0.00
    8    3   14      2.41      0.00
    8    3   13      0.32      0.00
    8    3   12     -0.35      0.00
    8    3   11      1.22      0.00
    8    3   10     -4.03      0.00
    8    3    9     -3.11      0.00
    8    3    8      2.78      0.00
    8    3    7      3.47      0.00
    8    3    6      1.58      0.00
    8    3    5     -0.69      0.00
    8    3    4     -0.07      0.00
    8    3    3     -0.70      0.00
    8    3    2     -0.90      0.00
    8    3    1     -1.81      0.00
    8    3    0      0.88      0.00
   -8   -3    1      0.83      0.00
   -8   -3    2      0.01      0.00
   -8   -3    3      0.27      0.00
   -8   -3    4      0.57      0.00
   -8   -3    5     -1.27      0.00
   -8   -3    6     -2.93      0.00
   -8   -3    7      1.00      0.00
   -8   -3    8      1.36      0.00
   -8   -3    9      0.83      0.00
    8    2   17     -0.80      0.00
    8    2   16     -1.78      0.00
    8    2   15      1.52      0.00
    8    2   14      1.12      0.00
    8    2   13     -0.22      0.00
    8    2   12     -1.94      0.00
    8    2   11     -0.34      0.00
    8    2   10     -2.48      0.00
    8    2    9     -0.02      0.00
    8    2    8      5.22      0.00
    8    2    7      2.83      0.00
    8    2    6     -2.12      0.00
    8    2    5     -1.83      0.00
    8    2    4     -1.20      0.00
    8    2    3     -0.54      0.00
    8    2    2     -0.92      0.00
    8    2    1     -2.58      0.00
    8    2    0      2.41      0.00
   -8   -2    1      0.90      0.00
   -8   -2    2      0.11      0.00
   -8   -2    3     -0.04      0.00
   -8   -2    4     -0.92      0.00
   -8   -2    5     -1.51      0.00
   -8   -2    6     -2.40      0.00
   -8   -2    7      3.19      0.00
   -8   -2    8      2.38      0.00
   -8   -2    9      0.67      0.00
   -8   -2   10     -1.17      0.00
    8    1   17     -3.09      0.00
    8    1   16      1.11      0.00
    8    1   15      1.53      0.00
    8    1   14     -0.65      0.00
    8    1   13     -0.17      0.00
    8    1   12     -2.09      0.00
    8    1   11     -0.69      0.00
    8    1   10      1.08      0.00
    8    1    9      1.89      0.00
    8    1    8      4.19      0.00
    8    1    7     -0.04      0.00
    8    1    6     -5.28      0.00
    8    1    5     -1.28      0.00
    8    1    4     -0.55      0.00
    8    1    3      0.78      0.00
    8    1    2     -0.64      0.00
    8    1    1     -0.76      0.00
    8    1    0      3.64      0.00
   -8   -1    1      0.99      0.00
   -8   -1    2     -0.59      0.00
   -8   -1    3     -0.48      0.00
   -8   -1    4     -1.70      0.00
   -8   -1    5     -0.21      0.00
   -8   -1    6      0.42      0.00
   -8   -1    7      3.72      0.00
   -8   -1    8      2.00      0.00
   -8   -1    9     -1.29      0.00
   -8   -1   10     -1.87      0.00
    8    0   17     -2.60      0.00
    8    0   16      3.55      0.00
    8    0   15     -0.60      0.00
    8    0   14     -0.55      0.00
    8    0   13      0.44      0.00
    8    0   12     -1.57      0.00
    8    0   11      0.02      0.00
    8    0   10      3.38      0.00
    8    0    9      1.77      0.00
    8    0    8      0.68      0.00
    8    0    7     -1.81      0.00
    8    0    6     -5.55      0.00
    8    0    5      0.84      0.00
    8    0    4      1.83      0.00
    8    0    3      1.59      0.00
    8    0    2     -0.28      0.00
    8    0    1      0.99      0.00
    8    0    0      2.88      0.00
   -8    0    1     -0.28      0.00
   -8    0    2     -2.01      0.00
   -8    0    3     -0.60      0.00
   -8    0    4     -0.87      0.00
   -8    0    5      1.32      0.00
   -8    0    6      2.56      0.00
   -8    0    7      1.21      0.00
   -8    0    8      0.18      0.00
   -8    0    9     -2.77      0.00
   -8    0   10     -1.15      0.00
    8   -1   16      3.07      0.00
    8   -1   15     -2.01      0.00
    8   -1   14      0.83      0.00
    8   -1   13      0.10      0.00
    8   -1   12     -0.93      0.00
    8   -1   11      0.65      0.00
    8   -1   10      3.37      0.00
    8   -1    9      0.40      0.00
    8   -1    8     -2.75      0.00
    8   -1    7     -1.45      0.00
    8   -1    6     -3.65      0.00
    8   -1    5      2.69      0.00
    8   -1    4      3.23      0.00
    8   -1    3      0.14      0.00
    8   -1    2     -0.66      0.00
    8   -1    1      0.80      0.00
   -8    1    0      0.88      0.00
   -8    1    1     -2.29      0.00
   -8    1    2     -2.04      0.00
   -8    1    3      0.11      0.00
   -8    1    4      0.94      0.00
   -8    1    5      1.63      0.00
   -8    1    6      2.19      0.00
   -8    1    7     -2.03      0.00
   -8    1    8     -1.29      0.00
   -8    1    9     -2.08      0.00
   -8    1   10      0.08      0.00
    8   -2   16      0.71      0.00
    8   -2   15     -1.00      0.00
    8   -2   14      0.88      0.00
    8   -2   13     -0.86      0.00
    8   -2   12      0.11      0.00
    8   -2   11      0.65      0.00
    8   -2   10      2.14      0.00
    8   -2    9     -1.52      0.00
    8   -2    8     -4.06      0.00
    8   -2    7     -0.01      0.00
    8   -2    6     -0.84      0.00
    8   -2    5      2.97      0.00
    8   -2    4      2.26      0.00
    8   -2    3     -1.76      0.00
    8   -2    2     -0.92      0.00
    8   -2    1      0.37      0.00
   -8    2    1     -2.71      0.00
   -8    2    2      0.10      0.00
   -8    2    3      1.06      0.00
   -8    2    4      2.27      0.00
   -8    2    5      0.55      0.00
   -8    2    6      0.28      0.00
   -8    2    7     -3.20      0.00
   -8    2    8     -1.44      0.00
   -8    2    9     -0.18      0.00
   -8    2   10      0.87      0.00
    8   -3   15      0.77      0.00
    8   -3   14     -0.46      0.00
    8   -3   13     -0.56      0.00
    8   -3   12      1.31      0.00
    8   -3   11      0.24      0.00
    8   -3   10      0.49      0.00
    8   -3    9     -2.90      0.00
    8   -3    8     -2.40      0.00
    8   -3    7      1.70      0.00
    8   -3    6      1.84      0.00
    8   -3    5      1.65      0.00
    8   -3    4      0.39      0.00
    8   -3    3     -1.74      0.00
    8   -3    2     -0.42      0.00
    8   -3    1      0.73      0.00
   -8    3    4      1.94      0.00
   -8    3    5     -1.15      0.00
   -8    3    6     -1.38      0.00
   -8    3    7     -2.26      0.00
   -8    3    8     -0.80      0.00
   -8    3    9      1.19      0.00
   -8    3   10      1.28      0.00
    8   -4   15      1.09      0.00
    8   -4   14     -0.83      0.00
    8   -4   13      0.52      0.00
    8   -4   12      1.44      0.00
    8   -4   11     -0.46      0.00
    8   -4   10     -1.19      0.00
    8   -4    9     -2.36      0.00
    8   -4    8      0.81      0.00
    8   -4    7      2.63      0.00
    8   -4    6      2.58      0.00
    8   -4    5     -0.64      0.00
    8   -4    4     -0.79      0.00
    8   -4    3     -0.83      0.00
    8   -4    2     -0.01      0.00
    8   -4    1      0.36      0.00
   -8    4    6     -1.67      0.00
   -8    4    7     -0.63      0.00
   -8    4    8      0.22      0.00
   -8    4    9      1.50      0.00
   -8    4   10      1.65      0.00
    8   -5   14      0.19      0.00
    8   -5   13      0.21      0.00
    8   -5   12      0.28      0.00
    8   -5   11     -1.02      0.00
    8   -5   10     -1.74      0.00
    8   -5    9     -0.37      0.00
    8   -5    8      2.80      0.00
    8   -5    7      1.76      0.00
    8   -5    6      0.80      0.00
    8   -5    5     -2.45      0.00
    8   -5    4     -1.09      0.00
    8   -5    3     -0.79      0.00
    8   -5    2      0.22      0.00
    8   -5    1     -1.01      0.00
   -8    5    7      1.01      0.00
   -8    5    8      1.28      0.00
   -8    5    9      1.01      0.00
   -8    5   10      1.69      0.00
    8   -6   13     -1.11      0.00
    8   -6   12     -0.67      0.00
    8   -6   11     -0.38      0.00
    8   -6   10     -0.63      0.00
    8   -6    9      0.79      0.00
    8   -6    8      2.60      0.00
    8   -6    7     -0.11      0.00
    8   -6    6     -1.50      0.00
    8   -6    5     -2.35      0.00
    8   -6    4     -0.80      0.00
    8   -6    3     -0.68      0.00
    8   -6    2      0.88      0.00
    8   -6    1     -1.37      0.00
   -8    6    8      1.05      0.00
   -8    6    9      0.06      0.00
   -8    6   10      0.78      0.00
    8   -7   13     -1.19      0.00
    8   -7   12     -0.61      0.00
    8   -7   11      1.33      0.00
    8   -7   10      0.39      0.00
    8   -7    9     -0.07      0.00
    8   -7    8      1.67      0.00
    8   -7    7     -1.27      0.00
    8   -7    6     -2.42      0.00
    8   -7    5     -0.65      0.00
    8   -7    4      0.03      0.00
    8   -7    3      0.67      0.00
    8   -7    2      1.25      0.00
    8   -7    1     -0.05      0.00
   -8    7   10     -0.69      0.00
    8   -8   12     -0.40      0.00
    8   -8   11      2.32      0.00
    8   -8   10     -0.35      0.00
    8   -8    9     -1.40      0.00
    8   -8    8      1.30      0.00
    8   -8    7     -1.43      0.00
    8   -8    6     -2.04      0.00
    8   -8    5      1.23      0.00
    8   -8    4      1.17      0.00
    8   -8    3      1.80      0.00
    8   -8    2      0.29      0.00
    8   -8    1      1.07      0.00
    8   -9   11      1.74      0.00
    8   -9   10     -1.66      0.00
    8   -9    9     -1.22      0.00
    8   -9    8      1.20      0.00
    8   -9    7     -1.15      0.00
    8   -9    6     -0.87      0.00
    8   -9    5      2.19      0.00
    8   -9    4      1.82      0.00
    8   -9    3      0.92      0.00
    8   -9    2     -1.20      0.00
    8   -9    1      0.44      0.00
    8  -10   10     -1.62      0.00
    8  -10    9      0.10      0.00
    8  -10    8      0.81      0.00
    8  -10    7     -0.68      0.00
    8  -10    6      0.66      0.00
    8  -10    5      1.54      0.00
    8  -10    4      1.44      0.00
    8  -10    3     -1.10      0.00
    8  -11    9      0.75      0.00
    8  -11    8      0.21      0.00
    8  -11    7     -0.30      0.00
    8  -11    6      1.47      0.00
    8  -11    5     -0.39      0.00
    8  -11    4      0.90      0.00
    8  -12    7     -0.26      0.00
    8  -12    6      1.16      0.00
    8  -12    5     -1.74      0.00
    8  -13    6      0.58      0.00
    8  -13    5     -1.23      0.00
    7   16   14     -3.59      0.00
    7   15   17     -0.31      0.00
    7   15   16     -1.73      0.00
    7   15   15     -0.49      0.00
    7   14   17     -0.87      0.00
    7   14   16     -1.02      0.00
    7   14   15     -0.20      0.00
    7   13   17     -0.77      0.00
    7   13   16      0.25      0.00
    7   13   15      0.59      0.00
    7   13   12     -0.42      0.00
    7   13   11     -1.07      0.00
    7   12   17     -0.76      0.00
    7   12   16      0.96      0.00
    7   12   15      1.22      0.00
    7   12   14      0.83      0.00
    7   12   13     -1.04      0.00
    7   12   12     -0.61      0.00
    7   12   11     -1.67      0.00
    7   12   10     -0.13      0.00
    7   11   16      1.48      0.00
    7   11   15      1.55      0.00
    7   11   14     -0.69      0.00
    7   11   13     -1.72      0.00
    7   11   12      0.26      0.00
    7   11   11     -0.45      0.00
    7   11   10      1.34      0.00
    7   11    9      0.41      0.00
    7   10   16      1.90      0.00
    7   10   15      1.34      0.00
    7   10   13     -1.17      0.00
    7   10   12      1.61      0.00
    7   10   11      0.71      0.00
    7   10   10      0.89      0.00
    7   10    9     -1.01      0.00
    7   10    8      0.59      0.00
    7   10    0      0.10      0.00
   -7  -10    1     -0.52      0.00
   -7  -10    2     -0.79      0.00
   -7  -10    3      0.86      0.00
   -7  -10    4      0.92      0.00
   -7  -10    5     -0.06      0.00
   -7  -10    6      0.36      0.00
    7    9   16      1.34      0.00
    7    9   15      0.39      0.00
    7    9   11      0.33      0.00
    7    9   10     -1.35      0.00
    7    9    9     -1.02      0.00
    7    9    8     -0.01      0.00
    7    9    7      0.00      0.00
    7    9    4     -2.36      0.00
    7    9    3      1.25      0.00
    7    9    2      1.86      0.00
    7    9    1      1.85      0.00
    7    9    0      0.03      0.00
   -7   -9    1     -0.75      0.00
   -7   -9    2     -0.29      0.00
   -7   -9    3      1.78      0.00
   -7   -9    4      0.55      0.00
   -7   -9    5      0.46      0.00
   -7   -9    6     -0.47      0.00
   -7   -9    7     -0.71      0.00
    7    8   15     -0.69      0.00
    7    8   10     -2.35      0.00
    7    8    9      0.58      0.00
    7    8    8     -0.73      0.00
    7    8    7      0.76      0.00
    7    8    6     -2.09      0.00
    7    8    5      1.64      0.00
    7    8    4     -0.08      0.00
    7    8    3      3.04      0.00
    7    8    2      1.49      0.00
    7    8    1     -0.07      0.00
    7    8    0     -0.62      0.00
   -7   -8    1     -2.05      0.00
   -7   -8    2      1.15      0.00
   -7   -8    3      1.49      0.00
   -7   -8    4     -0.61      0.00
   -7   -8    5      0.15      0.00
   -7   -8    6     -1.76      0.00
   -7   -8    7     -0.39      0.00
    7    7   15     -0.88      0.00
    7    7    9      1.28      0.00
    7    7    8     -0.89      0.00
    7    7    7      0.76      0.00
    7    7    6     -1.15      0.00
    7    7    5      3.42      0.00
    7    7    4      1.64      0.00
    7    7    3      0.43      0.00
    7    7    2     -1.39      0.00
    7    7    1     -1.84      0.00
    7    7    0     -1.05      0.00
   -7   -7    1     -1.77      0.00
   -7   -7    2      2.62      0.00
   -7   -7    3      0.34      0.00
   -7   -7    4     -1.65      0.00
   -7   -7    5     -0.27      0.00
   -7   -7    6     -1.76      0.00
   -7   -7    7      0.25      0.00
   -7   -7    8     -0.40      0.00
    7    6   15     -0.16      0.00
    7    6   14      0.80      0.00
    7    6   13      0.71      0.00
    7    6   12      2.36      0.00
    7    6   11     -0.44      0.00
    7    6   10     -1.15      0.00
    7    6    8     -0.45      0.00
    7    6    7      0.33      0.00
    7    6    6      0.80      0.00
    7    6    5      2.57      0.00
    7    6    4      1.62      0.00
    7    6    3     -4.11      0.00
    7    6    2     -2.63      0.00
    7    6    1     -0.68      0.00
    7    6    0      0.27      0.00
   -7   -6    1      0.54      0.00
   -7   -6    2      2.34      0.00
   -7   -6    3     -0.41      0.00
   -7   -6    4     -1.66      0.00
   -7   -6    5     -0.10      0.00
   -7   -6    6     -0.44      0.00
   -7   -6    7      0.76      0.00
   -7   -6    8     -0.18      0.00
   -7   -6    9      0.38      0.00
    7    5   18     -1.36      0.00
    7    5   17      1.67      0.00
    7    5   16     -1.61      0.00
    7    5   15      0.60      0.00
    7    5   14      2.15      0.00
    7    5   13      0.14      0.00
    7    5   12      1.38      0.00
    7    5   11     -0.88      0.00
    7    5   10     -2.91      0.00
    7    5    9     -1.00      0.00
    7    5    8      1.37      0.00
    7    5    7      1.25      0.00
    7    5    6      1.67      0.00
    7    5    5      0.76      0.00
    7    5    4      0.44      0.00
    7    5    3     -5.91      0.00
    7    5    2     -0.91      0.00
    7    5    1      2.10      0.00
    7    5    0      1.96      0.00
   -7   -5    1      1.51      0.00
   -7   -5    2      0.00      0.00
   -7   -5    3     -0.24      0.00
   -7   -5    4     -1.18      0.00
   -7   -5    5     -0.03      0.00
   -7   -5    6      0.56      0.00
   -7   -5    7      1.04      0.00
   -7   -5    8     -0.10      0.00
   -7   -5    9      0.81      0.00
    7    4   18      0.54      0.00
    7    4   17      2.03      0.00
    7    4   16     -1.78      0.00
    7    4   15      0.99      0.00
    7    4   14      1.91      0.00
    7    4   13     -1.71      0.00
    7    4   12     -0.16      0.00
    7    4   11     -0.83      0.00
    7    4   10     -4.06      0.00
    7    4    9      1.41      0.00
    7    4    8      4.02      0.00
    7    4    7      2.06      0.00
    7    4    6     -0.53      0.00
    7    4    5     -0.78      0.00
    7    4    4     -1.41      0.00
    7    4    3     -4.13      0.00
    7    4    2      0.85      0.00
    7    4    1      3.36      0.00
    7    4    0      1.98      0.00
   -7   -4    1     -0.46      0.00
   -7   -4    2     -1.86      0.00
   -7   -4    3      0.29      0.00
   -7   -4    4     -0.95      0.00
   -7   -4    5     -0.39      0.00
   -7   -4    6      0.89      0.00
   -7   -4    7      1.60      0.00
   -7   -4    8     -0.52      0.00
   -7   -4    9      0.70      0.00
   -7   -4   10      0.90      0.00
    7    3   18      1.78      0.00
    7    3   17     -0.17      0.00
    7    3   16     -1.19      0.00
    7    3   15      1.14      0.00
    7    3   14      0.11      0.00
    7    3   13     -2.70      0.00
    7    3   12     -0.51      0.00
    7    3   11      0.47      0.00
    7    3   10     -2.41      0.00
    7    3    9      4.46      0.00
    7    3    8      4.59      0.00
    7    3    7     -0.67      0.00
    7    3    6     -4.57      0.00
    7    3    5     -1.30      0.00
    7    3    4     -2.12      0.00
    7    3    3     -0.48      0.00
    7    3    2      1.17      0.00
    7    3    1      2.94      0.00
    7    3    0      1.09      0.00
   -7   -3    1     -2.58      0.00
   -7   -3    2     -1.19      0.00
   -7   -3    3      0.44      0.00
   -7   -3    4     -0.66      0.00
   -7   -3    5     -0.14      0.00
   -7   -3    6      1.40      0.00
   -7   -3    7      2.25      0.00
   -7   -3    8     -1.42      0.00
   -7   -3    9     -0.55      0.00
   -7   -3   10     -0.71      0.00
    7    2   17     -1.89      0.00
    7    2   16      0.99      0.00
    7    2   15      0.61      0.00
    7    2   14     -1.54      0.00
    7    2   13     -1.53      0.00
    7    2   12      0.35      0.00
    7    2   11      2.25      0.00
    7    2   10      0.35      0.00
    7    2    9      3.78      0.00
    7    2    8      1.83      0.00
    7    2    7     -5.36      0.00
    7    2    6     -5.71      0.00
    7    2    5      0.76      0.00
    7    2    4      0.33      0.00
    7    2    3      2.65      0.00
    7    2    2      0.89      0.00
    7    2    1      2.16      0.00
    7    2    0      0.53      0.00
   -7   -2    1     -2.91      0.00
   -7   -2    2      0.31      0.00
   -7   -2    3      0.11      0.00
   -7   -2    4      0.08      0.00
   -7   -2    5      1.04      0.00
   -7   -2    6      1.54      0.00
   -7   -2    7      1.65      0.00
   -7   -2    8     -2.50      0.00
   -7   -2    9     -2.13      0.00
   -7   -2   10     -0.59      0.00
   -7   -2   11     -0.39      0.00
    7    1   17     -0.63      0.00
    7    1   16      2.95      0.00
    7    1   15     -0.97      0.00
    7    1   14     -1.27      0.00
    7    1   13      0.32      0.00
    7    1   12      1.13      0.00
    7    1   11      2.88      0.00
    7    1   10      1.25      0.00
    7    1    9     -0.32      0.00
    7    1    8     -1.40      0.00
    7    1    7     -6.56      0.00
    7    1    6     -2.16      0.00
    7    1    5      4.79      0.00
    7    1    4      3.58      0.00
    7    1    3      2.02      0.00
    7    1    2      0.02      0.00
    7    1    1      0.65      0.00
    7    1    0     -0.15      0.00
   -7   -1    1     -2.64      0.00
   -7   -1    2      0.50      0.00
   -7   -1    3      0.09      0.00
   -7   -1    4      0.79      0.00
   -7   -1    5      1.56      0.00
   -7   -1    6      0.21      0.00
   -7   -1    7     -0.39      0.00
   -7   -1    8     -2.57      0.00
   -7   -1    9     -2.43      0.00
   -7   -1   10      1.21      0.00
   -7   -1   11      1.33      0.00
    7    0   17      1.73      0.00
    7    0   16      2.35      0.00
    7    0   15     -2.28      0.00
    7    0   14      0.41      0.00
    7    0   13      0.62      0.00
    7    0   12      0.99      0.00
    7    0   11      1.72      0.00
    7    0   10      0.20      0.00
    7    0    9     -3.86      0.00
    7    0    8     -2.17      0.00
    7    0    7     -2.95      0.00
    7    0    6      1.94      0.00
    7    0    5      7.16      0.00
    7    0    4      2.81      0.00
    7    0    3     -2.76      0.00
    7    0    2     -1.05      0.00
    7    0    1     -1.14      0.00
    7    0    0     -0.56      0.00
   -7    0    1     -2.46      0.00
   -7    0    2      0.55      0.00
   -7    0    3      0.79      0.00
   -7    0    4      0.82      0.00
   -7    0    5      0.37      0.00
   -7    0    6     -1.35      0.00
   -7    0    7     -1.86      0.00
   -7    0    8     -0.71      0.00
   -7    0    9     -1.34      0.00
   -7    0   10      2.44      0.00
   -7    0   11      1.44      0.00
    7   -1   16      0.19      0.00
    7   -1   15     -1.73      0.00
    7   -1   14      1.17      0.00
    7   -1   13     -0.41      0.00
    7   -1   12      0.25      0.00
    7   -1   11      0.20      0.00
    7   -1   10     -0.78      0.00
    7   -1    9     -4.60      0.00
    7   -1    8     -0.65      0.00
    7   -1    7      1.68      0.00
    7   -1    6      2.79      0.00
    7   -1    5      5.82      0.00
    7   -1    4     -1.81      0.00
    7   -1    3     -6.68      0.00
    7   -1    2     -0.23      0.00
    7   -1    1     -0.84      0.00
   -7    1    0      0.33      0.00
   -7    1    1     -1.58      0.00
   -7    1    2      1.69      0.00
   -7    1    3      1.18      0.00
   -7    1    4      0.28      0.00
   -7    1    5     -1.38      0.00
   -7    1    6     -1.12      0.00
   -7    1    7     -1.50      0.00
   -7    1    8      1.65      0.00
   -7    1    9     -0.30      0.00
   -7    1   10      1.82      0.00
   -7    1   11      0.39      0.00
    7   -2   16     -0.57      0.00
    7   -2   15     -0.17      0.00
    7   -2   14      0.15      0.00
    7   -2   13     -0.78      0.00
    7   -2   12     -0.14      0.00
    7   -2   11     -0.09      0.00
    7   -2   10     -0.96      0.00
    7   -2    9     -3.29      0.00
    7   -2    8      1.79      0.00
    7   -2    7      4.05      0.00
    7   -2    6      1.14      0.00
    7   -2    5      2.25      0.00
    7   -2    4     -5.23      0.00
    7   -2    3     -5.31      0.00
    7   -2    2      2.54      0.00
    7   -2    1      1.54      0.00
   -7    2    3      0.41      0.00
   -7    2    4     -0.34      0.00
   -7    2    5     -2.23      0.00
   -7    2    6      0.32      0.00
   -7    2    7     -0.42      0.00
   -7    2    8      2.32      0.00
   -7    2    9      0.13      0.00
   -7    2   10      0.40      0.00
   -7    2   11     -0.17      0.00
   -7    2   12     -0.57      0.00
    7   -3   15      0.27      0.00
    7   -3   14     -0.93      0.00
    7   -3   13     -0.01      0.00
    7   -3   12      0.11      0.00
    7   -3   11      0.14      0.00
    7   -3   10     -1.12      0.00
    7   -3    9     -1.08      0.00
    7   -3    8      3.87      0.00
    7   -3    7      3.35      0.00
    7   -3    6     -1.12      0.00
    7   -3    5     -1.31      0.00
    7   -3    4     -4.48      0.00
    7   -3    3     -0.77      0.00
    7   -3    2      4.15      0.00
    7   -3    1      2.53      0.00
   -7    3    5     -1.94      0.00
   -7    3    6      1.06      0.00
   -7    3    7      0.36      0.00
   -7    3    8      1.48      0.00
   -7    3    9      0.54      0.00
   -7    3   10     -0.48      0.00
   -7    3   11     -0.22      0.00
   -7    3   12      0.25      0.00
    7   -4   15     -0.40      0.00
    7   -4   14     -0.85      0.00
    7   -4   13      0.35      0.00
    7   -4   12      0.40      0.00
    7   -4   11     -0.50      0.00
    7   -4   10     -1.08      0.00
    7   -4    9      1.24      0.00
    7   -4    8      4.07      0.00
    7   -4    7      0.23      0.00
    7   -4    6     -3.16      0.00
    7   -4    5     -3.02      0.00
    7   -4    4     -1.13      0.00
    7   -4    3      2.34      0.00
    7   -4    2      2.94      0.00
    7   -4    1      0.75      0.00
   -7    4    7      1.26      0.00
   -7    4    8      0.54      0.00
   -7    4    9      0.87      0.00
   -7    4   10     -0.76      0.00
   -7    4   11     -0.81      0.00
   -7    4   12      0.56      0.00
    7   -5   14     -0.58      0.00
    7   -5   13     -0.06      0.00
    7   -5   12      0.43      0.00
    7   -5   11     -1.03      0.00
    7   -5   10     -0.15      0.00
    7   -5    9      2.47      0.00
    7   -5    8      2.05      0.00
    7   -5    7     -2.99      0.00
    7   -5    6     -3.67      0.00
    7   -5    5     -1.73      0.00
    7   -5    4      1.91      0.00
    7   -5    3      3.04      0.00
    7   -5    2      0.63      0.00
    7   -5    1     -1.16      0.00
   -7    5    8     -0.54      0.00
   -7    5    9      0.53      0.00
   -7    5   10     -1.04      0.00
   -7    5   11     -1.66      0.00
   -7    5   12      1.08      0.00
    7   -6   13      0.09      0.00
    7   -6   12      0.49      0.00
    7   -6   11      0.08      0.00
    7   -6   10      0.52      0.00
    7   -6    9      1.86      0.00
    7   -6    8     -0.29      0.00
    7   -6    7     -3.90      0.00
    7   -6    6     -2.00      0.00
    7   -6    5      1.43      0.00
    7   -6    4      3.00      0.00
    7   -6    3      2.66      0.00
    7   -6    2     -1.23      0.00
    7   -6    1     -1.14      0.00
   -7    6    9      0.04      0.00
   -7    6   10     -1.27      0.00
   -7    6   11     -1.30      0.00
    7   -7   13      0.74      0.00
    7   -7   12      0.54      0.00
    7   -7   11      1.54      0.00
    7   -7   10     -0.72      0.00
    7   -7    9      0.38      0.00
    7   -7    8     -1.01      0.00
    7   -7    7     -2.75      0.00
    7   -7    6      0.45      0.00
    7   -7    5      3.60      0.00
    7   -7    4      2.11      0.00
    7   -7    3      1.30      0.00
    7   -7    2     -2.54      0.00
    7   -7    1     -0.19      0.00
   -7    7   11      0.33      0.00
    7   -8   12      0.36      0.00
    7   -8   11      1.24      0.00
    7   -8   10     -2.58      0.00
    7   -8    9     -0.19      0.00
    7   -8    8     -0.20      0.00
    7   -8    7     -1.30      0.00
    7   -8    6      2.08      0.00
    7   -8    5      3.30      0.00
    7   -8    4      0.30      0.00
    7   -8    3     -1.25      0.00
    7   -8    2     -2.75      0.00
    7   -8    1      0.21      0.00
    7   -9   11     -0.06      0.00
    7   -9   10     -2.42      0.00
    7   -9    9      0.53      0.00
    7   -9    8      0.80      0.00
    7   -9    7     -0.23      0.00
    7   -9    6      2.43      0.00
    7   -9    5      1.17      0.00
    7   -9    4     -1.20      0.00
    7   -9    3     -3.50      0.00
    7   -9    2     -1.25      0.00
    7   -9    1      0.24      0.00
    7  -10   10     -0.65      0.00
    7  -10    9      1.17      0.00
    7  -10    8      0.90      0.00
    7  -10    7      0.34      0.00
    7  -10    6      1.36      0.00
    7  -10    5     -1.25      0.00
    7  -10    4     -1.39      0.00
    7  -10    3     -3.70      0.00
    7  -10    2      1.12      0.00
    7  -10    1      0.75      0.00
    7  -11    9      0.85      0.00
    7  -11    8      0.15      0.00
    7  -11    7      0.21      0.00
    7  -11    6     -0.36      0.00
    7  -11    5     -2.15      0.00
    7  -11    4      0.06      0.00
    7  -11    3     -2.36      0.00
    7  -12    7     -0.11      0.00
    7  -12    6     -0.94      0.00
    7  -12    5     -0.98      0.00
    7  -12    4      1.71      0.00
    7  -13    6     -0.28      0.00
    7  -13    5      0.51      0.00
    6   16   14     -1.42      0.00
    6   16   13      4.56      0.00
    6   15   17     -1.51      0.00
    6   15   16      0.08      0.00
    6   15   15      0.85      0.00
    6   15   14      1.16      0.00
    6   15   13      3.29      0.00
    6   14   17     -0.31      0.00
    6   14   16      1.66      0.00
    6   14   15      1.39      0.00
    6   14   14      2.03      0.00
    6   13   17      0.48      0.00
    6   13   16      1.93      0.00
    6   13   15      0.46      0.00
    6   13   14      0.48      0.00
    6   13   11     -1.70      0.00
    6   12   17      0.72      0.00
    6   12   16      1.20      0.00
    6   12   15     -0.60      0.00
    6   12   14     -1.38      0.00
    6   12   13     -2.13      0.00
    6   12   12     -0.50      0.00
    6   12   11      0.36      0.00
    6   12   10      2.52      0.00
    6   11   16      0.50      0.00
    6   11   15     -0.89      0.00
    6   11   14     -1.88      0.00
    6   11   13      0.15      0.00
    6   11   12      1.04      0.00
    6   11   11      1.95      0.00
    6   11   10      1.27      0.00
    6   11    9     -0.16      0.00
    6   10   16     -0.18      0.00
    6   10   15     -1.06      0.00
    6   10   14     -1.40      0.00
    6   10   12      1.56      0.00
    6   10   11      0.39      0.00
    6   10   10     -1.72      0.00
    6   10    9     -1.02      0.00
    6   10    8     -1.20      0.00
   -6  -10    2      0.45      0.00
   -6  -10    3      0.71      0.00
   -6  -10    4     -0.73      0.00
   -6  -10    5      0.18      0.00
   -6  -10    6     -0.96      0.00
   -6  -10    7      1.04      0.00
    6    9   16     -0.85      0.00
    6    9   15     -1.46      0.00
    6    9   14     -0.65      0.00
    6    9   10     -2.77      0.00
    6    9    9      0.29      0.00
    6    9    8      0.21      0.00
    6    9    7      1.00      0.00
    6    9    0     -2.57      0.00
   -6   -9    1      0.65      0.00
   -6   -9    2      0.31      0.00
   -6   -9    3      0.38      0.00
   -6   -9    4     -0.78      0.00
   -6   -9    5     -0.20      0.00
   -6   -9    6     -1.27      0.00
   -6   -9    7      1.70      0.00
   -6   -9    8     -1.05      0.00
    6    8   15     -1.05      0.00
    6    8   14      0.45      0.00
    6    8    9      2.65      0.00
    6    8    8      2.01      0.00
    6    8    7      1.65      0.00
    6    8    6     -0.10      0.00
    6    8    4     -1.46      0.00
    6    8    3      1.62      0.00
    6    8    2     -4.12      0.00
    6    8    1     -2.28      0.00
    6    8    0     -1.20      0.00
   -6   -8    1      1.05      0.00
   -6   -8    2      1.48      0.00
   -6   -8    3     -1.01      0.00
   -6   -8    4     -0.07      0.00
   -6   -8    5     -1.02      0.00
   -6   -8    6     -0.45      0.00
   -6   -8    7      1.49      0.00
   -6   -8    8     -0.97      0.00
   -6   -8    9      0.78      0.00
    6    7   15      0.51      0.00
    6    7   14      1.44      0.00
    6    7   13      0.68      0.00
    6    7    8      1.96      0.00
    6    7    7     -0.33      0.00
    6    7    6     -0.70      0.00
    6    7    5      0.65      0.00
    6    7    4     -2.81      0.00
    6    7    3     -3.17      0.00
    6    7    2     -1.81      0.00
    6    7    1     -0.91      0.00
    6    7    0      2.23      0.00
   -6   -7    1      2.04      0.00
   -6   -7    2      1.87      0.00
   -6   -7    3     -2.29      0.00
   -6   -7    4      0.53      0.00
   -6   -7    5     -0.84      0.00
   -6   -7    6      0.66      0.00
   -6   -7    7      1.28      0.00
   -6   -7    8     -0.21      0.00
   -6   -7    9      1.17      0.00
    6    6   14      1.13      0.00
    6    6   13     -0.51      0.00
    6    6   12     -1.12      0.00
    6    6    8      0.63      0.00
    6    6    7     -2.22      0.00
    6    6    6     -0.69      0.00
    6    6    5     -0.68      0.00
    6    6    4     -2.65      0.00
    6    6    3     -4.54      0.00
    6    6    2      4.05      0.00
    6    6    1      2.01      0.00
    6    6    0      4.17      0.00
   -6   -6    1      0.99      0.00
   -6   -6    2     -0.44      0.00
   -6   -6    3     -2.37      0.00
   -6   -6    4      0.25      0.00
   -6   -6    5      0.36      0.00
   -6   -6    6      0.83      0.00
   -6   -6    7      1.18      0.00
   -6   -6    8     -0.15      0.00
   -6   -6    9      1.15      0.00
   -6   -6   10     -0.60      0.00
    6    5   17      2.12      0.00
    6    5   16     -0.04      0.00
    6    5   15      0.93      0.00
    6    5   14     -0.39      0.00
    6    5   13     -2.19      0.00
    6    5   12     -0.76      0.00
    6    5   11     -0.34      0.00
    6    5   10      0.95      0.00
    6    5    9      3.39      0.00
    6    5    8     -0.41      0.00
    6    5    7     -2.61      0.00
    6    5    6     -0.80      0.00
    6    5    5     -0.24      0.00
    6    5    4     -2.28      0.00
    6    5    3     -2.04      0.00
    6    5    2      7.63      0.00
    6    5    1      3.25      0.00
    6    5    0      0.87      0.00
   -6   -5    1     -2.70      0.00
   -6   -5    2     -2.84      0.00
   -6   -5    3     -0.74      0.00
   -6   -5    4     -0.26      0.00
   -6   -5    5      1.42      0.00
   -6   -5    6      0.35      0.00
   -6   -5    7      0.58      0.00
   -6   -5    8     -0.96      0.00
   -6   -5    9      0.76      0.00
   -6   -5   10     -1.33      0.00
   -6   -5   11     -1.28      0.00
    6    4   18      1.02      0.00
    6    4   17      0.58      0.00
    6    4   16     -1.12      0.00
    6    4   15     -0.23      0.00
    6    4   14     -1.37      0.00
    6    4   13     -1.85      0.00
    6    4   12      1.50      0.00
    6    4   11      0.62      0.00
    6    4   10      1.07      0.00
    6    4    9      3.72      0.00
    6    4    8     -1.90      0.00
    6    4    7     -3.68      0.00
    6    4    6     -1.60      0.00
    6    4    5      1.11      0.00
    6    4    4     -1.70      0.00
    6    4    3      1.60      0.00
    6    4    2      6.23      0.00
    6    4    1      1.56      0.00
    6    4    0     -4.88      0.00
   -6   -4    1     -4.50      0.00
   -6   -4    2     -1.22      0.00
   -6   -4    3      1.63      0.00
   -6   -4    4      0.00      0.00
   -6   -4    5      1.66      0.00
   -6   -4    6      0.22      0.00
   -6   -4    7     -0.64      0.00
   -6   -4    8     -1.52      0.00
   -6   -4    9      0.28      0.00
   -6   -4   10     -1.50      0.00
   -6   -4   11     -2.05      0.00
    6    3   17     -1.17      0.00
    6    3   16     -0.40      0.00
    6    3   15     -0.59      0.00
    6    3   14     -0.90      0.00
    6    3   13      0.70      0.00
    6    3   12      2.98      0.00
    6    3   11      0.71      0.00
    6    3   10      0.49      0.00
    6    3    9      1.80      0.00
    6    3    8     -4.21      0.00
    6    3    7     -5.06      0.00
    6    3    6     -0.25      0.00
    6    3    5      3.78      0.00
    6    3    4      0.46      0.00
    6    3    3      3.10      0.00
    6    3    2      2.06      0.00
    6    3    1     -0.99      0.00
    6    3    0     -6.94      0.00
   -6   -3    1     -1.71      0.00
   -6   -3    2      2.96      0.00
   -6   -3    3      2.33      0.00
   -6   -3    4      0.54      0.00
   -6   -3    5      0.96      0.00
   -6   -3    6     -0.09      0.00
   -6   -3    7     -1.90      0.00
   -6   -3    8     -1.34      0.00
   -6   -3    9      0.38      0.00
   -6   -3   10     -0.18      0.00
   -6   -3   11     -0.79      0.00
   -6   -3   12      2.93      0.00
    6    2   17     -0.39      0.00
    6    2   16      1.06      0.00
    6    2   15     -0.74      0.00
    6    2   14      0.11      0.00
    6    2   13      2.67      0.00
    6    2   12      1.87      0.00
    6    2   11     -0.14      0.00
    6    2   10     -1.67      0.00
    6    2    9     -1.12      0.00
    6    2    8     -4.52      0.00
    6    2    7     -3.19      0.00
    6    2    6      4.47      0.00
    6    2    5      6.46      0.00
    6    2    4      1.58      0.00
    6    2    3     -0.10      0.00
    6    2    2     -1.54      0.00
    6    2    1     -2.40      0.00
    6    2    0     -4.14      0.00
   -6   -2    1      1.96      0.00
   -6   -2    2      4.61      0.00
   -6   -2    3      0.51      0.00
   -6   -2    4      0.23      0.00
   -6   -2    5     -0.46      0.00
   -6   -2    6     -1.36      0.00
   -6   -2    7     -1.97      0.00
   -6   -2    8     -0.47      0.00
   -6   -2    9      1.32      0.00
   -6   -2   10      1.69      0.00
   -6   -2   11      0.67      0.00
   -6   -2   12      2.35      0.00
    6    1   17      1.46      0.00
    6    1   16      0.56      0.00
    6    1   15     -1.21      0.00
    6    1   14      0.62      0.00
    6    1   13      2.26      0.00
    6    1   12     -0.31      0.00
    6    1   11     -1.25      0.00
    6    1   10     -3.53      0.00
    6    1    9     -1.73      0.00
    6    1    8     -1.23      0.00
    6    1    7      1.43      0.00
    6    1    6      7.47      0.00
    6    1    5      5.19      0.00
    6    1    4     -2.30      0.00
    6    1    3     -5.78      0.00
    6    1    2     -1.77      0.00
    6    1    1     -2.12      0.00
    6    1    0      0.15      0.00
   -6   -1    1      2.56      0.00
   -6   -1    2      3.00      0.00
   -6   -1    3     -1.73      0.00
   -6   -1    4     -0.69      0.00
   -6   -1    5     -1.54      0.00
   -6   -1    6     -1.96      0.00
   -6   -1    7     -0.13      0.00
   -6   -1    8      0.83      0.00
   -6   -1    9      1.83      0.00
   -6   -1   10      2.16      0.00
   -6   -1   11      0.05      0.00
   -6   -1   12     -1.04      0.00
    6    0   17      1.56      0.00
    6    0   16     -1.46      0.00
    6    0   15     -1.03      0.00
    6    0   14      0.43      0.00
    6    0   13      0.59      0.00
    6    0   12     -1.37      0.00
    6    0   11     -1.60      0.00
    6    0   10     -3.06      0.00
    6    0    9      0.18      0.00
    6    0    8      2.73      0.00
    6    0    7      3.77      0.00
    6    0    6      4.52      0.00
    6    0    5      0.03      0.00
    6    0    4     -8.23      0.00
    6    0    3     -6.83      0.00
    6    0    2      2.42      0.00
    6    0    1     -0.34      0.00
    6    0    0      3.03      0.00
   -6    0    1      0.88      0.00
   -6    0    2      1.40      0.00
   -6    0    3     -2.54      0.00
   -6    0    4     -0.98      0.00
   -6    0    5     -1.10      0.00
   -6    0    6     -0.19      0.00
   -6    0    7      1.81      0.00
   -6    0    8      1.50      0.00
   -6    0    9      0.49      0.00
   -6    0   10      1.24      0.00
   -6    0   11     -1.54      0.00
   -6    0   12     -2.66      0.00
    6   -1   16     -1.95      0.00
    6   -1   15     -0.14      0.00
    6   -1   14     -0.13      0.00
    6   -1   13     -0.36      0.00
    6   -1   12     -0.86      0.00
    6   -1   11     -0.58      0.00
    6   -1   10     -1.16      0.00
    6   -1    9      2.02      0.00
    6   -1    8      4.16      0.00
    6   -1    7      1.98      0.00
    6   -1    6     -1.03      0.00
    6   -1    5     -3.67      0.00
    6   -1    4     -9.16      0.00
    6   -1    3     -0.43      0.00
    6   -1    2      7.51      0.00
    6   -1    1      1.17      0.00
   -6    1    1     -0.97      0.00
   -6    1    2      0.87      0.00
   -6    1    3     -2.28      0.00
   -6    1    4     -0.42      0.00
   -6    1    5      0.34      0.00
   -6    1    6      2.19      0.00
   -6    1    7      1.17      0.00
   -6    1    8      0.84      0.00
   -6    1    9     -1.61      0.00
   -6    1   10      0.64      0.00
   -6    1   11     -1.64      0.00
   -6    1   12     -1.00      0.00
   -6    1   13      2.23      0.00
    6   -2   16     -0.46      0.00
    6   -2   15     -0.05      0.00
    6   -2   14     -0.40      0.00
    6   -2   13     -0.07      0.00
    6   -2   12      0.42      0.00
    6   -2   11      0.76      0.00
    6   -2   10     -0.18      0.00
    6   -2    9      2.49      0.00
    6   -2    8      3.25      0.00
    6   -2    7     -1.41      0.00
    6   -2    6     -3.83      0.00
    6   -2    5     -3.11      0.00
    6   -2    4     -4.10      0.00
    6   -2    3      6.81      0.00
    6   -2    2      7.79      0.00
    6   -2    1     -0.14      0.00
   -6    2    4      0.02      0.00
   -6    2    5      1.22      0.00
   -6    2    6      2.42      0.00
   -6    2    7     -1.29      0.00
   -6    2    8      0.04      0.00
   -6    2    9     -2.12      0.00
   -6    2   10      0.78      0.00
   -6    2   11     -0.41      0.00
   -6    2   12      0.75      0.00
   -6    2   13      1.30      0.00
    6   -3   15     -0.84      0.00
    6   -3   14     -0.02      0.00
    6   -3   13      0.60      0.00
    6   -3   12      1.25      0.00
    6   -3   11      0.52      0.00
    6   -3   10     -0.40      0.00
    6   -3    9      2.26      0.00
    6   -3    8      1.30      0.00
    6   -3    7     -4.17      0.00
    6   -3    6     -3.20      0.00
    6   -3    5     -0.42      0.00
    6   -3    4      1.59      0.00
    6   -3    3      7.73      0.00
    6   -3    2      2.65      0.00
    6   -3    1     -3.62      0.00
   -6    3    6      0.99      0.00
   -6    3    7     -2.12      0.00
   -6    3    8      0.03      0.00
   -6    3    9     -1.04      0.00
   -6    3   10      0.52      0.00
   -6    3   11      0.33      0.00
   -6    3   12      0.78      0.00
   -6    3   13     -0.88      0.00
    6   -4   15     -0.72      0.00
    6   -4   14      0.35      0.00
    6   -4   13      1.03      0.00
    6   -4   12      0.87      0.00
    6   -4   11     -0.95      0.00
    6   -4   10     -0.18      0.00
    6   -4    9      1.83      0.00
    6   -4    8     -1.04      0.00
    6   -4    7     -5.25      0.00
    6   -4    6     -0.77      0.00
    6   -4    5      2.27      0.00
    6   -4    4      3.96      0.00
    6   -4    3      3.35      0.00
    6   -4    2     -2.81      0.00
    6   -4    1     -5.13      0.00
   -6    4    0     -4.33      0.00
   -6    4    8     -0.28      0.00
   -6    4    9     -0.02      0.00
   -6    4   10     -0.42      0.00
   -6    4   11      0.33      0.00
   -6    4   12      0.53      0.00
   -6    4   13     -1.89      0.00
    6   -5   14      0.14      0.00
    6   -5   13      1.36      0.00
    6   -5   12     -0.16      0.00
    6   -5   11     -1.40      0.00
    6   -5   10      0.67      0.00
    6   -5    9      1.10      0.00
    6   -5    8     -2.72      0.00
    6   -5    7     -3.88      0.00
    6   -5    6      2.25      0.00
    6   -5    5      4.16      0.00
    6   -5    4      2.96      0.00
    6   -5    3     -1.17      0.00
    6   -5    2     -4.86      0.00
    6   -5    1     -2.71      0.00
   -6    5    0     -0.06      0.00
   -6    5    9      0.57      0.00
   -6    5   10     -1.03      0.00
   -6    5   11      0.58      0.00
   -6    5   12      0.74      0.00
   -6    5   13     -1.60      0.00
    6   -6   13      1.38      0.00
    6   -6   12     -0.79      0.00
    6   -6   11     -0.68      0.00
    6   -6   10      0.54      0.00
    6   -6    9      0.36      0.00
    6   -6    8     -2.77      0.00
    6   -6    7     -1.05      0.00
    6   -6    6      4.33      0.00
    6   -6    5      3.94      0.00
    6   -6    4      0.11      0.00
    6   -6    3     -3.69      0.00
    6   -6    2     -3.96      0.00
    6   -6    1      1.05      0.00
   -6    6    0      2.54      0.00
   -6    6   10     -0.81      0.00
   -6    6   11      0.94      0.00
   -6    6   12      0.43      0.00
   -6    6   13     -0.74      0.00
    6   -7   13      0.49      0.00
    6   -7   12     -0.80      0.00
    6   -7   11     -0.61      0.00
    6   -7   10     -0.62      0.00
    6   -7    9      0.29      0.00
    6   -7    8     -1.49      0.00
    6   -7    7      0.94      0.00
    6   -7    6      4.25      0.00
    6   -7    5      1.26      0.00
    6   -7    4     -2.68      0.00
    6   -7    3     -4.53      0.00
    6   -7    2     -1.44      0.00
    6   -7    1      2.96      0.00
   -6    7    0      2.07      0.00
   -6    7   11      0.42      0.00
   -6    7   12     -0.28      0.00
    6   -8   12     -0.52      0.00
    6   -8   11     -1.11      0.00
    6   -8   10     -0.80      0.00
    6   -8    9      1.03      0.00
    6   -8    8      0.08      0.00
    6   -8    7      1.29      0.00
    6   -8    6      2.46      0.00
    6   -8    5     -1.84      0.00
    6   -8    4     -3.72      0.00
    6   -8    3     -3.45      0.00
    6   -8    2      1.90      0.00
    6   -8    1      2.65      0.00
   -6    8    0      0.87      0.00
   -6    8   12     -0.08      0.00
    6   -9   11     -0.43      0.00
    6   -9   10      0.22      0.00
    6   -9    9      1.57      0.00
    6   -9    8      0.88      0.00
    6   -9    7      0.57      0.00
    6   -9    6      0.01      0.00
    6   -9    5     -3.11      0.00
    6   -9    4     -2.68      0.00
    6   -9    3     -0.50      0.00
    6   -9    2      4.35      0.00
    6   -9    1      1.44      0.00
   -6    9    0      0.11      0.00
    6  -10   10      0.22      0.00
    6  -10    9      1.11      0.00
    6  -10    8      0.42      0.00
    6  -10    7     -0.59      0.00
    6  -10    6     -1.85      0.00
    6  -10    5     -1.92      0.00
    6  -10    4     -0.45      0.00
    6  -10    3      2.36      0.00
    6  -10    2      4.34      0.00
    6  -10    1      0.02      0.00
   -6   10    0     -0.89      0.00
    6  -11    9      0.40      0.00
    6  -11    8     -0.48      0.00
    6  -11    7     -1.15      0.00
    6  -11    6     -1.76      0.00
    6  -11    5      0.52      0.00
    6  -11    4      1.36      0.00
    6  -11    3      2.74      0.00
    6  -12    7     -0.48      0.00
    6  -12    6     -0.26      0.00
    6  -12    5      1.94      0.00
    6  -12    4      1.20      0.00
    6  -12    3      0.69      0.00
    6  -13    6      0.41      0.00
    6  -13    5      1.37      0.00
    6  -13    4     -0.53      0.00
    5   17   11      0.68      0.00
    5   16   14      1.85      0.00
    5   16   13      1.29      0.00
    5   16   12     -2.67      0.00
    5   16   11      1.02      0.00
    5   15   16      1.95      0.00
    5   15   15      0.67      0.00
    5   15   14      0.36      0.00
    5   15   13     -0.28      0.00
    5   15   12     -1.97      0.00
    5   14   17      1.64      0.00
    5   14   16      1.19      0.00
    5   14   15     -0.50      0.00
    5   14   14     -1.84      0.00
    5   14   13     -1.19      0.00
    5   14   12     -1.07      0.00
    5   13   17      1.43      0.00
    5   13   16     -0.13      0.00
    5   13   15     -1.90      0.00
    5   13   14     -2.24      0.00
    5   13   13     -0.24      0.00
    5   13   12      0.49      0.00
    5   12   16     -0.80      0.00
    5   12   15     -1.97      0.00
    5   12   14     -0.50      0.00
    5   12   13      1.67      0.00
    5   12   12      1.62      0.00
    5   12   11      2.22      0.00
    5   12   10     -0.70      0.00
    5   11   16     -0.96      0.00
    5   11   15     -1.06      0.00
    5   11   14      1.30      0.00
    5   11   13      2.13      0.00
    5   11   12      0.72      0.00
    5   11   11      0.24      0.00
    5   11   10     -3.01      0.00
    5   11    9     -0.52      0.00
    5   10   16     -0.93      0.00
    5   10   15     -0.28      0.00
    5   10   14      1.69      0.00
    5   10   13      0.50      0.00
    5   10   11     -2.56      0.00
    5   10   10     -1.79      0.00
    5   10    9      1.06      0.00
    5   10    8      0.50      0.00
    5   10    7      1.94      0.00
    5    9   16     -0.35      0.00
    5    9   15      0.29      0.00
    5    9   14      1.44      0.00
    5    9   13     -1.11      0.00
    5    9   10      2.90      0.00
    5    9    9      3.04      0.00
    5    9    8      2.17      0.00
    5    9    7      0.30      0.00
    5    9    6      0.15      0.00
   -5   -9    1      2.57      0.00
   -5   -9    2     -1.05      0.00
   -5   -9    3     -0.33      0.00
   -5   -9    4      0.62      0.00
   -5   -9    5     -0.62      0.00
   -5   -9    6      1.16      0.00
   -5   -9    7      0.38      0.00
   -5   -9    8     -1.44      0.00
   -5   -9    9      1.11      0.00
    5    8   15      1.00      0.00
    5    8   14      1.30      0.00
    5    8   13     -1.51      0.00
    5    8   12     -0.17      0.00
    5    8    8     -0.03      0.00
    5    8    7     -4.02      0.00
    5    8    6     -1.55      0.00
    5    8    0      3.76      0.00
   -5   -8    1      1.27      0.00
   -5   -8    2     -0.76      0.00
   -5   -8    3     -0.73      0.00
   -5   -8    4      1.14      0.00
   -5   -8    5     -0.90      0.00
   -5   -8    6      1.94      0.00
   -5   -8    7     -0.76      0.00
   -5   -8    8     -0.47      0.00
   -5   -8    9      0.87      0.00
   -5   -8   10     -1.06      0.00
    5    7   15      1.17      0.00
    5    7   14      0.49      0.00
    5    7   13     -1.76      0.00
    5    7   12      0.15      0.00
    5    7    8     -4.42      0.00
    5    7    7     -6.15      0.00
    5    7    6     -0.37      0.00
    5    7    5     -0.44      0.00
    5    7    4      0.38      0.00
    5    7    3      1.32      0.00
    5    7    2      2.98      0.00
    5    7    1      2.52      0.00
    5    7    0      4.22      0.00
   -5   -7    1     -1.65      0.00
   -5   -7    2     -1.61      0.00
   -5   -7    3     -1.23      0.00
   -5   -7    4      1.25      0.00
   -5   -7    5     -0.46      0.00
   -5   -7    6      1.14      0.00
   -5   -7    7     -0.69      0.00
   -5   -7    8     -0.38      0.00
   -5   -7    9      0.13      0.00
   -5   -7   10     -1.30      0.00
    5    6   14     -0.99      0.00
    5    6   13     -1.88      0.00
    5    6   12      0.73      0.00
    5    6    7     -3.40      0.00
    5    6    6      3.37      0.00
    5    6    5      2.24      0.00
    5    6    4      1.62      0.00
    5    6    3      2.72      0.00
    5    6    2      5.38      0.00
    5    6    1     -0.82      0.00
    5    6    0     -0.21      0.00
   -5   -6    1     -4.88      0.00
   -5   -6    2     -2.59      0.00
   -5   -6    3     -0.16      0.00
   -5   -6    4      1.08      0.00
   -5   -6    5      0.35      0.00
   -5   -6    6     -0.51      0.00
   -5   -6    7     -0.06      0.00
   -5   -6    8     -1.27      0.00
   -5   -6    9     -0.16      0.00
   -5   -6   10     -0.95      0.00
   -5   -6   11      1.23      0.00
    5    5   15     -0.49      0.00
    5    5   14     -1.23      0.00
    5    5   13     -0.40      0.00
    5    5   12      2.16      0.00
    5    5   11      1.68      0.00
    5    5   10      0.24      0.00
    5    5    9     -3.02      0.00
    5    5    8     -5.20      0.00
    5    5    7      0.74      0.00
    5    5    6      5.53      0.00
    5    5    5      2.13      0.00
    5    5    4     -0.20      0.00
    5    5    3      2.59      0.00
    5    5    2      2.82      0.00
    5    5    1     -5.84      0.00
    5    5    0     -5.64      0.00
   -5   -5    1     -3.53      0.00
   -5   -5    2     -0.06      0.00
   -5   -5    3      2.71      0.00
   -5   -5    4      0.99      0.00
   -5   -5    5      0.86      0.00
   -5   -5    6     -1.44      0.00
   -5   -5    7      0.19      0.00
   -5   -5    8     -1.18      0.00
   -5   -5    9      0.16      0.00
   -5   -5   10     -0.22      0.00
   -5   -5   11      0.44      0.00
   -5   -5   12     -0.09      0.00
    5    4   17      0.06      0.00
    5    4   16     -1.58      0.00
    5    4   15      0.07      0.00
    5    4   14      0.41      0.00
    5    4   13      1.82      0.00
    5    4   12      1.96      0.00
    5    4   11     -0.36      0.00
    5    4   10     -1.04      0.00
    5    4    9     -3.52      0.00
    5    4    8     -2.98      0.00
    5    4    7      3.20      0.00
    5    4    6      5.21      0.00
    5    4    5      0.35      0.00
    5    4    4     -2.36      0.00
    5    4    3      1.76      0.00
    5    4    2     -1.14      0.00
    5    4    1     -7.71      0.00
    5    4    0     -5.13      0.00
   -5   -4    1      3.62      0.00
   -5   -4    2      4.46      0.00
   -5   -4    3      3.53      0.00
   -5   -4    4      0.03      0.00
   -5   -4    5      0.18      0.00
   -5   -4    6     -1.55      0.00
   -5   -4    7     -0.03      0.00
   -5   -4    8      0.26      0.00
   -5   -4    9      0.38      0.00
   -5   -4   10      0.43      0.00
   -5   -4   11      0.22      0.00
   -5   -4   12      2.26      0.00
    5    3   17      0.14      0.00
    5    3   16     -0.10      0.00
    5    3   15      0.67      0.00
    5    3   14      1.75      0.00
    5    3   13      2.02      0.00
    5    3   12     -1.12      0.00
    5    3   11     -2.14      0.00
    5    3   10     -2.11      0.00
    5    3    9     -2.30      0.00
    5    3    8     -0.54      0.00
    5    3    7      5.14      0.00
    5    3    6      4.51      0.00
    5    3    5     -0.75      0.00
    5    3    4     -3.84      0.00
    5    3    3      0.15      0.00
    5    3    2     -2.47      0.00
    5    3    1     -4.46      0.00
    5    3    0      0.75      0.00
   -5   -3    1      9.20      0.00
   -5   -3    2      4.35      0.00
   -5   -3    3     -0.63      0.00
   -5   -3    4     -1.88      0.00
   -5   -3    5     -1.37      0.00
   -5   -3    6     -1.32      0.00
   -5   -3    7      0.19      0.00
   -5   -3    8      1.61      0.00
   -5   -3    9      0.30      0.00
   -5   -3   10      0.40      0.00
   -5   -3   11      0.42      0.00
   -5   -3   12      2.12      0.00
   -5   -3   13     -2.17      0.00
    5    2   17      0.33      0.00
    5    2   16      0.23      0.00
    5    2   15      0.12      0.00
    5    2   14      1.27      0.00
    5    2   13      0.25      0.00
    5    2   12     -3.96      0.00
    5    2   11     -1.79      0.00
    5    2   10     -1.79      0.00
    5    2    9      1.57      0.00
    5    2    8      1.74      0.00
    5    2    7      6.34      0.00
    5    2    6      2.49      0.00
    5    2    5     -2.90      0.00
    5    2    4     -6.49      0.00
    5    2    3     -1.39      0.00
    5    2    2      0.48      0.00
    5    2    1      0.19      0.00
    5    2    0      4.88      0.00
   -5   -2    1      6.79      0.00
   -5   -2    2     -1.27      0.00
   -5   -2    3     -5.68      0.00
   -5   -2    4     -2.03      0.00
   -5   -2    5     -1.68      0.00
   -5   -2    6     -0.07      0.00
   -5   -2    7      1.60      0.00
   -5   -2    8      1.72      0.00
   -5   -2    9     -0.09      0.00
   -5   -2   10     -0.50      0.00
   -5   -2   11     -0.20      0.00
   -5   -2   12     -0.56      0.00
   -5   -2   13     -2.31      0.00
    5    1   17     -0.69      0.00
    5    1   16     -0.80      0.00
    5    1   15     -0.37      0.00
    5    1   14      0.17      0.00
    5    1   13     -0.72      0.00
    5    1   12     -3.73      0.00
    5    1   11      0.03      0.00
    5    1   10      0.31      0.00
    5    1    9      5.07      0.00
    5    1    8      1.74      0.00
    5    1    7      3.94      0.00
    5    1    6     -2.17      0.00
    5    1    5     -6.22      0.00
    5    1    4     -7.96      0.00
    5    1    3      1.05      0.00
    5    1    2      6.07      0.00
    5    1    1      1.60      0.00
    5    1    0      4.07      0.00
   -5   -1    1     -0.11      0.00
   -5   -1    2     -5.30      0.00
   -5   -1    3     -5.68      0.00
   -5   -1    4      1.07      0.00
   -5   -1    5      0.12      0.00
   -5   -1    6      2.01      0.00
   -5   -1    7      2.54      0.00
   -5   -1    8      0.27      0.00
   -5   -1    9     -1.02      0.00
   -5   -1   10     -1.22      0.00
   -5   -1   11     -1.20      0.00
   -5   -1   12     -1.55      0.00
   -5   -1   13      0.83      0.00
    5    0   16     -0.81      0.00
    5    0   15      0.24      0.00
    5    0   14     -0.10      0.00
    5    0   13      0.03      0.00
    5    0   12     -1.55      0.00
    5    0   11      1.28      0.00
    5    0   10      2.26      0.00
    5    0    9      4.75      0.00
    5    0    8     -0.97      0.00
    5    0    7     -1.04      0.00
    5    0    6     -5.47      0.00
    5    0    5     -6.00      0.00
    5    0    4     -3.69      0.00
    5    0    3      7.84      0.00
    5    0    2      8.85      0.00
    5    0    1     -1.27      0.00
    5    0    0      0.79      0.00
   -5    0    1     -4.30      0.00
   -5    0    2     -3.80      0.00
   -5    0    3     -1.57      0.00
   -5    0    4      4.28      0.00
   -5    0    5      1.77      0.00
   -5    0    6      2.29      0.00
   -5    0    7      0.70      0.00
   -5    0    8     -1.62      0.00
   -5    0    9     -1.68      0.00
   -5    0   10     -0.34      0.00
   -5    0   11     -1.20      0.00
   -5    0   12      0.46      0.00
   -5    0   13      3.24      0.00
   -5    0   14     -0.43      0.00
    5   -1   16      0.71      0.00
    5   -1   15      0.59      0.00
    5   -1   14      0.38      0.00
    5   -1   13      0.88      0.00
    5   -1   12      0.23      0.00
    5   -1   11      1.05      0.00
    5   -1   10      2.20      0.00
    5   -1    9      1.68      0.00
    5   -1    8     -3.38      0.00
    5   -1    7     -3.81      0.00
    5   -1    6     -3.35      0.00
    5   -1    5     -1.04      0.00
    5   -1    4      3.67      0.00
    5   -1    3     11.45      0.00
    5   -1    2      4.24      0.00
    5   -1    1     -6.19      0.00
   -5    1    2     -0.31      0.00
   -5    1    3      1.45      0.00
   -5    1    4      4.04      0.00
   -5    1    5      1.31      0.00
   -5    1    6     -0.34      0.00
   -5    1    7     -2.36      0.00
   -5    1    8     -1.46      0.00
   -5    1    9     -0.99      0.00
   -5    1   10      1.45      0.00
   -5    1   11     -0.61      0.00
   -5    1   12      1.92      0.00
   -5    1   13      1.71      0.00
   -5    1   14     -2.32      0.00
    5   -2   16      1.63      0.00
    5   -2   15     -0.24      0.00
    5   -2   14      0.94      0.00
    5   -2   13      0.76      0.00
    5   -2   12      0.77      0.00
    5   -2   11     -0.33      0.00
    5   -2   10      0.68      0.00
    5   -2    9     -0.56      0.00
    5   -2    8     -3.57      0.00
    5   -2    7     -2.96      0.00
    5   -2    6      1.59      0.00
    5   -2    5      3.13      0.00
    5   -2    4      6.53      0.00
    5   -2    3      6.33      0.00
    5   -2    2     -4.47      0.00
    5   -2    1     -9.19      0.00
   -5    2    0     -2.59      0.00
   -5    2    5      0.17      0.00
   -5    2    6     -3.01      0.00
   -5    2    7     -2.74      0.00
   -5    2    8      1.02      0.00
   -5    2    9      0.06      0.00
   -5    2   10      2.01      0.00
   -5    2   11     -0.62      0.00
   -5    2   12      0.97      0.00
   -5    2   13     -1.29      0.00
   -5    2   14     -1.99      0.00
    5   -3   15     -0.82      0.00
    5   -3   14      1.03      0.00
    5   -3   13      0.26      0.00
    5   -3   12      0.13      0.00
    5   -3   11     -1.77      0.00
    5   -3   10     -0.27      0.00
    5   -3    9     -0.74      0.00
    5   -3    8     -2.75      0.00
    5   -3    7     -0.87      0.00
    5   -3    6      4.66      0.00
    5   -3    5      2.96      0.00
    5   -3    4      3.21      0.00
    5   -3    3     -2.20      0.00
    5   -3    2     -8.73      0.00
    5   -3    1     -6.90      0.00
   -5    3    0      1.32      0.00
   -5    3    7     -0.46      0.00
   -5    3    8      2.58      0.00
   -5    3    9      0.05      0.00
   -5    3   10      1.04      0.00
   -5    3   11     -0.67      0.00
   -5    3   12     -0.33      0.00
   -5    3   13     -2.22      0.00
   -5    3   14      0.75      0.00
    5   -4   15     -0.27      0.00
    5   -4   14      0.33      0.00
    5   -4   13      0.11      0.00
    5   -4   12     -1.11      0.00
    5   -4   11     -1.83      0.00
    5   -4   10      0.31      0.00
    5   -4    9     -0.14      0.00
    5   -4    8     -2.06      0.00
    5   -4    7      1.05      0.00
    5   -4    6      5.15      0.00
    5   -4    5      0.72      0.00
    5   -4    4     -1.49      0.00
    5   -4    3     -5.80      0.00
    5   -4    2     -5.59      0.00
    5   -4    1     -0.49      0.00
   -5    4    0      6.36      0.00
   -5    4    9     -0.11      0.00
   -5    4   10      0.06      0.00
   -5    4   11      0.08      0.00
   -5    4   12     -0.70      0.00
   -5    4   13     -1.28      0.00
   -5    4   14      2.82      0.00
    5   -5   14     -0.63      0.00
    5   -5   13      0.21      0.00
    5   -5   12     -1.76      0.00
    5   -5   11     -0.48      0.00
    5   -5   10      1.36      0.00
    5   -5    9      0.05      0.00
    5   -5    8     -1.42      0.00
    5   -5    7      2.54      0.00
    5   -5    6      4.28      0.00
    5   -5    5     -1.31      0.00
    5   -5    4     -4.18      0.00
    5   -5    3     -3.89      0.00
    5   -5    2      0.02      0.00
    5   -5    1      4.65      0.00
   -5    5    0      6.73      0.00
   -5    5   10     -0.45      0.00
   -5    5   11      0.73      0.00
   -5    5   12     -0.97      0.00
   -5    5   13     -0.13      0.00
   -5    5   14      2.31      0.00
    5   -6   13      0.03      0.00
    5   -6   12     -1.39      0.00
    5   -6   11      0.49      0.00
    5   -6   10      1.67      0.00
    5   -6    9     -0.27      0.00
    5   -6    8     -0.88      0.00
    5   -6    7      2.89      0.00
    5   -6    6      2.37      0.00
    5   -6    5     -3.16      0.00
    5   -6    4     -4.71      0.00
    5   -6    3     -0.89      0.00
    5   -6    2      3.69      0.00
    5   -6    1      4.99      0.00
   -5    6    0      2.22      0.00
   -5    6   11      0.42      0.00
   -5    6   12     -0.88      0.00
   -5    6   13      0.71      0.00
   -5    6   14      0.29      0.00
    5   -7   13     -0.42      0.00
    5   -7   12     -0.68      0.00
    5   -7   11      0.51      0.00
    5   -7   10      1.53      0.00
    5   -7    9     -0.48      0.00
    5   -7    8     -0.53      0.00
    5   -7    7      2.01      0.00
    5   -7    6      0.05      0.00
    5   -7    5     -4.14      0.00
    5   -7    4     -3.35      0.00
    5   -7    3      1.46      0.00
    5   -7    2      5.23      0.00
    5   -7    1      2.00      0.00
   -5    7    0     -2.05      0.00
   -5    7   12      0.57      0.00
   -5    7   13      0.73      0.00
   -5    7   14     -1.21      0.00
    5   -8   12     -0.10      0.00
    5   -8   11      0.93      0.00
    5   -8   10      1.31      0.00
    5   -8    9     -0.16      0.00
    5   -8    8     -0.29      0.00
    5   -8    7      0.60      0.00
    5   -8    6     -1.44      0.00
    5   -8    5     -3.04      0.00
    5   -8    4     -0.74      0.00
    5   -8    3      3.64      0.00
    5   -8    2      4.75      0.00
    5   -8    1     -1.14      0.00
   -5    8    0     -3.37      0.00
   -5    8   13     -0.57      0.00
    5   -9   11      1.80      0.00
    5   -9   10      0.12      0.00
    5   -9    9      0.34      0.00
    5   -9    8     -0.56      0.00
    5   -9    7     -0.88      0.00
    5   -9    6     -1.47      0.00
    5   -9    5     -0.52      0.00
    5   -9    4      1.46      0.00
    5   -9    3      4.73      0.00
    5   -9    2      1.66      0.00
    5   -9    1     -2.88      0.00
   -5    9    0     -3.15      0.00
    5  -10   10     -1.88      0.00
    5  -10    9      0.80      0.00
    5  -10    8     -1.29      0.00
    5  -10    7     -1.60      0.00
    5  -10    6     -0.12      0.00
    5  -10    5      1.46      0.00
    5  -10    4      2.07      0.00
    5  -10    3      3.39      0.00
    5  -10    2     -2.44      0.00
    5  -10    1     -3.18      0.00
   -5   10    0     -2.30      0.00
    5  -11    9      1.41      0.00
    5  -11    8     -1.48      0.00
    5  -11    7     -0.77      0.00
    5  -11    6      1.41      0.00
    5  -11    5      1.72      0.00
    5  -11    4      1.15      0.00
    5  -11    3      0.46      0.00
    5  -11    2     -4.53      0.00
    5  -12    8     -0.86      0.00
    5  -12    7      0.46      0.00
    5  -12    6      1.44      0.00
    5  -12    5      0.71      0.00
    5  -12    4     -0.45      0.00
    5  -12    3     -1.47      0.00
    5  -13    6      0.32      0.00
    5  -13    5     -0.07      0.00
    5  -13    4     -1.42      0.00
    5  -13    3     -0.94      0.00
    5  -14    5     -0.03      0.00
    5  -14    4     -1.11      0.00
    4   17   11      2.37      0.00
    4   17   10      0.56      0.00
    4   17    9     -1.14      0.00
    4   16   14      0.14      0.00
    4   16   13     -1.17      0.00
    4   16   12     -0.53      0.00
    4   16   11      2.04      0.00
    4   16   10     -0.27      0.00
    4   15   16      0.38      0.00
    4   15   15     -0.99      0.00
    4   15   14     -1.05      0.00
    4   15   13      0.29      0.00
    4   15   12     -1.54      0.00
    4   15   11      1.45      0.00
    4   15   10     -0.29      0.00
    4   14   17      1.06      0.00
    4   14   16     -0.90      0.00
    4   14   15     -1.83      0.00
    4   14   14     -0.61      0.00
    4   14   13      1.73      0.00
    4   14   12     -1.43      0.00
    4   14   11      1.35      0.00
    4   13   17      1.33      0.00
    4   13   16     -1.58      0.00
    4   13   15     -1.53      0.00
    4   13   14      1.45      0.00
    4   13   13      2.29      0.00
    4   13   12     -0.51      0.00
    4   13   11      0.59      0.00
    4   12   16     -1.38      0.00
    4   12   15     -0.29      0.00
    4   12   14      2.90      0.00
    4   12   13      1.16      0.00
    4   12   12     -0.80      0.00
    4   12   11     -1.30      0.00
    4   12   10     -1.30      0.00
    4   11   16     -0.53      0.00
    4   11   15      0.87      0.00
    4   11   14      2.08      0.00
    4   11   13     -1.19      0.00
    4   11   12     -1.82      0.00
    4   11   11     -2.04      0.00
    4   11   10     -0.05      0.00
    4   11    9      2.45      0.00
    4   10   16      0.61      0.00
    4   10   15      1.41      0.00
    4   10   14      0.01      0.00
    4   10   13     -2.48      0.00
    4   10   12     -0.93      0.00
    4   10   11     -0.11      0.00
    4   10   10      3.26      0.00
    4   10    9      1.99      0.00
    4   10    8      0.32      0.00
    4   10    7     -1.14      0.00
    4    9   15      1.51      0.00
    4    9   14     -1.28      0.00
    4    9   13     -1.59      0.00
    4    9   12      1.53      0.00
    4    9   11      2.15      0.00
    4    9    9     -1.66      0.00
    4    9    8     -2.14      0.00
    4    9    7     -3.94      0.00
    4    9    6     -0.34      0.00
   -4   -9    5     -0.74      0.00
   -4   -9    6      1.06      0.00
   -4   -9    7     -1.62      0.00
    4    8   15      1.19      0.00
    4    8   14     -1.60      0.00
    4    8   13     -0.32      0.00
    4    8   12      2.66      0.00
    4    8   11      2.11      0.00
    4    8    8     -4.88      0.00
    4    8    7     -2.73      0.00
    4    8    6      3.32      0.00
   -4   -8    1     -3.46      0.00
   -4   -8    2     -0.46      0.00
   -4   -8    3      0.72      0.00
   -4   -8    4      0.38      0.00
   -4   -8    5     -0.37      0.00
   -4   -8    6     -0.19      0.00
   -4   -8    7     -1.39      0.00
   -4   -8    8      0.35      0.00
   -4   -8    9      0.16      0.00
   -4   -8   10     -0.46      0.00
   -4   -8   11      1.06      0.00
    4    7   15      0.41      0.00
    4    7   14     -1.71      0.00
    4    7   13      0.07      0.00
    4    7   12      2.16      0.00
    4    7   11      0.60      0.00
    4    7    7      3.48      0.00
    4    7    6      7.77      0.00
    4    7    5      2.95      0.00
    4    7    4      2.22      0.00
    4    7    3     -0.76      0.00
    4    7    2     -0.65      0.00
    4    7    1     -0.03      0.00
    4    7    0     -2.03      0.00
   -4   -7    1     -4.43      0.00
   -4   -7    2     -0.06      0.00
   -4   -7    3      1.19      0.00
   -4   -7    4      0.03      0.00
   -4   -7    5     -0.56      0.00
   -4   -7    6     -1.19      0.00
   -4   -7    7     -0.11      0.00
   -4   -7    8     -0.04      0.00
   -4   -7    9      0.33      0.00
   -4   -7   10      0.48      0.00
   -4   -7   11      1.32      0.00
    4    6   14     -1.19      0.00
    4    6   13      0.57      0.00
    4    6   12      1.73      0.00
    4    6   11     -0.69      0.00
    4    6    6      7.37      0.00
    4    6    5     -0.91      0.00
    4    6    4     -2.86      0.00
    4    6    3     -3.46      0.00
    4    6    2     -2.62      0.00
    4    6    1     -3.72      0.00
    4    6    0     -2.29      0.00
   -4   -6    1     -1.72      0.00
   -4   -6    2      1.67      0.00
   -4   -6    3      3.02      0.00
   -4   -6    4     -0.21      0.00
   -4   -6    5     -0.52      0.00
   -4   -6    6     -0.92      0.00
   -4   -6    7      1.23      0.00
   -4   -6    8     -0.23      0.00
   -4   -6    9      1.13      0.00
   -4   -6   10      1.31      0.00
   -4   -6   11     -0.11      0.00
   -4   -6   12     -1.35      0.00
    4    5   14      0.19      0.00
    4    5   13      1.10      0.00
    4    5   12      0.83      0.00
    4    5   11     -1.71      0.00
    4    5   10     -3.13      0.00
    4    5    5     -7.00      0.00
    4    5    4     -5.75      0.00
    4    5    3     -1.91      0.00
    4    5    2     -2.59      0.00
    4    5    1     -2.92      0.00
    4    5    0      2.31      0.00
   -4   -5    1      4.44      0.00
   -4   -5    2      3.56      0.00
   -4   -5    3      3.13      0.00
   -4   -5    4     -1.37      0.00
   -4   -5    5     -0.61      0.00
   -4   -5    6     -0.33      0.00
   -4   -5    7      1.71      0.00
   -4   -5    8     -0.15      0.00
   -4   -5    9      1.08      0.00
   -4   -5   10      0.93      0.00
   -4   -5   11     -1.64      0.00
   -4   -5   12     -0.20      0.00
    4    4   15      1.21      0.00
    4    4   14      0.89      0.00
    4    4   13     -0.11      0.00
    4    4   12     -1.33      0.00
    4    4   11     -1.89      0.00
    4    4   10     -1.76      0.00
    4    4    9      1.03      0.00
    4    4    8      6.48      0.00
    4    4    7      3.63      0.00
    4    4    6     -5.34      0.00
    4    4    5     -8.18      0.00
    4    4    4     -2.26      0.00
    4    4    3      3.65      0.00
    4    4    2     -0.71      0.00
    4    4    1      1.51      0.00
    4    4    0      7.43      0.00
   -4   -4    1      6.89      0.00
   -4   -4    2      0.21      0.00
   -4   -4    3     -1.58      0.00
   -4   -4    4     -3.12      0.00
   -4   -4    5     -1.10      0.00
   -4   -4    6     -0.04      0.00
   -4   -4    7      1.33      0.00
   -4   -4    8     -0.47      0.00
   -4   -4    9     -0.05      0.00
   -4   -4   10      0.03      0.00
   -4   -4   11     -1.52      0.00
   -4   -4   12      0.60      0.00
   -4   -4   13     -0.60      0.00
    4    3   17     -0.34      0.00
    4    3   16     -0.08      0.00
    4    3   15      0.53      0.00
    4    3   14      0.04      0.00
    4    3   13     -2.26      0.00
    4    3   12     -2.46      0.00
    4    3   11      0.14      0.00
    4    3   10      0.32      0.00
    4    3    9      3.78      0.00
    4    3    8      4.32      0.00
    4    3    7     -0.05      0.00
    4    3    6     -8.13      0.00
    4    3    5     -4.59      0.00
    4    3    4      3.44      0.00
    4    3    3      7.07      0.00
    4    3    2      0.34      0.00
    4    3    1      2.84      0.00
    4    3    0      6.37      0.00
   -4   -3    1      1.01      0.00
   -4   -3    2     -7.30      0.00
   -4   -3    3     -5.92      0.00
   -4   -3    4     -1.60      0.00
   -4   -3    5     -0.41      0.00
   -4   -3    6      1.14      0.00
   -4   -3    7      1.01      0.00
   -4   -3    8     -0.86      0.00
   -4   -3    9     -0.98      0.00
   -4   -3   10     -0.13      0.00
   -4   -3   11     -0.39      0.00
   -4   -3   12     -0.07      0.00
   -4   -3   13     -0.92      0.00
    4    2   17     -1.12      0.00
    4    2   16     -0.31      0.00
    4    2   15     -0.22      0.00
    4    2   14     -0.80      0.00
    4    2   13     -2.30      0.00
    4    2   12     -0.94      0.00
    4    2   11      3.18      0.00
    4    2   10      2.28      0.00
    4    2    9      4.12      0.00
    4    2    8     -0.52      0.00
    4    2    7     -2.44      0.00
    4    2    6     -7.91      0.00
    4    2    5     -1.08      0.00
    4    2    4      6.59      0.00
    4    2    3      6.37      0.00
    4    2    2     -0.34      0.00
    4    2    1     -1.73      0.00
    4    2    0      1.31      0.00
   -4   -2    1     -6.51      0.00
   -4   -2    2     -9.28      0.00
   -4   -2    3     -2.36      0.00
   -4   -2    4      4.10      0.00
   -4   -2    5      1.34      0.00
   -4   -2    6      2.75      0.00
   -4   -2    7      0.30      0.00
   -4   -2    8     -1.30      0.00
   -4   -2    9     -1.24      0.00
   -4   -2   10      0.58      0.00
   -4   -2   11      0.28      0.00
   -4   -2   12     -0.38      0.00
   -4   -2   13      0.42      0.00
    4    1   17     -1.27      0.00
    4    1   16      0.42      0.00
    4    1   15      0.14      0.00
    4    1   14     -0.34      0.00
    4    1   13     -0.22      0.00
    4    1   12      0.81      0.00
    4    1   11      4.11      0.00
    4    1   10      2.29      0.00
    4    1    9      0.30      0.00
    4    1    8     -5.26      0.00
    4    1    7     -2.90      0.00
    4    1    6     -4.96      0.00
    4    1    5      1.63      0.00
    4    1    4      7.95      0.00
    4    1    3      5.08      0.00
    4    1    2     -2.53      0.00
    4    1    1     -7.13      0.00
    4    1    0     -0.54      0.00
   -4   -1    1     -7.13      0.00
   -4   -1    2     -2.38      0.00
   -4   -1    3      5.66      0.00
   -4   -1    4      7.39      0.00
   -4   -1    5      0.73      0.00
   -4   -1    6      1.80      0.00
   -4   -1    7     -1.68      0.00
   -4   -1    8     -1.92      0.00
   -4   -1    9     -0.68      0.00
   -4   -1   10      1.59      0.00
   -4   -1   11      0.31      0.00
   -4   -1   12      0.70      0.00
   -4   -1   13      1.24      0.00
   -4   -1   14     -0.63      0.00
    4    0   16      1.89      0.00
    4    0   15      0.32      0.00
    4    0   14      0.57      0.00
    4    0   13      0.83      0.00
    4    0   12      0.45      0.00
    4    0   11      2.32      0.00
    4    0   10      0.61      0.00
    4    0    9     -4.26      0.00
    4    0    8     -5.64      0.00
    4    0    7      0.09      0.00
    4    0    6      0.38      0.00
    4    0    5      4.23      0.00
    4    0    4      7.85      0.00
    4    0    3      3.29      0.00
    4    0    2     -6.83      0.00
    4    0    1     -8.29      0.00
    4    0    0      1.63      0.00
   -4    0    1     -2.12      0.00
   -4    0    2      4.58      0.00
   -4    0    3      8.16      0.00
   -4    0    4      3.42      0.00
   -4    0    5     -2.81      0.00
   -4    0    6     -1.64      0.00
   -4    0    7     -2.86      0.00
   -4    0    8     -1.26      0.00
   -4    0    9      0.84      0.00
   -4    0   10      1.98      0.00
   -4    0   11     -0.11      0.00
   -4    0   12      1.27      0.00
   -4    0   13     -0.15      0.00
   -4    0   14     -2.26      0.00
    4   -1   16      2.30      0.00
    4   -1   15     -0.88      0.00
    4   -1   14      0.91      0.00
    4   -1   13     -0.35      0.00
    4   -1   12     -0.75      0.00
    4   -1   11      0.09      0.00
    4   -1   10     -0.54      0.00
    4   -1    9     -5.09      0.00
    4   -1    8     -1.77      0.00
    4   -1    7      4.43      0.00
    4   -1    6      4.02      0.00
    4   -1    5      3.82      0.00
    4   -1    4      3.84      0.00
    4   -1    3     -1.68      0.00
    4   -1    2    -10.94      0.00
    4   -1    1     -5.02      0.00
   -4    1    0      4.47      0.00
   -4    1    3      3.74      0.00
   -4    1    4     -2.69      0.00
   -4    1    5     -4.70      0.00
   -4    1    6     -3.36      0.00
   -4    1    7     -0.42      0.00
   -4    1    8      1.04      0.00
   -4    1    9      1.66      0.00
   -4    1   10      1.04      0.00
   -4    1   11     -0.92      0.00
   -4    1   12      0.40      0.00
   -4    1   13     -1.66      0.00
   -4    1   14     -1.82      0.00
   -4    1   15      1.29      0.00
    4   -2   15     -2.26      0.00
    4   -2   14      0.78      0.00
    4   -2   13     -1.67      0.00
    4   -2   12     -0.99      0.00
    4   -2   11     -0.88      0.00
    4   -2   10     -0.12      0.00
    4   -2    9     -2.61      0.00
    4   -2    8      1.67      0.00
    4   -2    7      5.85      0.00
    4   -2    6      2.61      0.00
    4   -2    5     -0.70      0.00
    4   -2    4     -2.30      0.00
    4   -2    3     -6.50      0.00
    4   -2    2     -9.04      0.00
    4   -2    1      0.91      0.00
   -4    2    0      7.58      0.00
   -4    2    4     -3.86      0.00
   -4    2    6     -1.73      0.00
   -4    2    7      3.54      0.00
   -4    2    8      2.17      0.00
   -4    2    9      0.18      0.00
   -4    2   10     -0.25      0.00
   -4    2   11     -1.25      0.00
   -4    2   12     -0.27      0.00
   -4    2   13     -1.06      0.00
   -4    2   14      0.71      0.00
   -4    2   15      1.72      0.00
    4   -3   15     -2.51      0.00
    4   -3   14      0.50      0.00
    4   -3   13     -1.37      0.00
    4   -3   12     -0.62      0.00
    4   -3   11     -0.46      0.00
    4   -3   10      1.04      0.00
    4   -3    9     -0.20      0.00
    4   -3    8      2.10      0.00
    4   -3    7      3.98      0.00
    4   -3    6     -1.02      0.00
    4   -3    5     -4.77      0.00
    4   -3    4     -4.56      0.00
    4   -3    3     -4.98      0.00
    4   -3    2     -0.80      0.00
    4   -3    1      6.51      0.00
   -4    3    0      9.36      0.00
   -4    3    4     -0.85      0.00
   -4    3    8      0.70      0.00
   -4    3    9     -1.82      0.00
   -4    3   10     -0.31      0.00
   -4    3   11     -0.57      0.00
   -4    3   12     -0.17      0.00
   -4    3   13      0.51      0.00
   -4    3   14      2.47      0.00
   -4    3   15     -0.10      0.00
    4   -4   15     -2.17      0.00
    4   -4   14      0.35      0.00
    4   -4   13      0.08      0.00
    4   -4   12     -0.39      0.00
    4   -4   11      0.72      0.00
    4   -4   10      1.75      0.00
    4   -4    9      0.38      0.00
    4   -4    8      1.04      0.00
    4   -4    7      1.76      0.00
    4   -4    6     -2.58      0.00
    4   -4    5     -5.12      0.00
    4   -4    4     -1.71      0.00
    4   -4    3      1.19      0.00
    4   -4    2      5.57      0.00
    4   -4    1      7.46      0.00
   -4    4    0      5.61      0.00
   -4    4    9     -1.96      0.00
   -4    4   10      0.27      0.00
   -4    4   11      0.07      0.00
   -4    4   12     -0.51      0.00
   -4    4   13      1.30      0.00
   -4    4   14      1.85      0.00
   -4    4   15     -2.42      0.00
    4   -5   14      0.60      0.00
    4   -5   13      1.25      0.00
    4   -5   12     -0.34      0.00
    4   -5   11      1.51      0.00
    4   -5   10      1.41      0.00
    4   -5    9     -0.58      0.00
    4   -5    8      0.14      0.00
    4   -5    7      0.69      0.00
    4   -5    6     -2.18      0.00
    4   -5    5     -3.73      0.00
    4   -5    4      1.61      0.00
    4   -5    3      5.04      0.00
    4   -5    2      4.65      0.00
    4   -5    1      3.08      0.00
   -4    5    0     -1.97      0.00
   -4    5   11     -0.03      0.00
   -4    5   12     -0.88      0.00
   -4    5   13      1.42      0.00
   -4    5   14      0.13      0.00
   -4    5   15     -2.45      0.00
    4   -6   13      1.35      0.00
    4   -6   12     -0.40      0.00
    4   -6   11      1.29      0.00
    4   -6   10      0.39      0.00
    4   -6    9     -1.88      0.00
    4   -6    8     -0.17      0.00
    4   -6    7      0.54      0.00
    4   -6    6     -1.88      0.00
    4   -6    5     -2.58      0.00
    4   -6    4      2.74      0.00
    4   -6    3      4.88      0.00
    4   -6    2      0.51      0.00
    4   -6    1     -2.03      0.00
   -4    6    0     -5.82      0.00
   -4    6   12      0.01      0.00
   -4    6   13      0.87      0.00
   -4    6   14     -0.74      0.00
   -4    6   15     -0.46      0.00
    4   -7   13      0.72      0.00
    4   -7   12     -0.33      0.00
    4   -7   11      0.98      0.00
    4   -7   10     -0.49      0.00
    4   -7    9     -2.11      0.00
    4   -7    8      0.16      0.00
    4   -7    7      0.84      0.00
    4   -7    6     -1.74      0.00
    4   -7    5     -1.08      0.00
    4   -7    4      2.78      0.00
    4   -7    3      3.81      0.00
    4   -7    2     -1.91      0.00
    4   -7    1     -4.21      0.00
   -4    7    0     -3.69      0.00
   -4    7   13     -0.91      0.00
   -4    7   14     -0.26      0.00
   -4    7   15      0.97      0.00
    4   -8   12      0.31      0.00
    4   -8   11      1.06      0.00
    4   -8   10     -1.17      0.00
    4   -8    9     -1.11      0.00
    4   -8    8      0.31      0.00
    4   -8    7      0.82      0.00
    4   -8    6     -0.88      0.00
    4   -8    5      0.51      0.00
    4   -8    4      2.46      0.00
    4   -8    3      2.70      0.00
    4   -8    2     -3.14      0.00
    4   -8    1     -3.94      0.00
   -4    8    0     -0.28      0.00
   -4    8    1      3.31      0.00
   -4    8   14      0.90      0.00
    4   -9   11      0.54      0.00
    4   -9   10     -1.97      0.00
    4   -9    9      0.11      0.00
    4   -9    8     -0.57      0.00
    4   -9    7      0.53      0.00
    4   -9    6      0.58      0.00
    4   -9    5      0.64      0.00
    4   -9    4      1.57      0.00
    4   -9    3      0.52      0.00
    4   -9    2     -4.26      0.00
    4   -9    1     -2.35      0.00
   -4    9    0      1.45      0.00
   -4    9    1      4.37      0.00
    4  -10   10     -2.06      0.00
    4  -10    9      1.04      0.00
    4  -10    8     -1.57      0.00
    4  -10    7      0.98      0.00
    4  -10    6      1.57      0.00
    4  -10    5     -0.47      0.00
    4  -10    4      0.68      0.00
    4  -10    3     -1.77      0.00
    4  -10    2     -3.95      0.00
    4  -10    1      0.33      0.00
   -4   10    0      2.36      0.00
   -4   10    1      3.66      0.00
    4  -11    9      1.53      0.00
    4  -11    8     -1.45      0.00
    4  -11    7      1.76      0.00
    4  -11    6      1.27      0.00
    4  -11    5     -1.18      0.00
    4  -11    4      0.24      0.00
    4  -11    3     -2.48      0.00
    4  -11    2     -1.91      0.00
    4  -11    1      3.09      0.00
   -4   11    0      2.53      0.00
   -4   11    1      1.30      0.00
    4  -12    8     -0.62      0.00
    4  -12    7      1.29      0.00
    4  -12    6      0.38      0.00
    4  -12    5     -1.00      0.00
    4  -12    4     -0.10      0.00
    4  -12    3     -1.63      0.00
    4  -12    2      0.21      0.00
    4  -12    1      4.15      0.00
    4  -13    7     -0.10      0.00
    4  -13    6      0.34      0.00
    4  -13    5     -0.87      0.00
    4  -13    4     -0.28      0.00
    4  -13    3     -0.31      0.00
    4  -14    5     -1.28      0.00
    4  -14    4      0.07      0.00
    3   18    4     -0.35      0.00
    3   17   11     -0.11      0.00
    3   17   10     -2.15      0.00
    3   17    9     -0.40      0.00
    3   17    8      0.44      0.00
    3   17    7     -0.61      0.00
    3   17    6     -1.06      0.00
    3   16   13      0.18      0.00
    3   16   12      0.29      0.00
    3   16   11      0.31      0.00
    3   16   10     -2.92      0.00
    3   16    9      0.03      0.00
    3   16    8      1.17      0.00
    3   16    7      0.43      0.00
    3   15   15     -1.20      0.00
    3   15   14      0.35      0.00
    3   15   13     -0.17      0.00
    3   15   12     -0.94      0.00
    3   15   11      1.42      0.00
    3   15   10     -1.81      0.00
    3   15    9      0.45      0.00
    3   15    8      2.07      0.00
    3   14   17      0.29      0.00
    3   14   16     -1.12      0.00
    3   14   15     -0.91      0.00
    3   14   14      1.64      0.00
    3   14   13     -0.49      0.00
    3   14   12     -0.85      0.00
    3   14   11      1.98      0.00
    3   14   10     -0.20      0.00
    3   14    9      0.05      0.00
    3   13   17     -0.08      0.00
    3   13   16     -1.92      0.00
    3   13   15      0.43      0.00
    3   13   14      2.35      0.00
    3   13   13     -0.90      0.00
    3   13   12     -0.94      0.00
    3   13   11      1.22      0.00
    3   13   10      0.62      0.00
    3   13    9     -0.42      0.00
    3   12   16     -1.63      0.00
    3   12   15      1.59      0.00
    3   12   14      1.38      0.00
    3   12   13     -1.73      0.00
    3   12   12     -1.54      0.00
    3   12   11      0.81      0.00
    3   12   10      1.29      0.00
    3   12    9     -0.04      0.00
    3   11   16     -0.68      0.00
    3   11   15      1.57      0.00
    3   11   14     -0.69      0.00
    3   11   13     -1.79      0.00
    3   11   12     -0.71      0.00
    3   11   11      1.90      0.00
    3   11   10      1.81      0.00
    3   11    9     -0.14      0.00
    3   10   16     -0.07      0.00
    3   10   15      0.73      0.00
    3   10   14     -2.04      0.00
    3   10   13     -0.02      0.00
    3   10   12      1.41      0.00
    3   10   11      2.32      0.00
    3   10   10      0.41      0.00
    3   10    9     -2.16      0.00
    3   10    8     -2.78      0.00
    3   10    7     -1.08      0.00
    3    9   15     -0.14      0.00
    3    9   14     -1.99      0.00
    3    9   13      1.97      0.00
    3    9   12      1.94      0.00
    3    9   11      0.11      0.00
    3    9   10     -2.75      0.00
    3    9    8     -1.06      0.00
    3    9    7      1.45      0.00
    3    9    6      4.10      0.00
    3    8   15     -0.80      0.00
    3    8   14     -1.38      0.00
    3    8   13      2.18      0.00
    3    8   12      0.40      0.00
    3    8   11     -2.52      0.00
    3    8   10     -4.32      0.00
    3    8    7      5.92      0.00
    3    8    6      4.28      0.00
    3    8    5     -0.91      0.00
    3    8    4     -0.95      0.00
   -3   -8    4     -1.12      0.00
   -3   -8    5     -0.53      0.00
   -3   -8    6     -0.86      0.00
   -3   -8    7      0.91      0.00
   -3   -8    8      0.22      0.00
   -3   -8    9      1.25      0.00
   -3   -8   10     -0.24      0.00
    3    7   15     -1.03      0.00
    3    7   14     -0.56      0.00
    3    7   13      1.31      0.00
    3    7   12     -0.62      0.00
    3    7   11     -2.86      0.00
    3    7   10     -2.72      0.00
    3    7    6     -0.54      0.00
    3    7    5     -6.33      0.00
    3    7    4     -4.72      0.00
    3    7    3     -3.92      0.00
    3    7    2      1.17      0.00
    3    7    1      1.13      0.00
    3    7    0     -2.09      0.00
   -3   -7    2      1.88      0.00
   -3   -7    3      0.57      0.00
   -3   -7    4     -1.56      0.00
   -3   -7    5     -0.19      0.00
   -3   -7    6      0.39      0.00
   -3   -7    7      1.81      0.00
   -3   -7    8      0.24      0.00
   -3   -7    9      0.84      0.00
   -3   -7   10      0.07      0.00
   -3   -7   11     -0.91      0.00
    3    6   14      0.36      0.00
    3    6   13      0.53      0.00
    3    6   12     -0.44      0.00
    3    6   11     -1.79      0.00
    3    6   10     -0.35      0.00
    3    6    9      4.80      0.00
    3    6    7      0.97      0.00
    3    6    6     -7.97      0.00
    3    6    5    -10.14      0.00
    3    6    4     -3.94      0.00
    3    6    2      4.58      0.00
    3    6    1      2.22      0.00
    3    6    0      0.84      0.00
   -3   -6    1      1.40      0.00
   -3   -6    2      2.39      0.00
   -3   -6    3      0.81      0.00
   -3   -6    4     -2.03      0.00
   -3   -6    5      0.62      0.00
   -3   -6    6      1.53      0.00
   -3   -6    7      1.33      0.00
   -3   -6    8     -0.39      0.00
   -3   -6    9      0.05      0.00
   -3   -6   10     -0.56      0.00
   -3   -6   11     -2.51      0.00
   -3   -6   12      0.15      0.00
    3    5   14      0.46      0.00
    3    5   13     -0.58      0.00
    3    5   12     -0.34      0.00
    3    5   11     -1.01      0.00
    3    5   10      0.81      0.00
    3    5    9      4.67      0.00
    3    5    4      4.39      0.00
    3    5    3      9.00      0.00
    3    5    2      5.21      0.00
    3    5    1      3.21      0.00
    3    5    0      1.38      0.00
   -3   -5    1      0.32      0.00
   -3   -5    2     -0.52      0.00
   -3   -5    3     -1.34      0.00
   -3   -5    4     -2.86      0.00
   -3   -5    5      0.64      0.00
   -3   -5    6      1.14      0.00
   -3   -5    7     -0.06      0.00
   -3   -5    8     -1.72      0.00
   -3   -5    9     -0.47      0.00
   -3   -5   10     -1.21      0.00
   -3   -5   11     -2.17      0.00
   -3   -5   12      1.95      0.00
    3    4   13     -1.56      0.00
    3    4   12      0.18      0.00
    3    4   11      0.05      0.00
    3    4   10      1.55      0.00
    3    4    9      3.53      0.00
    3    4    8     -0.22      0.00
    3    4    7     -9.68      0.00
    3    4    4     12.52      0.00
    3    4    3      7.73      0.00
    3    4    2     -1.30      0.00
    3    4    1     -0.36      0.00
    3    4    0     -2.26      0.00
   -3   -4    1     -4.49      0.00
   -3   -4    2     -5.23      0.00
   -3   -4    3     -2.36      0.00
   -3   -4    4     -1.03      0.00
   -3   -4    5      0.91      0.00
   -3   -4    6      1.00      0.00
   -3   -4    7     -0.78      0.00
   -3   -4    8     -1.92      0.00
   -3   -4    9      0.30      0.00
   -3   -4   10     -0.50      0.00
   -3   -4   11     -0.37      0.00
   -3   -4   12      2.44      0.00
   -3   -4   13      0.50      0.00
    3    3   16      0.07      0.00
    3    3   15     -0.41      0.00
    3    3   14     -0.97      0.00
    3    3   13     -0.68      0.00
    3    3   12      1.81      0.00
    3    3   11      1.51      0.00
    3    3   10      1.79      0.00
    3    3    9      1.13      0.00
    3    3    8     -3.63      0.00
    3    3    7     -7.09      0.00
    3    3    6      1.00      0.00
    3    3    5     13.00      0.00
    3    3    4     11.06      0.00
    3    3    3     -5.83      0.00
    3    3    2     -9.76      0.00
    3    3    1     -4.85      0.00
    3    3    0     -2.64      0.00
   -3   -3    1     -7.46      0.00
   -3   -3    2     -3.11      0.00
   -3   -3    3      2.85      0.00
   -3   -3    4      3.85      0.00
   -3   -3    5      1.44      0.00
   -3   -3    6      1.54      0.00
   -3   -3    7     -0.94      0.00
   -3   -3    8     -0.69      0.00
   -3   -3    9      1.20      0.00
   -3   -3   10      0.85      0.00
   -3   -3   11      0.23      0.00
   -3   -3   12      1.48      0.00
   -3   -3   13     -0.17      0.00
    3    2   17     -0.59      0.00
    3    2   16      0.47      0.00
    3    2   15      0.22      0.00
    3    2   14     -0.35      0.00
    3    2   13      1.36      0.00
    3    2   12      2.49      0.00
    3    2   11      1.62      0.00
    3    2   10     -0.06      0.00
    3    2    9     -2.90      0.00
    3    2    8     -4.51      0.00
    3    2    7     -1.71      0.00
    3    2    6      4.78      0.00
    3    2    5     11.24      0.00
    3    2    4      2.48      0.00
    3    2    3    -18.61      0.00
    3    2    2     -9.93      0.00
    3    2    1     -0.98      0.00
    3    2    0      4.56      0.00
   -3   -2    1     -4.79      0.00
   -3   -2    2      6.02      0.00
   -3   -2    3      8.77      0.00
   -3   -2    4      4.54      0.00
   -3   -2    5     -0.86      0.00
   -3   -2    6      0.33      0.00
   -3   -2    7     -1.89      0.00
   -3   -2    8      0.19      0.00
   -3   -2    9      1.05      0.00
   -3   -2   10      1.41      0.00
   -3   -2   11     -0.85      0.00
   -3   -2   12      0.53      0.00
   -3   -2   13     -0.85      0.00
    3    1   16      0.82      0.00
    3    1   15      0.35      0.00
    3    1   14      0.28      0.00
    3    1   13      1.64      0.00
    3    1   12      0.70      0.00
    3    1   11      0.19      0.00
    3    1   10     -3.00      0.00
    3    1    9     -5.30      0.00
    3    1    8     -0.93      0.00
    3    1    7      3.85      0.00
    3    1    5      5.20      0.00
    3    1    4     -3.79      0.00
    3    1    3    -18.88      0.00
    3    1    2     -2.17      0.00
    3    1    1      9.65      0.00
    3    1    0      9.52      0.00
   -3   -1    1     -1.48      0.00
   -3   -1    2     10.16      0.00
   -3   -1    3      5.91      0.00
   -3   -1    4     -2.83      0.00
   -3   -1    5     -5.06      0.00
   -3   -1    6     -1.79      0.00
   -3   -1    7     -2.15      0.00
   -3   -1    8      0.81      0.00
   -3   -1    9      0.97      0.00
   -3   -1   10      0.89      0.00
   -3   -1   11     -1.88      0.00
   -3   -1   12      0.05      0.00
   -3   -1   13     -1.29      0.00
   -3   -1   14      0.22      0.00
    3    0   16      0.19      0.00
    3    0   15     -0.84      0.00
    3    0   14      0.22      0.00
    3    0   13     -0.39      0.00
    3    0   12     -1.05      0.00
    3    0   11     -0.53      0.00
    3    0   10     -3.73      0.00
    3    0    9     -3.22      0.00
    3    0    7      6.40      0.00
    3    0    6      0.62      0.00
    3    0    4     -4.82      0.00
    3    0    3    -10.88      0.00
    3    0    2      3.46      0.00
    3    0    1     15.40      0.00
    3    0    0      4.26      0.00
   -3    0    1     -1.61      0.00
   -3    0    2      4.11      0.00
   -3    0    3     -2.32      0.00
   -3    0    4     -9.63      0.00
   -3    0    5     -4.87      0.00
   -3    0    6     -0.64      0.00
   -3    0    7      0.53      0.00
   -3    0    8      1.81      0.00
   -3    0    9      1.23      0.00
   -3    0   10     -0.38      0.00
   -3    0   11     -1.82      0.00
   -3    0   12     -0.19      0.00
   -3    0   13     -0.74      0.00
   -3    0   14      0.65      0.00
    3   -1   16     -0.89      0.00
    3   -1   15     -2.10      0.00
    3   -1   14      0.26      0.00
    3   -1   13     -1.98      0.00
    3   -1   12     -0.22      0.00
    3   -1   11      0.31      0.00
    3   -1   10     -1.75      0.00
    3   -1    9      0.50      0.00
    3   -1    7      3.67      0.00
    3   -1    6     -5.30      0.00
    3   -1    5     -3.72      0.00
    3   -1    4     -3.22      0.00
    3   -1    3     -3.58      0.00
    3   -1    2      3.83      0.00
    3   -1    1     12.69      0.00
   -3    1    0     -2.78      0.00
   -3    1    3     -4.98      0.00
   -3    1    4     -7.34      0.00
   -3    1    5      0.43      0.00
   -3    1    6      3.18      0.00
   -3    1    7      3.59      0.00
   -3    1    8      1.24      0.00
   -3    1    9      0.31      0.00
   -3    1   10     -1.49      0.00
   -3    1   11     -0.83      0.00
   -3    1   12      0.07      0.00
   -3    1   13      0.61      0.00
   -3    1   14      0.64      0.00
   -3    1   15      1.11      0.00
    3   -2   15     -2.18      0.00
    3   -2   14      1.05      0.00
    3   -2   13     -1.34      0.00
    3   -2   12      1.68      0.00
    3   -2   11      1.16      0.00
    3   -2   10      0.23      0.00
    3   -2    9      1.51      0.00
    3   -2    8      4.58      0.00
    3   -2    7     -1.58      0.00
    3   -2    6     -8.83      0.00
    3   -2    5     -2.93      0.00
    3   -2    4      0.42      0.00
    3   -2    3      1.67      0.00
    3   -2    2      3.97      0.00
    3   -2    1      7.57      0.00
   -3    2    0     -3.17      0.00
   -3    2    4     -0.48      0.00
   -3    2    5      3.55      0.00
   -3    2    6      4.62      0.00
   -3    2    7      2.97      0.00
   -3    2    8     -1.76      0.00
   -3    2    9     -1.12      0.00
   -3    2   10     -1.07      0.00
   -3    2   11      0.39      0.00
   -3    2   12      0.52      0.00
   -3    2   13      1.32      0.00
   -3    2   14     -0.09      0.00
   -3    2   15      0.29      0.00
    3   -3   15     -1.47      0.00
    3   -3   14      2.37      0.00
    3   -3   13      0.27      0.00
    3   -3   12      1.85      0.00
    3   -3   11      1.08      0.00
    3   -3   10      0.52      0.00
    3   -3    9     -0.03      0.00
    3   -3    8      0.99      0.00
    3   -3    7     -4.25      0.00
    3   -3    6     -6.45      0.00
    3   -3    5      1.30      0.00
    3   -3    4      5.28      0.00
    3   -3    3      4.83      0.00
    3   -3    2      3.82      0.00
    3   -3    1      2.63      0.00
   -3    3    0     -2.43      0.00
   -3    3    4      2.46      0.00
   -3    3    5      1.38      0.00
   -3    3    6      2.75      0.00
   -3    3    9     -1.02      0.00
   -3    3   10      0.57      0.00
   -3    3   11      0.74      0.00
   -3    3   12      0.21      0.00
   -3    3   13      0.96      0.00
   -3    3   14     -1.17      0.00
   -3    3   15     -1.12      0.00
    3   -4   14      3.53      0.00
    3   -4   13      0.72      0.00
    3   -4   12      0.16      0.00
    3   -4   11      0.64      0.00
    3   -4   10     -0.27      0.00
    3   -4    9     -1.52      0.00
    3   -4    8     -0.28      0.00
    3   -4    7     -3.25      0.00
    3   -4    6     -1.23      0.00
    3   -4    5      4.04      0.00
    3   -4    4      7.28      0.00
    3   -4    3      2.87      0.00
    3   -4    2     -0.30      0.00
    3   -4    1     -2.58      0.00
   -3    4    0     -5.22      0.00
   -3    4    5     -1.10      0.00
   -3    4   10      1.68      0.00
   -3    4   11     -0.11      0.00
   -3    4   12     -0.35      0.00
   -3    4   13      0.62      0.00
   -3    4   14     -1.69      0.00
   -3    4   15     -1.36      0.00
    3   -5   14      3.59      0.00
    3   -5   13     -0.40      0.00
    3   -5   12     -1.62      0.00
    3   -5   11      0.31      0.00
    3   -5   10     -1.12      0.00
    3   -5    9     -1.84      0.00
    3   -5    8      0.20      0.00
    3   -5    7     -1.09      0.00
    3   -5    6      1.29      0.00
    3   -5    5      2.85      0.00
    3   -5    4      5.02      0.00
    3   -5    3     -2.42      0.00
    3   -5    2     -5.13      0.00
    3   -5    1     -4.42      0.00
   -3    5    0     -5.59      0.00
   -3    5    1     -1.85      0.00
   -3    5   11     -0.81      0.00
   -3    5   12      0.12      0.00
   -3    5   13      0.56      0.00
   -3    5   14     -1.20      0.00
   -3    5   15     -0.29      0.00
    3   -6   13     -1.65      0.00
    3   -6   12     -2.08      0.00
    3   -6   11      0.28      0.00
    3   -6   10     -1.34      0.00
    3   -6    9     -1.02      0.00
    3   -6    8      1.22      0.00
    3   -6    7      0.38      0.00
    3   -6    6      0.32      0.00
    3   -6    5      1.03      0.00
    3   -6    4      2.07      0.00
    3   -6    3     -4.64      0.00
    3   -6    2     -5.35      0.00
    3   -6    1     -1.04      0.00
   -3    6    0     -0.77      0.00
   -3    6    1      4.22      0.00
   -3    6   13     -0.05      0.00
   -3    6   14     -0.04      0.00
   -3    6   15      0.29      0.00
    3   -7   13     -1.62      0.00
    3   -7   12     -1.03      0.00
    3   -7   11      0.46      0.00
    3   -7   10     -0.87      0.00
    3   -7    9      0.34      0.00
    3   -7    8      1.83      0.00
    3   -7    7      0.73      0.00
    3   -7    6     -1.16      0.00
    3   -7    5      0.99      0.00
    3   -7    4      0.84      0.00
    3   -7    3     -2.96      0.00
    3   -7    2     -2.97      0.00
    3   -7    1      2.63      0.00
   -3    7    0      3.21      0.00
   -3    7    1      4.00      0.00
   -3    7   14      1.13      0.00
   -3    7   15     -0.51      0.00
   -3    7   16     -0.65      0.00
    3   -8   12      0.46      0.00
    3   -8   11      0.05      0.00
    3   -8   10     -0.50      0.00
    3   -8    9      0.98      0.00
    3   -8    8      1.20      0.00
    3   -8    7      0.38      0.00
    3   -8    6     -1.48      0.00
    3   -8    5      0.86      0.00
    3   -8    4      0.43      0.00
    3   -8    3     -1.64      0.00
    3   -8    2     -1.82      0.00
    3   -8    1      3.06      0.00
   -3    8    0      3.41      0.00
   -3    8    1      0.61      0.00
   -3    8    2     -0.35      0.00
   -3    8   15     -1.48      0.00
   -3    8   16     -0.70      0.00
    3   -9   11     -1.15      0.00
    3   -9   10     -0.52      0.00
    3   -9    9      0.70      0.00
    3   -9    8      0.18      0.00
    3   -9    7      0.53      0.00
    3   -9    6     -1.22      0.00
    3   -9    5     -0.37      0.00
    3   -9    4      0.50      0.00
    3   -9    3     -1.79      0.00
    3   -9    2     -0.98      0.00
    3   -9    1      2.51      0.00
   -3    9    0      2.62      0.00
   -3    9    1     -1.36      0.00
   -3    9    2     -2.88      0.00
   -3    9   15     -1.65      0.00
    3  -10   11     -1.66      0.00
    3  -10   10     -0.28      0.00
    3  -10    9      0.75      0.00
    3  -10    8      0.18      0.00
    3  -10    7      1.25      0.00
    3  -10    6     -1.15      0.00
    3  -10    5     -1.02      0.00
    3  -10    4      1.23      0.00
    3  -10    3     -1.70      0.00
    3  -10    2      0.62      0.00
    3  -10    1      2.81      0.00
   -3   10    0      1.42      0.00
   -3   10    1     -2.32      0.00
   -3   10    2     -3.65      0.00
    3  -11   10      0.05      0.00
    3  -11    9      1.27      0.00
    3  -11    8      0.47      0.00
    3  -11    7      1.10      0.00
    3  -11    6     -1.06      0.00
    3  -11    5     -0.71      0.00
    3  -11    4      1.44      0.00
    3  -11    3     -1.47      0.00
    3  -11    2      1.63      0.00
    3  -11    1      2.76      0.00
   -3   11    0     -1.28      0.00
   -3   11    1     -2.71      0.00
   -3   11    2     -1.84      0.00
   -3   11    3      3.21      0.00
    3  -12    9      1.24      0.00
    3  -12    8     -0.12      0.00
    3  -12    7      0.04      0.00
    3  -12    6     -0.49      0.00
    3  -12    5     -0.96      0.00
    3  -12    4      0.76      0.00
    3  -12    3     -1.53      0.00
    3  -12    2      1.87      0.00
    3  -12    1      1.59      0.00
   -3   12    0     -3.58      0.00
   -3   12    1     -1.42      0.00
   -3   12    2      0.91      0.00
   -3   12    3      2.90      0.00
    3  -13    8     -0.78      0.00
    3  -13    7     -0.35      0.00
    3  -13    6      0.03      0.00
    3  -13    5     -1.72      0.00
    3  -13    4      0.72      0.00
    3  -13    3     -1.10      0.00
    3  -13    2      2.02      0.00
    3  -13    1      0.04      0.00
   -3   13    0     -3.15      0.00
    3  -14    5     -1.28      0.00
    3  -14    4      1.49      0.00
    3  -14    3     -0.30      0.00
    2   18    5      1.25      0.00
    2   18    4     -0.01      0.00
    2   18    3      0.12      0.00
    2   18    2      0.31      0.00
    2   18    1      1.72      0.00
    2   17   10     -0.45      0.00
    2   17    9      1.24      0.00
    2   17    8     -1.05      0.00
    2   17    7      0.69      0.00
    2   17    6      0.05      0.00
    2   17    5      1.74      0.00
    2   17    4     -0.63      0.00
    2   17    3      0.11      0.00
    2   17    2      0.33      0.00
    2   17    1      0.58      0.00
    2   16   13     -0.01      0.00
    2   16   12     -0.23      0.00
    2   16   11     -0.85      0.00
    2   16   10     -0.34      0.00
    2   16    9      2.11      0.00
    2   16    8      0.20      0.00
    2   16    7     -0.05      0.00
    2   16    6     -0.26      0.00
    2   16    5      1.32      0.00
    2   16    4     -0.81      0.00
    2   15   15     -0.75      0.00
    2   15   14     -0.12      0.00
    2   15   13     -0.51      0.00
    2   15   12      1.33      0.00
    2   15   11      0.48      0.00
    2   15   10     -0.48      0.00
    2   15    9      1.49      0.00
    2   15    8      1.02      0.00
    2   15    7     -2.10      0.00
    2   15    6      0.13      0.00
    2   14   16     -1.08      0.00
    2   14   15      0.57      0.00
    2   14   14      0.70      0.00
    2   14   13     -0.33      0.00
    2   14   12      1.94      0.00
    2   14   11      0.83      0.00
    2   14   10     -1.45      0.00
    2   14    9     -0.01      0.00
    2   14    8      0.86      0.00
    2   14    7     -2.71      0.00
    2   13   17     -1.56      0.00
    2   13   16     -0.26      0.00
    2   13   15      1.87      0.00
    2   13   14      0.75      0.00
    2   13   13     -0.77      0.00
    2   13   12      0.79      0.00
    2   13   11      0.80      0.00
    2   13   10     -2.22      0.00
    2   13    9     -0.83      0.00
    2   13    8      0.24      0.00
    2   13    7     -1.03      0.00
    2   12   16      0.36      0.00
    2   12   15      1.89      0.00
    2   12   14     -0.16      0.00
    2   12   13     -1.47      0.00
    2   12   12      0.05      0.00
    2   12   11      1.42      0.00
    2   12   10     -2.15      0.00
    2   12    9     -0.89      0.00
    2   12    8     -0.36      0.00
    2   11   16     -0.09      0.00
    2   11   15      1.15      0.00
    2   11   14     -0.87      0.00
    2   11   13     -0.77      0.00
    2   11   12      0.64      0.00
    2   11   11      1.50      0.00
    2   11   10     -2.12      0.00
    2   11    9     -1.01      0.00
    2   11    8     -0.38      0.00
    2   10   16     -0.79      0.00
    2   10   15      0.61      0.00
    2   10   14     -0.73      0.00
    2   10   13      0.89      0.00
    2   10   12      0.46      0.00
    2   10   11     -0.16      0.00
    2   10   10     -2.24      0.00
    2   10    9     -0.47      0.00
    2   10    8      0.88      0.00
    2    9   15      0.11      0.00
    2    9   14     -0.17      0.00
    2    9   13      1.53      0.00
    2    9   12     -1.08      0.00
    2    9   11     -1.76      0.00
    2    9   10     -0.98      0.00
    2    9    9      1.81      0.00
    2    9    8      2.78      0.00
    2    9    7      2.68      0.00
    2    9    5     -3.75      0.00
    2    8   15     -0.59      0.00
    2    8   14      0.58      0.00
    2    8   13      0.90      0.00
    2    8   12     -1.69      0.00
    2    8   11     -1.27      0.00
    2    8   10      1.55      0.00
    2    8    9      4.32      0.00
    2    8    8      2.76      0.00
    2    8    7     -0.47      0.00
    2    8    6     -4.35      0.00
    2    8    5     -5.08      0.00
    2    8    4     -1.01      0.00
    2    7   15     -0.99      0.00
    2    7   14      1.33      0.00
    2    7   13      0.01      0.00
    2    7   12     -0.67      0.00
    2    7   11      0.06      0.00
    2    7   10      2.72      0.00
    2    7    9      4.36      0.00
    2    7    8     -0.55      0.00
    2    7    7     -5.94      0.00
    2    7    6     -7.68      0.00
    2    7    5     -2.86      0.00
    2    7    4      3.46      0.00
    2    7    3      4.37      0.00
    2    7    1     -2.10      0.00
    2    7    0     -2.29      0.00
   -2   -7    4      0.57      0.00
   -2   -7    5      1.57      0.00
   -2   -7    6      1.31      0.00
   -2   -7    7     -0.39      0.00
   -2   -7    8     -0.37      0.00
   -2   -7    9     -1.12      0.00
   -2   -7   10     -0.81      0.00
   -2   -7   11     -0.60      0.00
    2    6   14      1.18      0.00
    2    6   13     -0.77      0.00
    2    6   12      0.27      0.00
    2    6   11      0.27      0.00
    2    6   10      1.65      0.00
    2    6    9      2.32      0.00
    2    6    8     -4.58      0.00
    2    6    7     -9.41      0.00
    2    6    6     -4.07      0.00
    2    6    5      4.35      0.00
    2    6    4      9.90      0.00
    2    6    3      7.17      0.00
    2    6    1     -5.09      0.00
    2    6    0     -2.48      0.00
   -2   -6    1      1.15      0.00
   -2   -6    2      1.86      0.00
   -2   -6    3     -1.42      0.00
   -2   -6    4      0.10      0.00
   -2   -6    5      1.33      0.00
   -2   -6    6     -0.10      0.00
   -2   -6    7     -1.86      0.00
   -2   -6    8     -1.20      0.00
   -2   -6    9     -1.02      0.00
   -2   -6   10     -0.03      0.00
   -2   -6   11     -0.30      0.00
   -2   -6   12      2.10      0.00
    2    5   14      0.18      0.00
    2    5   13     -0.97      0.00
    2    5   12      0.66      0.00
    2    5   11     -0.08      0.00
    2    5   10      0.68      0.00
    2    5    9      0.63      0.00
    2    5    8     -5.82      0.00
    2    5    7     -7.26      0.00
    2    5    6      5.82      0.00
    2    5    5     11.82      0.00
    2    5    4     10.60      0.00
    2    5    3      1.29      0.00
    2    5    1     -8.58      0.00
    2    5    0     -2.94      0.00
   -2   -5    1      1.60      0.00
   -2   -5    2      0.06      0.00
   -2   -5    3     -1.59      0.00
   -2   -5    4     -0.55      0.00
   -2   -5    5      1.07      0.00
   -2   -5    6     -1.06      0.00
   -2   -5    7     -1.93      0.00
   -2   -5    8     -0.74      0.00
   -2   -5    9      0.97      0.00
   -2   -5   10      0.63      0.00
   -2   -5   11      0.76      0.00
   -2   -5   12      2.69      0.00
    2    4   13      0.10      0.00
    2    4   12      1.23      0.00
    2    4   11     -0.06      0.00
    2    4   10      0.89      0.00
    2    4    9     -0.67      0.00
    2    4    8     -4.25      0.00
    2    4    7     -1.61      0.00
    2    4    3    -13.52      0.00
    2    4    1     -5.94      0.00
    2    4    0      2.01      0.00
   -2   -4    1      2.45      0.00
   -2   -4    2      1.45      0.00
   -2   -4    3      1.39      0.00
   -2   -4    4      0.65      0.00
   -2   -4    5      1.56      0.00
   -2   -4    6     -0.45      0.00
   -2   -4    7     -0.70      0.00
   -2   -4    8      0.76      0.00
   -2   -4    9      2.41      0.00
   -2   -4   10      0.39      0.00
   -2   -4   11      0.61      0.00
   -2   -4   12      1.74      0.00
    2    3   14      0.41      0.00
    2    3   13      1.44      0.00
    2    3   12      0.99      0.00
    2    3   11     -0.50      0.00
    2    3   10      0.32      0.00
    2    3    9     -2.52      0.00
    2    3    8     -1.53      0.00
    2    3    7      2.82      0.00
    2    3    6     11.30      0.00
    2    3    5      1.92      0.00
    2    3    2     -0.84      0.00
    2    3    1      8.65      0.00
    2    3    0      9.95      0.00
   -2   -3    1      1.82      0.00
   -2   -3    2      6.47      0.00
   -2   -3    3      2.56      0.00
   -2   -3    4     -0.11      0.00
   -2   -3    5      0.08      0.00
   -2   -3    6     -0.61      0.00
   -2   -3    7     -0.30      0.00
   -2   -3    8      0.90      0.00
   -2   -3    9      1.35      0.00
   -2   -3   10     -0.74      0.00
   -2   -3   11     -0.74      0.00
   -2   -3   12      0.61      0.00
   -2   -3   13     -2.86      0.00
    2    2   15      0.31      0.00
    2    2   14      0.67      0.00
    2    2   13      1.10      0.00
    2    2   12     -0.89      0.00
    2    2   11     -1.45      0.00
    2    2   10     -1.50      0.00
    2    2    9     -2.71      0.00
    2    2    8      2.12      0.00
    2    2    7      4.02      0.00
    2    2    6      3.55      0.00
    2    2    4    -22.57      0.00
    2    2    3    -10.86      0.00
    2    2    1     21.41      0.00
    2    2    0      4.13      0.00
   -2   -2    1     -3.88      0.00
   -2   -2    2      6.54      0.00
   -2   -2    3     -3.45      0.00
   -2   -2    4     -5.01      0.00
   -2   -2    5     -2.52      0.00
   -2   -2    6     -1.24      0.00
   -2   -2    7     -0.27      0.00
   -2   -2    8      0.13      0.00
   -2   -2    9     -0.15      0.00
   -2   -2   10     -1.18      0.00
   -2   -2   11     -1.34      0.00
   -2   -2   12      0.46      0.00
   -2   -2   13     -1.67      0.00
    2    1   16     -0.61      0.00
    2    1   15     -0.22      0.00
    2    1   14      0.07      0.00
    2    1   13     -0.53      0.00
    2    1   12     -2.20      0.00
    2    1   11     -1.15      0.00
    2    1   10     -2.06      0.00
    2    1    9      0.85      0.00
    2    1    8      5.37      0.00
    2    1    7      1.88      0.00
    2    1    6     -3.31      0.00
    2    1    2     38.70      0.00
    2    1    1     12.29      0.00
    2    1    0    -18.41      0.00
   -2   -1    1     -8.51      0.00
   -2   -1    2      0.74      0.00
   -2   -1    3     -8.99      0.00
   -2   -1    4     -7.02      0.00
   -2   -1    5     -0.25      0.00
   -2   -1    6      0.87      0.00
   -2   -1    7      1.25      0.00
   -2   -1    8      0.47      0.00
   -2   -1    9     -0.31      0.00
   -2   -1   10     -0.63      0.00
   -2   -1   11     -0.70      0.00
   -2   -1   12      0.87      0.00
   -2   -1   13      0.38      0.00
   -2   -1   14      1.64      0.00
    2    0   16     -1.55      0.00
    2    0   15     -0.35      0.00
    2    0   14     -0.24      0.00
    2    0   13     -1.05      0.00
    2    0   12     -0.77      0.00
    2    0   11      0.47      0.00
    2    0   10     -0.66      0.00
    2    0    9      4.62      0.00
    2    0    5     -1.94      0.00
    2    0    2     28.14      0.00
    2    0    0    -32.30      0.00
   -2    0    1     -2.11      0.00
   -2    0    2     -1.24      0.00
   -2    0    3     -4.48      0.00
   -2    0    4     -1.61      0.00
   -2    0    5      6.15      0.00
   -2    0    6      3.97      0.00
   -2    0    7      2.08      0.00
   -2    0    8      0.51      0.00
   -2    0    9     -0.64      0.00
   -2    0   10     -0.36      0.00
   -2    0   11      0.10      0.00
   -2    0   12      1.10      0.00
   -2    0   13      1.41      0.00
   -2    0   14     -0.12      0.00
   -2    0   15     -1.01      0.00
    2   -1   15      0.27      0.00
    2   -1   14      0.44      0.00
    2   -1   13      0.17      0.00
    2   -1   12      1.54      0.00
    2   -1   11      0.94      0.00
    2   -1   10      0.18      0.00
    2   -1    9      4.02      0.00
    2   -1    6     -5.04      0.00
    2   -1    5      4.24      0.00
    2   -1    4      6.67      0.00
    2   -1    3      3.45      0.00
    2   -1    2      8.87      0.00
    2   -1    1    -21.30      0.00
   -2    1    3      3.62      0.00
   -2    1    4      3.56      0.00
   -2    1    5      7.70      0.00
   -2    1    6      3.04      0.00
   -2    1    7     -0.67      0.00
   -2    1    8     -1.42      0.00
   -2    1    9     -1.37      0.00
   -2    1   10     -0.41      0.00
   -2    1   11      0.74      0.00
   -2    1   12      0.81      0.00
   -2    1   13      0.73      0.00
   -2    1   14     -1.85      0.00
   -2    1   15      0.05      0.00
   -2    1   16     -0.19      0.00
    2   -2   15      0.73      0.00
    2   -2   14      1.71      0.00
    2   -2   13      1.05      0.00
    2   -2   12      1.60      0.00
    2   -2   11     -0.53      0.00
    2   -2   10     -0.66      0.00
    2   -2    9      0.69      0.00
    2   -2    8     -2.21      0.00
    2   -2    7     -7.29      0.00
    2   -2    6      0.40      0.00
    2   -2    5      9.00      0.00
    2   -2    4      5.35      0.00
    2   -2    3     -3.05      0.00
    2   -2    2     -2.35      0.00
    2   -2    1    -12.49      0.00
   -2    2    0     -2.18      0.00
   -2    2    4      1.63      0.00
   -2    2    5      2.48      0.00
   -2    2    6     -0.65      0.00
   -2    2    7     -4.13      0.00
   -2    2    8     -2.76      0.00
   -2    2    9     -0.34      0.00
   -2    2   10      0.02      0.00
   -2    2   11      1.16      0.00
   -2    2   12     -0.04      0.00
   -2    2   13     -0.38      0.00
   -2    2   14     -1.99      0.00
   -2    2   15      1.37      0.00
   -2    2   16     -0.42      0.00
    2   -3   15      0.81      0.00
    2   -3   14      2.69      0.00
    2   -3   13     -0.29      0.00
    2   -3   12     -0.35      0.00
    2   -3   11     -1.71      0.00
    2   -3   10     -1.47      0.00
    2   -3    9     -0.84      0.00
    2   -3    8     -1.04      0.00
    2   -3    7     -3.12      0.00
    2   -3    6      5.73      0.00
    2   -3    5      8.77      0.00
    2   -3    4      0.75      0.00
    2   -3    3     -6.56      0.00
    2   -3    2     -5.51      0.00
    2   -3    1     -1.40      0.00
   -2    3    0      3.11      0.00
   -2    3    4     -2.63      0.00
   -2    3    5     -1.22      0.00
   -2    3    6     -1.87      0.00
   -2    3    7     -3.92      0.00
   -2    3    8     -1.35      0.00
   -2    3    9      1.94      0.00
   -2    3   10      0.62      0.00
   -2    3   11      0.65      0.00
   -2    3   12     -0.77      0.00
   -2    3   13     -0.55      0.00
   -2    3   14     -1.01      0.00
   -2    3   15      1.96      0.00
   -2    3   16     -0.16      0.00
    2   -4   14      2.36      0.00
    2   -4   13     -3.10      0.00
    2   -4   12     -1.54      0.00
    2   -4   11     -1.01      0.00
    2   -4   10     -1.20      0.00
    2   -4    9     -0.03      0.00
    2   -4    8      1.15      0.00
    2   -4    7      0.14      0.00
    2   -4    6      5.96      0.00
    2   -4    5      3.11      0.00
    2   -4    4     -3.99      0.00
    2   -4    3     -8.95      0.00
    2   -4    2     -4.14      0.00
    2   -4    1      3.10      0.00
   -2    4    0      0.84      0.00
   -2    4    1      1.68      0.00
   -2    4    5      0.30      0.00
   -2    4    6     -0.62      0.00
   -2    4    7     -1.19      0.00
   -2    4   11     -0.88      0.00
   -2    4   12     -0.32      0.00
   -2    4   13     -0.11      0.00
   -2    4   14     -0.08      0.00
   -2    4   15      1.77      0.00
    2   -5   14      0.57      0.00
    2   -5   13     -4.66      0.00
    2   -5   12     -0.62      0.00
    2   -5   11      0.69      0.00
    2   -5   10     -0.47      0.00
    2   -5    9      1.04      0.00
    2   -5    8      1.79      0.00
    2   -5    7      0.43      0.00
    2   -5    6      2.09      0.00
    2   -5    5     -1.78      0.00
    2   -5    4     -5.08      0.00
    2   -5    3     -7.53      0.00
    2   -5    2      1.41      0.00
    2   -5    1      5.15      0.00
   -2    5    0      1.61      0.00
   -2    5    1      4.43      0.00
   -2    5    5      2.09      0.00
   -2    5   12      0.87      0.00
   -2    5   13     -0.06      0.00
   -2    5   14      0.40      0.00
   -2    5   15      0.85      0.00
    2   -6   13     -3.32      0.00
    2   -6   12      1.12      0.00
    2   -6   11      1.84      0.00
    2   -6   10      0.13      0.00
    2   -6    9      1.44      0.00
    2   -6    8      1.16      0.00
    2   -6    7     -0.63      0.00
    2   -6    6     -0.95      0.00
    2   -6    5     -1.23      0.00
    2   -6    4     -2.60      0.00
    2   -6    3     -2.46      0.00
    2   -6    2      6.14      0.00
    2   -6    1      5.64      0.00
   -2    6    0      1.66      0.00
   -2    6    1      2.34      0.00
   -2    6    2     -1.49      0.00
   -2    6   13     -0.25      0.00
   -2    6   14      0.31      0.00
   -2    6   15     -0.57      0.00
    2   -7   13     -0.52      0.00
    2   -7   12      1.74      0.00
    2   -7   11      1.71      0.00
    2   -7   10      0.27      0.00
    2   -7    9      0.96      0.00
    2   -7    8     -0.01      0.00
    2   -7    7     -1.35      0.00
    2   -7    6     -1.32      0.00
    2   -7    5      1.55      0.00
    2   -7    4     -0.83      0.00
    2   -7    3      0.63      0.00
    2   -7    2      4.96      0.00
    2   -7    1      3.03      0.00
   -2    7    0     -2.07      0.00
   -2    7    1     -2.27      0.00
   -2    7    2     -2.10      0.00
   -2    7   14     -0.25      0.00
   -2    7   15     -1.52      0.00
   -2    7   16      0.56      0.00
    2   -8   12      0.81      0.00
    2   -8   11      0.42      0.00
    2   -8   10     -0.03      0.00
    2   -8    9     -0.06      0.00
    2   -8    8     -0.73      0.00
    2   -8    7     -1.24      0.00
    2   -8    6     -0.79      0.00
    2   -8    5      2.24      0.00
    2   -8    4     -0.89      0.00
    2   -8    3      0.12      0.00
    2   -8    2      1.50      0.00
    2   -8    1      0.64      0.00
   -2    8    0     -3.98      0.00
   -2    8    1     -3.09      0.00
   -2    8    2      0.10      0.00
   -2    8    3     -2.30      0.00
   -2    8   15     -1.36      0.00
   -2    8   16      1.81      0.00
    2   -9   11     -0.86      0.00
    2   -9   10      0.05      0.00
    2   -9    9     -0.18      0.00
    2   -9    8     -0.07      0.00
    2   -9    7     -0.79      0.00
    2   -9    6     -0.55      0.00
    2   -9    5      1.54      0.00
    2   -9    4     -0.29      0.00
    2   -9    3     -0.83      0.00
    2   -9    2      0.76      0.00
    2   -9    1      0.70      0.00
   -2    9    0     -2.74      0.00
   -2    9    1     -1.88      0.00
   -2    9    2      1.40      0.00
   -2    9    3      0.15      0.00
   -2    9   16      2.16      0.00
    2  -10   11     -1.10      0.00
    2  -10   10      0.77      0.00
    2  -10    9      0.94      0.00
    2  -10    8      0.59      0.00
    2  -10    7     -1.04      0.00
    2  -10    6     -0.27      0.00
    2  -10    5      1.03      0.00
    2  -10    4      0.98      0.00
    2  -10    3     -1.43      0.00
    2  -10    2      1.51      0.00
    2  -10    1      0.71      0.00
   -2   10    0     -2.53      0.00
   -2   10    1     -1.22      0.00
   -2   10    2      1.76      0.00
   -2   10    3      2.59      0.00
    2  -11   10      0.94      0.00
    2  -11    9      1.71      0.00
    2  -11    8     -0.66      0.00
    2  -11    7     -1.44      0.00
    2  -11    6      0.07      0.00
    2  -11    5      0.18      0.00
    2  -11    4      1.14      0.00
    2  -11    3     -2.22      0.00
    2  -11    2      1.95      0.00
    2  -11    1     -0.57      0.00
   -2   11    0     -3.22      0.00
   -2   11    1      0.61      0.00
   -2   11    2      2.38      0.00
   -2   11    3      2.52      0.00
   -2   11    4     -0.91      0.00
    2  -12    9      1.42      0.00
    2  -12    8     -2.44      0.00
    2  -12    7     -0.41      0.00
    2  -12    6     -0.19      0.00
    2  -12    5     -0.62      0.00
    2  -12    4      0.95      0.00
    2  -12    3     -1.84      0.00
    2  -12    2      2.61      0.00
    2  -12    1     -1.76      0.00
   -2   12    0     -2.15      0.00
   -2   12    1      2.92      0.00
   -2   12    2      1.81      0.00
   -2   12    3     -0.18      0.00
   -2   12    4     -2.50      0.00
    2  -13    8     -2.29      0.00
    2  -13    7      1.29      0.00
    2  -13    6     -1.08      0.00
    2  -13    5      0.24      0.00
    2  -13    4      1.28      0.00
    2  -13    3     -0.31      0.00
    2  -13    2      2.49      0.00
    2  -13    1     -2.24      0.00
   -2   13    0     -0.38      0.00
   -2   13    1      2.76      0.00
   -2   13    2     -0.10      0.00
   -2   13    3     -1.89      0.00
   -2   13    4     -1.34      0.00
    2  -14    7      1.36      0.00
    2  -14    6     -1.39      0.00
    2  -14    5      2.05      0.00
    2  -14    4      0.71      0.00
    2  -14    3      0.24      0.00
    2  -14    2      0.74      0.00
    2  -14    1     -1.83      0.00
   -2   14    0      0.00      0.00
   -2   14    1      0.96      0.00
    1   18    4     -0.76      0.00
    1   18    3      0.37      0.00
    1   18    2      0.58      0.00
    1   18    1     -1.08      0.00
    1   18    0     -1.47      0.00
    1   17    9     -0.15      0.00
    1   17    8      0.02      0.00
    1   17    7      1.80      0.00
    1   17    6     -1.46      0.00
    1   17    5      1.27      0.00
    1   17    4     -2.02      0.00
    1   17    3      0.98      0.00
    1   17    2     -0.11      0.00
    1   17    1     -1.35      0.00
    1   17    0     -1.10      0.00
   -1  -17    1      1.85      0.00
    1   16   12     -0.07      0.00
    1   16   11      0.10      0.00
    1   16   10      0.80      0.00
    1   16    9      0.53      0.00
    1   16    8     -0.35      0.00
    1   16    7     -0.24      0.00
    1   16    6     -0.33      0.00
    1   16    5      0.80      0.00
    1   16    4     -2.07      0.00
    1   16    3      1.04      0.00
    1   16    2     -0.14      0.00
    1   16    1     -0.99      0.00
    1   16    0      0.09      0.00
   -1  -16    1      2.03      0.00
   -1  -16    2     -0.25      0.00
    1   15   14     -0.24      0.00
    1   15   13      2.45      0.00
    1   15   12      0.64      0.00
    1   15   11     -1.12      0.00
    1   15   10     -0.48      0.00
    1   15    9      1.19      0.00
    1   15    8     -0.99      0.00
    1   15    7     -1.55      0.00
    1   15    6      1.85      0.00
    1   15    5     -0.23      0.00
    1   15    4     -1.63      0.00
    1   15    3      0.75      0.00
    1   15    2      0.26      0.00
    1   14   15      0.85      0.00
    1   14   14      0.20      0.00
    1   14   13      1.52      0.00
    1   14   12     -0.16      0.00
    1   14   11     -2.45      0.00
    1   14   10     -1.27      0.00
    1   14    9      2.01      0.00
    1   14    8     -0.91      0.00
    1   14    7     -1.11      0.00
    1   14    6      2.48      0.00
    1   14    5     -1.00      0.00
    1   14    4     -1.53      0.00
    1   13   16      1.82      0.00
    1   13   15      0.00      0.00
    1   13   14     -0.03      0.00
    1   13   13     -0.85      0.00
    1   13   12     -0.41      0.00
    1   13   11     -2.15      0.00
    1   13   10     -0.84      0.00
    1   13    9      2.45      0.00
    1   13    8     -0.07      0.00
    1   13    7     -0.11      0.00
    1   13    6      1.12      0.00
    1   13    5     -0.86      0.00
    1   12   16      1.09      0.00
    1   12   15     -0.60      0.00
    1   12   14     -0.42      0.00
    1   12   13     -2.03      0.00
    1   12   12      0.86      0.00
    1   12   11     -0.88      0.00
    1   12   10     -0.32      0.00
    1   12    9      2.12      0.00
    1   12    8      0.90      0.00
    1   12    7      0.30      0.00
    1   12    6     -0.43      0.00
    1   12    5     -0.73      0.00
    1   11   16      0.16      0.00
    1   11   15      0.12      0.00
    1   11   14     -0.74      0.00
    1   11   13     -1.18      0.00
    1   11   12      1.49      0.00
    1   11   11     -0.20      0.00
    1   11   10     -0.32      0.00
    1   11    9      1.66      0.00
    1   11    8      1.36      0.00
    1   11    7      0.00      0.00
    1   11    6     -1.12      0.00
    1   10   16      0.04      0.00
    1   10   15      0.94      0.00
    1   10   14     -1.12      0.00
    1   10   13      0.10      0.00
    1   10   12      0.36      0.00
    1   10   11      0.12      0.00
    1   10   10      0.02      0.00
    1   10    9      1.50      0.00
    1   10    8      0.82      0.00
    1   10    7     -0.68      0.00
    1   10    6     -1.53      0.00
    1   10    5     -3.37      0.00
    1    9   15      0.69      0.00
    1    9   14     -0.87      0.00
    1    9   13      0.52      0.00
    1    9   12     -0.70      0.00
    1    9   11      0.72      0.00
    1    9   10      0.96      0.00
    1    9    9      0.90      0.00
    1    9    8     -0.94      0.00
    1    9    7     -1.54      0.00
    1    9    6     -2.10      0.00
    1    9    5     -2.57      0.00
    1    9    4      2.97      0.00
    1    8   15      0.15      0.00
    1    8   14      0.31      0.00
    1    8   13      0.06      0.00
    1    8   12     -0.53      0.00
    1    8   11      0.82      0.00
    1    8   10      1.22      0.00
    1    8    9     -0.65      0.00
    1    8    8     -3.38      0.00
    1    8    7     -1.98      0.00
    1    8    6     -1.51      0.00
    1    8    5      1.44      0.00
    1    8    4      4.60      0.00
    1    7   15      0.08      0.00
    1    7   14      1.01      0.00
    1    7   13     -0.86      0.00
    1    7   12     -0.14      0.00
    1    7   11      0.03      0.00
    1    7   10      0.36      0.00
    1    7    9     -1.74      0.00
    1    7    8     -4.84      0.00
    1    7    7     -0.53      0.00
    1    7    6      2.53      0.00
    1    7    5      6.25      0.00
    1    7    4      4.22      0.00
    1    7    3     -0.94      0.00
    1    6   14      0.47      0.00
    1    6   13     -1.18      0.00
    1    6   12      0.04      0.00
    1    6   11     -0.40      0.00
    1    6   10     -0.20      0.00
    1    6    9     -0.97      0.00
    1    6    8     -3.99      0.00
    1    6    7      3.08      0.00
    1    6    6      8.63      0.00
    1    6    5      6.36      0.00
    1    6    4      0.07      0.00
    1    6    3     -6.63      0.00
   -1   -6    2     -0.81      0.00
   -1   -6    4      0.17      0.00
   -1   -6    5     -1.68      0.00
   -1   -6    6     -1.61      0.00
   -1   -6    7     -0.08      0.00
   -1   -6    8      0.70      0.00
   -1   -6    9      0.99      0.00
   -1   -6   10      1.48      0.00
   -1   -6   11     -0.06      0.00
    1    5   14      0.01      0.00
    1    5   13     -0.21      0.00
    1    5   12      0.49      0.00
    1    5   11     -0.01      0.00
    1    5   10      0.31      0.00
    1    5    9      0.14      0.00
    1    5    8     -1.86      0.00
    1    5    7      5.85      0.00
    1    5    6     10.47      0.00
    1    5    5     -1.88      0.00
    1    5    4     -9.00      0.00
    1    5    3    -11.66      0.00
    1    5    2     -6.93      0.00
   -1   -5    3     -2.46      0.00
   -1   -5    4      0.20      0.00
   -1   -5    5      0.66      0.00
   -1   -5    6     -0.77      0.00
   -1   -5    7      1.65      0.00
   -1   -5    8      1.54      0.00
   -1   -5    9      1.58      0.00
   -1   -5   10     -0.10      0.00
   -1   -5   11     -0.86      0.00
   -1   -5   12     -0.02      0.00
    1    4   13      0.76      0.00
    1    4   12      0.55      0.00
    1    4   11     -0.13      0.00
    1    4   10      0.56      0.00
    1    4    9     -0.69      0.00
    1    4    8     -0.24      0.00
    1    4    7      4.91      0.00
    1    4    6      4.85      0.00
    1    4    5    -12.90      0.00
    1    4    4    -16.44      0.00
    1    4    3     -5.28      0.00
    1    4    2      4.17      0.00
   -1   -4    1     -2.03      0.00
   -1   -4    2     -4.29      0.00
   -1   -4    3     -1.03      0.00
   -1   -4    4      1.05      0.00
   -1   -4    5      2.19      0.00
   -1   -4    6     -1.02      0.00
   -1   -4    7      1.79      0.00
   -1   -4    8      0.68      0.00
   -1   -4    9      0.18      0.00
   -1   -4   10     -2.08      0.00
   -1   -4   11     -1.07      0.00
   -1   -4   12      0.17      0.00
    1    3   13      0.09      0.00
    1    3   12     -0.43      0.00
    1    3   11     -0.88      0.00
    1    3   10     -0.12      0.00
    1    3    9     -1.84      0.00
    1    3    8      1.09      0.00
    1    3    7      1.73      0.00
    1    3    6     -2.43      0.00
    1    3    5    -15.47      0.00
    1    3    2     22.91      0.00
   -1   -3    1     -8.37      0.00
   -1   -3    2     -4.09      0.00
   -1   -3    3     -2.88      0.00
   -1   -3    4      0.62      0.00
   -1   -3    5      0.93      0.00
   -1   -3    6     -2.15      0.00
   -1   -3    7      0.75      0.00
   -1   -3    8     -0.99      0.00
   -1   -3    9     -0.68      0.00
   -1   -3   10     -2.16      0.00
   -1   -3   11      0.12      0.00
   -1   -3   12      0.71      0.00
   -1   -3   13     -1.41      0.00
    1    2   13     -1.28      0.00
    1    2   12     -1.05      0.00
    1    2   11     -0.44      0.00
    1    2   10     -0.26      0.00
    1    2    9     -0.16      0.00
    1    2    8      2.19      0.00
    1    2    7     -0.80      0.00
    1    2    6     -4.45      0.00
    1    2    5     -7.39      0.00
    1    2    4      2.48      0.00
    1    2    0    -28.86      0.00
   -1   -2    1     -5.83      0.00
   -1   -2    2     -2.24      0.00
   -1   -2    3     -3.34      0.00
   -1   -2    4      1.87      0.00
   -1   -2    5      1.16      0.00
   -1   -2    6     -1.14      0.00
   -1   -2    7      0.93      0.00
   -1   -2    8     -0.86      0.00
   -1   -2    9      0.52      0.00
   -1   -2   10     -0.51      0.00
   -1   -2   11      1.32      0.00
   -1   -2   12      0.75      0.00
   -1   -2   13      0.01      0.00
    1    1   15     -0.44      0.00
    1    1   14     -0.09      0.00
    1    1   13     -1.20      0.00
    1    1   12     -0.02      0.00
    1    1   11      1.36      0.00
    1    1   10      0.51      0.00
    1    1    9      2.58      0.00
    1    1    8      0.87      0.00
    1    1    7     -2.68      0.00
    1    1    6     -1.73      0.00
    1    1    5      1.73      0.00
    1    1    4     11.38      0.00
   -1   -1    1     14.66      0.00
   -1   -1    2      4.19      0.00
   -1   -1    3      1.82      0.00
   -1   -1    4      5.15      0.00
   -1   -1    5      3.66      0.00
   -1   -1    6      0.53      0.00
   -1   -1    7      1.19      0.00
   -1   -1    8     -0.11      0.00
   -1   -1    9      1.10      0.00
   -1   -1   10      0.42      0.00
   -1   -1   11      0.76      0.00
   -1   -1   12      0.23      0.00
   -1   -1   13      0.51      0.00
   -1   -1   14     -0.82      0.00
    1    0   15      1.00      0.00
    1    0   14      0.01      0.00
    1    0   13      0.34      0.00
    1    0   12      1.02      0.00
    1    0   11      1.90      0.00
    1    0   10      0.37      0.00
    1    0    9      2.20      0.00
    1    0    6      2.13      0.00
    1    0    5      4.87      0.00
   -1    0    1     35.62      0.00
   -1    0    2      7.26      0.00
   -1    0    3      3.73      0.00
   -1    0    4      3.86      0.00
   -1    0    5      2.71      0.00
   -1    0    6     -1.24      0.00
   -1    0    7     -1.00      0.00
   -1    0    8     -0.89      0.00
   -1    0    9     -0.14      0.00
   -1    0   10      0.19      0.00
   -1    0   11     -0.47      0.00
   -1    0   12     -0.06      0.00
   -1    0   13     -0.24      0.00
   -1    0   14     -2.26      0.00
   -1    0   15      0.31      0.00
    1   -1   15      1.37      0.00
    1   -1   14      0.01      0.00
    1   -1   13      1.20      0.00
    1   -1   12      0.01      0.00
    1   -1   11      0.20      0.00
    1   -1   10     -0.82      0.00
    1   -1    9     -0.17      0.00
    1   -1    8     -4.32      0.00
    1   -1    6      5.94      0.00
    1   -1    5      3.88      0.00
    1   -1    4     -1.42      0.00
    1   -1    3     -9.77      0.00
    1   -1    2    -11.38      0.00
   -1    1    3     -4.69      0.00
   -1    1    4     -2.44      0.00
   -1    1    5     -1.52      0.00
   -1    1    6     -4.13      0.00
   -1    1    7     -3.23      0.00
   -1    1    8     -1.12      0.00
   -1    1    9     -0.33      0.00
   -1    1   10      0.33      0.00
   -1    1   11     -0.33      0.00
   -1    1   12     -0.07      0.00
   -1    1   13     -0.84      0.00
   -1    1   14     -1.11      0.00
   -1    1   15      1.98      0.00
   -1    1   16      0.46      0.00
    1   -2   15      0.42      0.00
    1   -2   14      0.20      0.00
    1   -2   13     -0.03      0.00
    1   -2   12     -1.88      0.00
    1   -2   11     -1.15      0.00
    1   -2   10     -0.81      0.00
    1   -2    9     -0.31      0.00
    1   -2    8     -1.91      0.00
    1   -2    7      1.00      0.00
    1   -2    6      7.78      0.00
    1   -2    5      0.93      0.00
    1   -2    4     -7.88      0.00
    1   -2    3     -7.54      0.00
    1   -2    2     -1.48      0.00
    1   -2    1      4.44      0.00
   -1    2    0     31.45      0.00
   -1    2    4     -3.91      0.00
   -1    2    5     -1.57      0.00
   -1    2    6     -3.15      0.00
   -1    2    7     -1.96      0.00
   -1    2    8      1.12      0.00
   -1    2    9      1.30      0.00
   -1    2   10      0.73      0.00
   -1    2   11      0.51      0.00
   -1    2   12     -0.42      0.00
   -1    2   13     -0.47      0.00
   -1    2   14      0.74      0.00
   -1    2   15      1.95      0.00
   -1    2   16     -1.07      0.00
    1   -3   14      0.33      0.00
    1   -3   13     -2.33      0.00
    1   -3   12     -1.66      0.00
    1   -3   11     -0.27      0.00
    1   -3   10      0.70      0.00
    1   -3    9      1.47      0.00
    1   -3    8      0.46      0.00
    1   -3    7      2.37      0.00
    1   -3    6      4.96      0.00
    1   -3    5     -3.64      0.00
    1   -3    4     -9.91      0.00
    1   -3    3     -1.59      0.00
    1   -3    2      5.29      0.00
    1   -3    1     14.28      0.00
   -1    3    0      3.07      0.00
   -1    3    1     -6.22      0.00
   -1    3    4      2.90      0.00
   -1    3    5      3.06      0.00
   -1    3    6     -0.48      0.00
   -1    3    7      0.84      0.00
   -1    3    8      2.89      0.00
   -1    3    9      1.87      0.00
   -1    3   10      0.15      0.00
   -1    3   11      0.18      0.00
   -1    3   12     -0.75      0.00
   -1    3   13      0.13      0.00
   -1    3   14      1.21      0.00
   -1    3   15      0.56      0.00
   -1    3   16     -2.15      0.00
    1   -4   14     -0.38      0.00
    1   -4   13     -3.25      0.00
    1   -4   12      1.03      0.00
    1   -4   11      1.24      0.00
    1   -4   10      1.39      0.00
    1   -4    9      2.00      0.00
    1   -4    8      0.00      0.00
    1   -4    7      0.56      0.00
    1   -4    6     -0.06      0.00
    1   -4    5     -6.05      0.00
    1   -4    4     -6.85      0.00
    1   -4    3      2.95      0.00
    1   -4    2      8.59      0.00
    1   -4    1      8.09      0.00
   -1    4    0     -9.73      0.00
   -1    4    1     -3.32      0.00
   -1    4    2     -5.73      0.00
   -1    4    5      4.83      0.00
   -1    4    6     -0.92      0.00
   -1    4    7      1.49      0.00
   -1    4    8      1.76      0.00
   -1    4   11     -1.05      0.00
   -1    4   12     -0.01      0.00
   -1    4   13      0.20      0.00
   -1    4   14      0.72      0.00
   -1    4   15     -0.55      0.00
   -1    4   16     -1.83      0.00
    1   -5   14     -1.25      0.00
    1   -5   13     -1.53      0.00
    1   -5   12      3.44      0.00
    1   -5   11      1.39      0.00
    1   -5   10      0.40      0.00
    1   -5    9      1.04      0.00
    1   -5    8     -1.33      0.00
    1   -5    7     -1.29      0.00
    1   -5    6     -1.75      0.00
    1   -5    5     -3.16      0.00
    1   -5    4     -0.93      0.00
    1   -5    3      6.04      0.00
    1   -5    2      9.18      0.00
    1   -5    1     -0.08      0.00
   -1    5    0     -7.35      0.00
   -1    5    1     -0.47      0.00
   -1    5    2     -2.47      0.00
   -1    5    7      0.28      0.00
   -1    5   13     -0.12      0.00
   -1    5   14      0.13      0.00
   -1    5   15     -0.88      0.00
   -1    5   16     -0.66      0.00
    1   -6   13      1.03      0.00
    1   -6   12      3.22      0.00
    1   -6   11      0.38      0.00
    1   -6   10     -0.98      0.00
    1   -6    9      0.16      0.00
    1   -6    8     -1.70      0.00
    1   -6    7     -1.22      0.00
    1   -6    6      0.20      0.00
    1   -6    5      1.02      0.00
    1   -6    4      1.60      0.00
    1   -6    3      5.31      0.00
    1   -6    2      4.51      0.00
    1   -6    1     -5.80      0.00
   -1    6    0     -4.91      0.00
   -1    6    1     -1.44      0.00
   -1    6    2     -0.76      0.00
   -1    6    3      2.02      0.00
   -1    6   14     -0.61      0.00
   -1    6   15     -0.52      0.00
   -1    6   16      0.63      0.00
    1   -7   13      1.69      0.00
    1   -7   12      0.95      0.00
    1   -7   11     -0.58      0.00
    1   -7   10     -1.71      0.00
    1   -7    9     -0.37      0.00
    1   -7    8     -1.34      0.00
    1   -7    7     -0.17      0.00
    1   -7    6      1.72      0.00
    1   -7    5      1.66      0.00
    1   -7    4     -0.78      0.00
    1   -7    3      1.79      0.00
    1   -7    2     -1.09      0.00
    1   -7    1     -6.43      0.00
   -1    7    0     -3.64      0.00
   -1    7    1      1.03      0.00
   -1    7    2      1.90      0.00
   -1    7    3      1.13      0.00
   -1    7   15      0.59      0.00
   -1    7   16      1.46      0.00
    1   -8   12     -0.88      0.00
    1   -8   11     -0.80      0.00
    1   -8   10     -1.27      0.00
    1   -8    9     -0.41      0.00
    1   -8    8     -0.36      0.00
    1   -8    7      0.41      0.00
    1   -8    6      1.47      0.00
    1   -8    5      0.28      0.00
    1   -8    4     -2.66      0.00
    1   -8    3      0.14      0.00
    1   -8    2     -1.40      0.00
    1   -8    1     -2.58      0.00
   -1    8    0     -0.95      0.00
   -1    8    1      4.64      0.00
   -1    8    2      2.51      0.00
   -1    8    3     -0.81      0.00
   -1    8    4      1.12      0.00
   -1    8   16      1.24      0.00
    1   -9   11     -0.37      0.00
    1   -9   10      0.26      0.00
    1   -9    9      0.12      0.00
    1   -9    8      0.36      0.00
    1   -9    7     -0.06      0.00
    1   -9    6      1.29      0.00
    1   -9    5     -0.19      0.00
    1   -9    4     -1.50      0.00
    1   -9    3      0.18      0.00
    1   -9    2      1.30      0.00
    1   -9    1     -0.29      0.00
   -1    9    0     -0.01      0.00
   -1    9    1      4.06      0.00
   -1    9    2      0.99      0.00
   -1    9    3     -1.85      0.00
   -1    9    4      0.86      0.00
    1  -10   11     -0.06      0.00
    1  -10   10      1.54      0.00
    1  -10    9      0.12      0.00
    1  -10    8     -0.68      0.00
    1  -10    7     -0.61      0.00
    1  -10    6      1.66      0.00
    1  -10    5     -0.37      0.00
    1  -10    4     -0.11      0.00
    1  -10    3     -0.91      0.00
    1  -10    2      2.46      0.00
    1  -10    1     -1.67      0.00
   -1   10    0     -0.72      0.00
   -1   10    1      2.49      0.00
   -1   10    2      0.46      0.00
   -1   10    3     -1.58      0.00
   -1   10    4     -0.73      0.00
   -1   10    5     -2.08      0.00
    1  -11   10      1.49      0.00
    1  -11    9     -0.65      0.00
    1  -11    8     -2.33      0.00
    1  -11    7      0.45      0.00
    1  -11    6      1.24      0.00
    1  -11    5     -0.64      0.00
    1  -11    4      0.14      0.00
    1  -11    3     -1.74      0.00
    1  -11    2      2.39      0.00
    1  -11    1     -2.90      0.00
   -1   11    0      0.31      0.00
   -1   11    1      2.82      0.00
   -1   11    2      0.08      0.00
   -1   11    3     -1.92      0.00
   -1   11    4     -1.83      0.00
   -1   11    5     -1.06      0.00
    1  -12    9     -0.75      0.00
    1  -12    8     -2.17      0.00
    1  -12    7      2.31      0.00
    1  -12    6     -0.32      0.00
    1  -12    5      0.37      0.00
    1  -12    4      0.18      0.00
    1  -12    3     -0.62      0.00
    1  -12    2      1.64      0.00
    1  -12    1     -2.31      0.00
   -1   12    0      1.95      0.00
   -1   12    1      2.29      0.00
   -1   12    2     -1.70      0.00
   -1   12    3     -2.45      0.00
   -1   12    4     -0.40      0.00
   -1   12    5      0.68      0.00
    1  -13    8     -0.81      0.00
    1  -13    7      2.20      0.00
    1  -13    6     -1.38      0.00
    1  -13    5      2.01      0.00
    1  -13    4     -0.39      0.00
    1  -13    3      0.36      0.00
    1  -13    2     -0.21      0.00
    1  -13    1     -1.27      0.00
   -1   13    0      1.65      0.00
   -1   13    1      0.51      0.00
   -1   13    2     -2.51      0.00
   -1   13    3     -1.24      0.00
   -1   13    4      1.92      0.00
   -1   13    5      0.98      0.00
    1  -14    7      0.21      0.00
    1  -14    6     -0.54      0.00
    1  -14    5      1.82      0.00
    1  -14    4     -1.60      0.00
    1  -14    3      0.10      0.00
    1  -14    2     -1.22      0.00
    1  -14    1     -0.43      0.00
   -1   14    0      0.53      0.00
   -1   14    1      0.20      0.00
   -1   14    2     -1.19      0.00
   -1   14    3      0.30      0.00
   -1   14    4      1.90      0.00
   -1   14    5      0.05      0.00
    1  -15    6      1.06      0.00
    1  -15    5     -0.22      0.00
    1  -15    4     -1.68      0.00
    1  -15    3      0.19      0.00
    1  -15    2     -0.22      0.00
    1  -15    1     -0.11      0.00
   -1   15    0      0.08      0.00
   -1   15    1      1.19      0.00
    0   18    3      1.47      0.00
    0   18    2     -1.39      0.00
    0   18    1     -0.49      0.00
    0   18    0      0.60      0.00
    0   17    8      0.88      0.00
    0   17    7     -0.62      0.00
    0   17    6     -1.50      0.00
    0   17    5      1.39      0.00
    0   17    4     -1.28      0.00
    0   17    3      2.11      0.00
    0   17    2     -2.10      0.00
    0   17    1      0.17      0.00
    0   17    0      1.15      0.00
    0  -17    1      0.70      0.00
    0   16   11      0.34      0.00
    0   16   10      0.05      0.00
    0   16    9      0.24      0.00
    0   16    8     -0.70      0.00
    0   16    7     -0.26      0.00
    0   16    6      0.13      0.00
    0   16    5      0.46      0.00
    0   16    4     -0.65      0.00
    0   16    3      1.60      0.00
    0   16    2     -1.84      0.00
    0   16    1      0.31      0.00
    0   16    0      1.37      0.00
    0  -16    1     -0.31      0.00
    0  -16    2     -1.01      0.00
    0   15   13      1.73      0.00
    0   15   12     -2.98      0.00
    0   15   11     -0.91      0.00
    0   15   10      1.00      0.00
    0   15    9      1.06      0.00
    0   15    8     -2.07      0.00
    0   15    7      1.06      0.00
    0   15    6      1.02      0.00
    0   15    5     -1.42      0.00
    0   15    4     -0.19      0.00
    0   15    3      1.25      0.00
    0   15    2     -1.00      0.00
    0   15    1      0.36      0.00
    0   15    0      0.75      0.00
    0  -15    1     -0.55      0.00
    0  -15    2      0.14      0.00
    0  -15    3      0.27      0.00
    0   14   14      0.60      0.00
    0   14   13     -0.04      0.00
    0   14   12     -3.13      0.00
    0   14   11     -0.79      0.00
    0   14   10      2.86      0.00
    0   14    9      1.09      0.00
    0   14    8     -2.40      0.00
    0   14    7      1.29      0.00
    0   14    6      0.47      0.00
    0   14    5     -2.41      0.00
    0   14    4      0.69      0.00
    0   14    3      2.00      0.00
    0   14    2     -0.73      0.00
    0   14    1      0.03      0.00
    0   14    0     -0.47      0.00
    0  -14    1      0.19      0.00
    0  -14    2      0.30      0.00
    0  -14    3     -0.31      0.00
    0  -14    4     -0.55      0.00
    0   13   16     -0.65      0.00
    0   13   15     -1.47      0.00
    0   13   14      0.81      0.00
    0   13   13     -1.34      0.00
    0   13   12     -0.78      0.00
    0   13   11      0.10      0.00
    0   13   10      3.62      0.00
    0   13    9      0.10      0.00
    0   13    8     -1.82      0.00
    0   13    7     -0.02      0.00
    0   13    6     -0.05      0.00
    0   13    5     -1.32      0.00
    0   13    4      1.72      0.00
    0   13    3      2.10      0.00
    0   13    2     -1.85      0.00
    0   13    1     -0.80      0.00
    0   13    0     -0.52      0.00
    0   12   16     -1.08      0.00
    0   12   15     -0.24      0.00
    0   12   14      0.62      0.00
    0   12   13     -1.01      0.00
    0   12   12      1.54      0.00
    0   12   11      0.33      0.00
    0   12   10      2.35      0.00
    0   12    9     -0.57      0.00
    0   12    8     -1.23      0.00
    0   12    7     -1.49      0.00
    0   12    6      0.40      0.00
    0   12    5      0.26      0.00
    0   12    4      1.79      0.00
    0   12    3      0.81      0.00
    0   12    2     -2.65      0.00
    0   11   16     -0.64      0.00
    0   11   15      0.94      0.00
    0   11   14     -0.60      0.00
    0   11   13      0.17      0.00
    0   11   12      1.66      0.00
    0   11   11      0.15      0.00
    0   11   10      0.23      0.00
    0   11    9     -0.26      0.00
    0   11    8     -1.42      0.00
    0   11    7     -1.66      0.00
    0   11    6      1.15      0.00
    0   11    5      0.48      0.00
    0   11    4      1.80      0.00
    0   11    3     -0.01      0.00
    0   10   15      0.80      0.00
    0   10   14     -1.62      0.00
    0   10   13      1.16      0.00
    0   10   12      0.55      0.00
    0   10   11      0.27      0.00
    0   10   10     -1.17      0.00
    0   10    9      0.07      0.00
    0   10    8     -1.78      0.00
    0   10    7     -0.30      0.00
    0   10    6      1.14      0.00
    0   10    5     -0.05      0.00
    0   10    4      2.80      0.00
    0   10    3     -0.21      0.00
    0    9   15      0.55      0.00
    0    9   14     -1.12      0.00
    0    9   13      1.21      0.00
    0    9   12     -0.21      0.00
    0    9   11      0.25      0.00
    0    9   10     -1.32      0.00
    0    9    9     -0.39      0.00
    0    9    8     -1.21      0.00
    0    9    7      1.46      0.00
    0    9    6      0.28      0.00
    0    9    5      0.35      0.00
    0    9    4      2.96      0.00
    0    8   15      1.10      0.00
    0    8   14     -0.15      0.00
    0    8   13      0.08      0.00
    0    8   12     -0.41      0.00
    0    8   11      0.04      0.00
    0    8   10     -0.61      0.00
    0    8    9     -0.90      0.00
    0    8    8      0.20      0.00
    0    8    7      2.77      0.00
    0    8    6     -0.11      0.00
    0    8    5      1.38      0.00
    0    8    4      0.53      0.00
    0    7   14     -0.13      0.00
    0    7   13     -1.13      0.00
    0    7   12     -0.04      0.00
    0    7   11      0.41      0.00
    0    7   10      0.24      0.00
    0    7    9     -0.45      0.00
    0    7    8      1.22      0.00
    0    7    7      3.80      0.00
    0    7    6      0.37      0.00
    0    7    5      0.04      0.00
    0    7    4     -3.19      0.00
    0    7    3     -3.10      0.00
    0    6   14     -0.44      0.00
    0    6   13     -1.01      0.00
    0    6   12      0.79      0.00
    0    6   11      1.06      0.00
    0    6   10      0.55      0.00
    0    6    9      0.23      0.00
    0    6    8      0.84      0.00
    0    6    7      4.04      0.00
    0    6    6     -0.68      0.00
    0    6    5     -5.59      0.00
    0    6    4     -5.24      0.00
    0    6    3     -1.46      0.00
    0    5   14     -0.26      0.00
    0    5   13     -0.07      0.00
    0    5   12      1.03      0.00
    0    5   11      0.66      0.00
    0    5   10      0.03      0.00
    0    5    9     -0.43      0.00
    0    5    8     -0.47      0.00
    0    5    7      2.53      0.00
    0    5    6     -4.08      0.00
    0    5    5    -10.88      0.00
    0    5    4     -1.94      0.00
    0    5    3      4.29      0.00
    0    5    2      5.77      0.00
    0   -5    5      1.83      0.00
    0   -5    6      0.32      0.00
    0   -5    7      1.35      0.00
    0   -5    8     -1.63      0.00
    0   -5    9     -0.85      0.00
    0   -5   10     -1.69      0.00
    0   -5   11     -1.22      0.00
    0   -5   12      1.55      0.00
    0    4   13      0.18      0.00
    0    4   12      0.14      0.00
    0    4   11     -0.59      0.00
    0    4   10     -0.69      0.00
    0    4    9     -1.65      0.00
    0    4    8     -0.57      0.00
    0    4    7      0.71      0.00
    0    4    6     -5.57      0.00
    0    4    5     -8.40      0.00
    0    4    4      7.70      0.00
    0    4    3     14.47      0.00
    0    4    2      6.86      0.00
    0   -4    4      3.34      0.00
    0   -4    5     -0.77      0.00
    0   -4    6     -2.59      0.00
    0   -4    7      0.43      0.00
    0   -4    8     -2.50      0.00
    0   -4    9     -1.02      0.00
    0   -4   10     -0.78      0.00
    0   -4   11      0.97      0.00
    0   -4   12      2.29      0.00
    0    3   13     -0.27      0.00
    0    3   12     -0.48      0.00
    0    3   11     -0.85      0.00
    0    3   10     -0.47      0.00
    0    3    9     -0.97      0.00
    0    3    8      1.26      0.00
    0    3    7      0.63      0.00
    0    3    6     -2.49      0.00
    0    3    5      0.22      0.00
    0    3    4     16.08      0.00
    0    3    3     18.07      0.00
    0    3    2     -3.60      0.00
    0    3    1    -12.70      0.00
    0   -3    2      3.33      0.00
    0   -3    3      8.27      0.00
    0   -3    4      1.07      0.00
    0   -3    5     -3.97      0.00
    0   -3    6     -2.59      0.00
    0   -3    7      1.24      0.00
    0   -3    8     -1.22      0.00
    0   -3    9      0.62      0.00
    0   -3   10      0.59      0.00
    0   -3   11      2.34      0.00
    0   -3   12      0.90      0.00
    0   -3   13     -0.89      0.00
    0    2   12      0.36      0.00
    0    2   11      0.17      0.00
    0    2   10      0.36      0.00
    0    2    9      0.93      0.00
    0    2    8      2.07      0.00
    0    2    7      0.96      0.00
    0    2    6      0.85      0.00
    0    2    5      4.64      0.00
    0    2    4     13.33      0.00
    0    2    3      5.80      0.00
    0    2    2    -24.43      0.00
    0   -2    2      7.09      0.00
    0   -2    3      6.88      0.00
    0   -2    4     -0.45      0.00
    0   -2    5     -4.39      0.00
    0   -2    6      0.17      0.00
    0   -2    7      2.69      0.00
    0   -2    8      0.29      0.00
    0   -2    9      1.34      0.00
    0   -2   10      0.17      0.00
    0   -2   11      1.31      0.00
    0   -2   12     -1.12      0.00
    0   -2   13     -0.49      0.00
    0   -2   14     -0.27      0.00
    0    1   13      0.01      0.00
    0    1   12      1.21      0.00
    0    1   11      0.52      0.00
    0    1   10      0.01      0.00
    0    1    9      0.94      0.00
    0    1    8     -0.04      0.00
    0    1    7      0.14      0.00
    0    1    6      0.85      0.00
    0    1    5      1.26      0.00
    0    1    4      2.49      0.00
    0    1    3    -10.31      0.00
    0    1    2    -33.51      0.00
    0   -1    2      1.04      0.00
    0   -1    3     -0.98      0.00
    0   -1    4     -2.85      0.00
    0   -1    5     -4.03      0.00
    0   -1    6      1.18      0.00
    0   -1    7      1.94      0.00
    0   -1    8     -0.69      0.00
    0   -1    9      0.02      0.00
    0   -1   10     -1.39      0.00
    0   -1   11     -0.40      0.00
    0   -1   12     -1.30      0.00
    0   -1   13      0.06      0.00
    0   -1   14     -1.21      0.00
    0   -1   15      0.52      0.00
    0    0   14     -0.38      0.00
    0    0   13      0.26      0.00
    0    0   12      0.31      0.00
    0    0   11     -0.38      0.00
    0    0   10     -1.38      0.00
    0    0    9     -0.40      0.00
    0    0    8     -1.80      0.00
    0    0    6      0.38      0.00
    0    0    5     -2.99      0.00
    0    0    4     -4.00      0.00
    0    0    3    -11.71      0.00
    0    0    2    -18.90      0.00
    0    0    7      0.12      0.00
    0    0   15      1.87      0.00
    0    0   16      0.46      0.00
    0    1   14      0.85      0.00
    0    1   15      1.16      0.00
    0    1   16     -0.55      0.00
    0    1   17     -1.30      0.00
    0   -2   15     -0.72      0.00
    0   -2    1     18.19      0.00
    0    2    1    -39.08      0.00
    0    2   13     -0.36      0.00
    0    2   14      0.81      0.00
    0    2   15     -0.83      0.00
    0    2   16     -1.36      0.00
    0    2   17     -0.43      0.00
    0   -3   14      0.94      0.00
    0   -3    1     -0.34      0.00
    0    3    0    -23.25      0.00
    0    3   14      0.17      0.00
    0    3   15     -1.55      0.00
    0    3   16     -0.60      0.00
    0    3   17      1.43      0.00
    0   -4   14      0.90      0.00
    0   -4   13     -0.44      0.00
    0   -4    3      7.35      0.00
    0   -4    2     -0.56      0.00
    0   -4    1     -9.87      0.00
    0    4    0    -13.35      0.00
    0    4    1      8.31      0.00
    0    4   14     -0.06      0.00
    0    4   15     -0.71      0.00
    0    4   16      0.71      0.00
    0   -5   13      0.50      0.00
    0   -5    4      3.76      0.00
    0   -5    3      3.89      0.00
    0   -5    2     -4.01      0.00
    0   -5    1    -10.36      0.00
    0    5    0     -0.06      0.00
    0    5    1      9.19      0.00
    0    5   15      0.28      0.00
    0    5   16      1.01      0.00
    0   -6   13      0.54      0.00
    0   -6   12     -0.26      0.00
    0   -6   11     -2.07      0.00
    0   -6   10     -1.08      0.00
    0   -6    9      0.34      0.00
    0   -6    8     -0.34      0.00
    0   -6    7      1.91      0.00
    0   -6    6      1.70      0.00
    0   -6    5      0.15      0.00
    0   -6    4      0.81      0.00
    0   -6    3     -0.77      0.00
    0   -6    2     -5.82      0.00
    0   -6    1     -6.32      0.00
    0    6    0      5.15      0.00
    0    6    1      4.78      0.00
    0    6    2      2.82      0.00
    0    6   15      1.01      0.00
    0    6   16      0.26      0.00
    0   -7   12     -1.21      0.00
    0   -7   11     -1.40      0.00
    0   -7   10      0.09      0.00
    0   -7    9      0.71      0.00
    0   -7    8      0.33      0.00
    0   -7    7      1.23      0.00
    0   -7    6      0.61      0.00
    0   -7    5     -2.53      0.00
    0   -7    4     -1.21      0.00
    0   -7    3     -1.27      0.00
    0   -7    2     -2.96      0.00
    0   -7    1     -0.50      0.00
    0    7    0      6.27      0.00
    0    7    1      3.47      0.00
    0    7    2     -0.33      0.00
    0    7   15      1.45      0.00
    0    7   16     -0.84      0.00
    0   -8   12     -0.76      0.00
    0   -8   11     -0.07      0.00
    0   -8   10      1.00      0.00
    0   -8    9      0.38      0.00
    0   -8    8      0.77      0.00
    0   -8    7      0.33      0.00
    0   -8    6     -0.14      0.00
    0   -8    5     -2.36      0.00
    0   -8    4     -0.15      0.00
    0   -8    3      1.66      0.00
    0   -8    2      0.86      0.00
    0   -8    1      1.65      0.00
    0    8    0      4.32      0.00
    0    8    1      1.22      0.00
    0    8    2     -3.88      0.00
    0    8    3     -3.07      0.00
    0    8   16     -1.59      0.00
    0   -9   11      0.93      0.00
    0   -9   10      1.14      0.00
    0   -9    9     -0.39      0.00
    0   -9    8      0.52      0.00
    0   -9    7      0.10      0.00
    0   -9    6      0.20      0.00
    0   -9    5     -1.21      0.00
    0   -9    4      0.77      0.00
    0   -9    3      2.36      0.00
    0   -9    2      1.12      0.00
    0   -9    1     -1.19      0.00
    0    9    0      1.24      0.00
    0    9    1     -1.15      0.00
    0    9    2     -4.24      0.00
    0    9    3     -1.54      0.00
    0  -10   11      0.99      0.00
    0  -10   10      0.41      0.00
    0  -10    9     -1.49      0.00
    0  -10    8     -0.11      0.00
    0  -10    7      0.95      0.00
    0  -10    6      0.04      0.00
    0  -10    5     -1.23      0.00
    0  -10    4      0.21      0.00
    0  -10    3      0.74      0.00
    0  -10    2      0.11      0.00
    0  -10    1     -3.31      0.00
    0   10    0      1.18      0.00
    0   10    1     -0.53      0.00
    0   10    2     -2.19      0.00
    0  -11   10     -0.18      0.00
    0  -11    9     -1.75      0.00
    0  -11    8      0.34      0.00
    0  -11    7      2.02      0.00
    0  -11    6     -1.00      0.00
    0  -11    5     -1.01      0.00
    0  -11    4     -0.03      0.00
    0  -11    3      0.17      0.00
    0  -11    2      0.32      0.00
    0  -11    1     -1.91      0.00
    0   11    0      2.51      0.00
    0   11    1      0.31      0.00
    0   11    2     -1.89      0.00
    0  -12    9     -0.88      0.00
    0  -12    8      1.07      0.00
    0  -12    7      1.52      0.00
    0  -12    6     -1.59      0.00
    0  -12    5      0.15      0.00
    0  -12    4      0.06      0.00
    0  -12    3      0.27      0.00
    0  -12    2      0.31      0.00
    0  -12    1      0.14      0.00
    0   12    0      1.41      0.00
    0   12    1     -0.55      0.00
    0  -13    8      0.37      0.00
    0  -13    7     -0.05      0.00
    0  -13    6     -0.71      0.00
    0  -13    5      0.61      0.00
    0  -13    4     -0.41      0.00
    0  -13    3     -0.22      0.00
    0  -13    2     -0.03      0.00
    0  -13    1      0.73      0.00
    0  -14    7     -0.26      0.00
    0  -14    6      0.75      0.00
    0  -14    5     -0.17      0.00
    0  -15    5     -0.87      0.00
    0  -15    4      0.10      0.00
   -1   18    1      1.32      0.00
   -1   18    0     -0.23      0.00
   -1   17    7     -0.96      0.00
   -1   17    6      0.26      0.00
   -1   17    5      0.99      0.00
   -1   17    4      0.10      0.00
   -1   17    3     -0.32      0.00
   -1   17    2     -1.45      0.00
   -1   17    1      1.76      0.00
   -1   17    0     -0.19      0.00
    1  -17    1     -0.47      0.00
   -1   16   10      0.07      0.00
   -1   16    9     -0.28      0.00
   -1   16    8     -0.42      0.00
   -1   16    7      0.74      0.00
   -1   16    6     -0.21      0.00
   -1   16    5      0.66      0.00
   -1   16    4     -0.38      0.00
   -1   16    3     -0.81      0.00
   -1   16    2     -0.70      0.00
   -1   16    1      1.73      0.00
   -1   16    0     -0.05      0.00
    1  -16    1     -0.46      0.00
    1  -16    2      0.60      0.00
   -1   15   12     -2.29      0.00
   -1   15   11      2.12      0.00
   -1   15   10      1.16      0.00
   -1   15    9     -0.79      0.00
   -1   15    8     -1.20      0.00
   -1   15    7      1.95      0.00
   -1   15    6     -1.57      0.00
   -1   15    5     -0.17      0.00
   -1   15    4      0.17      0.00
   -1   15    3     -0.01      0.00
   -1   15    2     -0.20      0.00
   -1   14   13     -1.28      0.00
   -1   14   12     -1.20      0.00
   -1   14   11      3.49      0.00
   -1   14   10      1.39      0.00
   -1   14    9     -2.42      0.00
   -1   14    8     -1.33      0.00
   -1   14    7      1.84      0.00
   -1   14    6     -1.75      0.00
   -1   13   15      1.69      0.00
   -1   13   14      0.72      0.00
   -1   13   13     -1.18      0.00
   -1   13   12      0.68      0.00
   -1   13   11      2.91      0.00
   -1   13   10      0.20      0.00
   -1   13    9     -3.60      0.00
   -1   13    8     -0.50      0.00
   -1   13    7      1.22      0.00
   -1   13    6     -0.01      0.00
   -1   12   16      0.47      0.00
   -1   12   15      2.46      0.00
   -1   12   14     -0.51      0.00
   -1   12   13     -0.68      0.00
   -1   12   12      1.26      0.00
   -1   12   11      0.94      0.00
   -1   12   10     -1.32      0.00
   -1   12    9     -2.78      0.00
   -1   12    8      0.22      0.00
   -1   12    7      1.20      0.00
   -1   12    6      1.90      0.00
   -1   11   16      0.78      0.00
   -1   11   15      1.46      0.00
   -1   11   14     -1.80      0.00
   -1   11   13      0.08      0.00
   -1   11   12      0.70      0.00
   -1   11   11     -0.57      0.00
   -1   11   10     -1.96      0.00
   -1   11    9     -0.57      0.00
   -1   11    8      0.16      0.00
   -1   11    7      2.09      0.00
   -1   11    6      1.79      0.00
   -1   10   15      0.58      0.00
   -1   10   14     -1.69      0.00
   -1   10   13      0.91      0.00
   -1   10   12      0.10      0.00
   -1   10   11     -0.97      0.00
   -1   10   10     -1.44      0.00
   -1   10    9      1.17      0.00
   -1   10    8      0.09      0.00
   -1   10    7      2.63      0.00
   -1   10    6     -0.56      0.00
   -1    9   15      1.09      0.00
   -1    9   14     -0.94      0.00
   -1    9   13      1.09      0.00
   -1    9   12     -0.23      0.00
   -1    9   11     -0.60      0.00
   -1    9   10     -0.42      0.00
   -1    9    9      1.43      0.00
   -1    9    8      0.57      0.00
   -1    9    7      1.43      0.00
   -1    9    6     -2.75      0.00
   -1    9    5     -0.88      0.00
   -1    8   15      1.48      0.00
   -1    8   14     -0.92      0.00
   -1    8   13      0.41      0.00
   -1    8   12      0.03      0.00
   -1    8   11      0.12      0.00
   -1    8   10      0.04      0.00
   -1    8    9      0.72      0.00
   -1    8    8      1.01      0.00
   -1    8    7     -0.52      0.00
   -1    8    6     -2.75      0.00
   -1    8    5      0.98      0.00
   -1    7   14     -1.12      0.00
   -1    7   13     -0.29      0.00
   -1    7   12      1.10      0.00
   -1    7   11      0.35      0.00
   -1    7   10     -0.44      0.00
   -1    7    9      0.01      0.00
   -1    7    8      0.66      0.00
   -1    7    7     -1.36      0.00
   -1    7    6     -2.06      0.00
   -1    7    5      0.89      0.00
   -1    7    4      1.00      0.00
   -1    6   13     -0.41      0.00
   -1    6   12      1.97      0.00
   -1    6   11     -0.45      0.00
   -1    6   10     -1.27      0.00
   -1    6    9     -0.47      0.00
   -1    6    8     -0.23      0.00
   -1    6    7     -0.90      0.00
   -1    6    6     -2.71      0.00
   -1    6    5      0.05      0.00
   -1    6    4      3.12      0.00
   -1    5   12      1.43      0.00
   -1    5   11     -1.38      0.00
   -1    5   10     -1.64      0.00
   -1    5    9     -0.52      0.00
   -1    5    8     -0.09      0.00
   -1    5    6     -2.83      0.00
   -1    5    5      1.97      0.00
   -1    5    4      7.56      0.00
   -1    5    3      0.88      0.00
   -1    4   10     -1.06      0.00
   -1    4    9      0.56      0.00
   -1    4    4      8.88      0.00
   -1    4    3     -4.13      0.00
   -1    3    3    -11.88      0.00
   -1    3    2    -11.83      0.00
   -1    2    3    -13.54      0.00
   -1    2    2    -11.68      0.00
   -1    2    1      7.03      0.00
   -1    1    2     -1.13      0.00
   -1    1    1     30.74      0.00
    1   -1    7     -2.45      0.00
    1   -1   16      0.35      0.00
    1    0    2    -10.84      0.00
    1    0    3      2.73      0.00
    1    0    4      7.61      0.00
    1    0    7     -3.89      0.00
    1    0    8     -2.77      0.00
    1    0   16     -0.54      0.00
    1    0   17     -0.96      0.00
    1    1    2      8.43      0.00
    1    1    3     24.96      0.00
    1    1   16     -1.11      0.00
    1    1   17     -0.93      0.00
   -1   -2   14      1.61      0.00
    1    2    1    -14.27      0.00
    1    2    2     27.10      0.00
    1    2    3     32.61      0.00
    1    2   14      0.08      0.00
    1    2   15     -0.89      0.00
    1    2   16     -0.11      0.00
    1    2   17      0.52      0.00
   -1   -3   14      2.25      0.00
    1    3    0     -4.94      0.00
    1    3    1     16.50      0.00
    1    3    3     15.90      0.00
    1    3    4    -11.84      0.00
    1    3   14      0.48      0.00
    1    3   15     -0.07      0.00
    1    3   16      1.15      0.00
    1    3   17      1.07      0.00
   -1   -4   14      1.17      0.00
   -1   -4   13     -2.18      0.00
    1    4    0     10.90      0.00
    1    4    1     15.43      0.00
    1    4   14      0.35      0.00
    1    4   15      0.45      0.00
    1    4   16      0.81      0.00
    1    4   17     -0.19      0.00
   -1   -5   13     -1.78      0.00
   -1   -5    2     -4.03      0.00
   -1   -5    1      2.35      0.00
    1    5    0     10.62      0.00
    1    5    1      2.43      0.00
    1    5   15      0.31      0.00
    1    5   16     -0.63      0.00
    1    5   17     -1.11      0.00
   -1   -6   13     -1.02      0.00
   -1   -6   12      0.32      0.00
   -1   -6    3     -2.86      0.00
   -1   -6    1      4.07      0.00
    1    6    0      6.09      0.00
    1    6    1     -4.09      0.00
    1    6    2     -6.51      0.00
    1    6   15      0.17      0.00
    1    6   16     -1.51      0.00
    1    6   17     -0.16      0.00
   -1   -7   12      0.59      0.00
   -1   -7   11      0.62      0.00
   -1   -7   10      1.52      0.00
   -1   -7    9     -0.49      0.00
   -1   -7    8      0.16      0.00
   -1   -7    7     -1.16      0.00
   -1   -7    6     -1.15      0.00
   -1   -7    5     -1.15      0.00
   -1   -7    4      2.05      0.00
   -1   -7    3     -0.19      0.00
   -1   -7    2      1.78      0.00
   -1   -7    1      3.18      0.00
    1    7    0      2.15      0.00
    1    7    1     -5.51      0.00
    1    7    2     -3.45      0.00
    1    7   16     -1.25      0.00
   -1   -8   12      0.43      0.00
   -1   -8   11      1.32      0.00
   -1   -8   10      0.35      0.00
   -1   -8    9     -1.08      0.00
   -1   -8    8      0.33      0.00
   -1   -8    7     -0.86      0.00
   -1   -8    6     -0.04      0.00
   -1   -8    5      0.35      0.00
   -1   -8    4      2.45      0.00
   -1   -8    3      1.26      0.00
   -1   -8    2     -0.46      0.00
   -1   -8    1      0.18      0.00
    1    8    0     -0.98      0.00
    1    8    1     -5.02      0.00
    1    8    2     -0.81      0.00
    1    8    3      2.40      0.00
    1    8   16     -0.44      0.00
   -1   -9   11      1.69      0.00
   -1   -9   10     -1.38      0.00
   -1   -9    9     -0.92      0.00
   -1   -9    8      0.48      0.00
   -1   -9    7     -0.12      0.00
   -1   -9    6     -0.44      0.00
   -1   -9    5      0.32      0.00
   -1   -9    4      0.87      0.00
   -1   -9    3      0.47      0.00
   -1   -9    2     -3.46      0.00
   -1   -9    1     -1.09      0.00
    1    9    0     -0.68      0.00
    1    9    1     -2.19      0.00
    1    9    2      1.55      0.00
    1    9    3      3.60      0.00
    1    9   16      0.08      0.00
   -1  -10   10     -2.29      0.00
   -1  -10    9     -0.29      0.00
   -1  -10    8      1.06      0.00
   -1  -10    7      0.16      0.00
   -1  -10    6     -1.64      0.00
   -1  -10    5      0.10      0.00
   -1  -10    4      0.46      0.00
   -1  -10    3      0.06      0.00
   -1  -10    2     -2.72      0.00
   -1  -10    1      0.23      0.00
    1   10    0      1.67      0.00
    1   10    1      0.11      0.00
    1   10    2      1.52      0.00
    1   10    3      2.69      0.00
    1   10    4      0.44      0.00
   -1  -11   10     -1.52      0.00
   -1  -11    9      0.48      0.00
   -1  -11    8      1.66      0.00
   -1  -11    7     -0.51      0.00
   -1  -11    6     -1.72      0.00
   -1  -11    5      0.70      0.00
   -1  -11    4      1.34      0.00
   -1  -11    3     -0.11      0.00
   -1  -11    2     -0.36      0.00
   -1  -11    1      0.72      0.00
    1   11    0      1.65      0.00
    1   11    1     -0.14      0.00
    1   11    2     -0.46      0.00
    1   11    3      1.78      0.00
    1   11    4     -1.18      0.00
    1   11    5     -1.90      0.00
   -1  -12    9      0.41      0.00
   -1  -12    8      0.94      0.00
   -1  -12    7     -1.24      0.00
   -1  -12    6     -0.56      0.00
   -1  -12    5      0.83      0.00
   -1  -12    4      1.26      0.00
   -1  -12    3     -0.92      0.00
   -1  -12    2      0.87      0.00
   -1  -12    1     -0.58      0.00
    1   12    0     -0.14      0.00
    1   12    1     -0.41      0.00
    1   12    2     -1.18      0.00
    1   12    3      2.17      0.00
    1   12    4     -1.49      0.00
   -1  -13    7     -0.39      0.00
   -1  -13    6      0.45      0.00
   -1  -13    5      0.18      0.00
   -1  -13    4      0.26      0.00
   -1  -13    3     -1.01      0.00
   -1  -13    2      1.12      0.00
   -1  -13    1     -1.59      0.00
    1   13    0     -0.46      0.00
    1   13    1      0.39      0.00
    1   13    2     -0.27      0.00
    1   13    3      2.21      0.00
    1   13    4     -1.51      0.00
   -1  -14    6      0.15      0.00
   -1  -14    5     -0.27      0.00
   -1  -14    4     -0.44      0.00
   -1  -14    3     -0.12      0.00
   -1  -14    2      0.51      0.00
   -1  -14    1     -1.15      0.00
    1   14    0      0.55      0.00
    1   14    1      0.52      0.00
    1   14    2      0.40      0.00
    1   14    3      1.25      0.00
   -1  -15    4     -0.71      0.00
   -1  -15    3      0.33      0.00
   -1  -15    2     -0.42      0.00
   -1  -15    1      0.50      0.00
    1   15    0      0.91      0.00
    1   15    1     -0.28      0.00
   -1  -16    4     -0.47      0.00
   -1  -16    3      0.21      0.00
    1   16   13      1.57      0.00
    1   17   10      0.94      0.00
    1   17   11      0.07      0.00
    1   17   12     -1.36      0.00
    1   18   12     -1.21      0.00
   -2   17    6      0.24      0.00
   -2   17    5      1.55      0.00
   -2   17    4     -0.90      0.00
   -2   17    3     -1.13      0.00
   -2   17    2      1.32      0.00
   -2   17    1      0.25      0.00
   -2   17    0     -0.51      0.00
    2  -17    1      0.52      0.00
   -2   16    9      0.14      0.00
   -2   16    8      0.31      0.00
   -2   16    7     -0.01      0.00
   -2   16    6     -0.82      0.00
   -2   16    5      1.67      0.00
   -2   16    4     -2.23      0.00
   -2   16    3      0.21      0.00
   -2   16    2      1.22      0.00
   -2   16    1      0.17      0.00
   -2   16    0     -0.79      0.00
    2  -16    1      0.37      0.00
    2  -16    2     -0.48      0.00
   -2   15   11      1.51      0.00
   -2   15   10     -0.86      0.00
   -2   15    9     -0.72      0.00
   -2   15    8     -0.17      0.00
   -2   15    7      0.59      0.00
   -2   15    6     -1.63      0.00
   -2   15    5      1.88      0.00
   -2   15    4     -1.31      0.00
   -2   15    3      0.91      0.00
   -2   15    2      0.21      0.00
   -2   15    1      0.12      0.00
   -2   15    0     -0.54      0.00
    2  -15    1     -0.56      0.00
    2  -15    2     -0.64      0.00
    2  -15    3     -0.25      0.00
   -2   14   12      1.32      0.00
   -2   14   11      1.34      0.00
   -2   14   10     -2.16      0.00
   -2   14    9     -1.87      0.00
   -2   14    8      0.78      0.00
   -2   14    7      1.26      0.00
   -2   14    6     -1.09      0.00
   -2   14    5      2.17      0.00
   -2   14    4     -0.26      0.00
   -2   14    3     -0.59      0.00
   -2   14    2     -0.84      0.00
   -2   13   14     -1.44      0.00
   -2   13   13     -0.04      0.00
   -2   13   12      1.27      0.00
   -2   13   11      0.00      0.00
   -2   13   10     -3.18      0.00
   -2   13    9     -1.32      0.00
   -2   13    8      2.65      0.00
   -2   13    7      1.44      0.00
   -2   13    6     -0.08      0.00
   -2   13    5      1.03      0.00
   -2   12   15     -0.57      0.00
   -2   12   14     -2.60      0.00
   -2   12   13      0.36      0.00
   -2   12   12      0.74      0.00
   -2   12   11     -1.10      0.00
   -2   12   10     -2.72      0.00
   -2   12    9      0.98      0.00
   -2   12    8      3.20      0.00
   -2   12    7      0.97      0.00
   -2   12    6     -0.47      0.00
   -2   12    5     -1.49      0.00
   -2   11   15     -2.05      0.00
   -2   11   14     -2.25      0.00
   -2   11   13      1.04      0.00
   -2   11   12      0.68      0.00
   -2   11   11     -1.35      0.00
   -2   11   10     -0.91      0.00
   -2   11    9      2.80      0.00
   -2   11    8      1.71      0.00
   -2   11    7      0.14      0.00
   -2   11    6     -2.47      0.00
   -2   11    5     -2.56      0.00
   -2   10   15     -1.86      0.00
   -2   10   14     -1.06      0.00
   -2   10   13      1.84      0.00
   -2   10   12      0.59      0.00
   -2   10   11     -1.10      0.00
   -2   10   10      0.72      0.00
   -2   10    9      2.50      0.00
   -2   10    8     -0.32      0.00
   -2   10    7     -0.92      0.00
   -2   10    6     -3.67      0.00
   -2   10    5     -0.24      0.00
   -2   10    4      2.13      0.00
   -2    9   15     -1.17      0.00
   -2    9   14     -0.54      0.00
   -2    9   13      2.01      0.00
   -2    9   12     -0.13      0.00
   -2    9   11     -0.79      0.00
   -2    9   10      0.90      0.00
   -2    9    9      0.97      0.00
   -2    9    8     -1.24      0.00
   -2    9    7     -1.60      0.00
   -2    9    6     -1.93      0.00
   -2    9    5      3.23      0.00
   -2    9    4      3.03      0.00
   -2    8   14     -0.59      0.00
   -2    8   13      1.24      0.00
   -2    8   12     -0.58      0.00
   -2    8   11     -0.86      0.00
   -2    8   10      0.23      0.00
   -2    8    9      0.15      0.00
   -2    8    8     -0.95      0.00
   -2    8    7     -1.22      0.00
   -2    8    6      0.92      0.00
   -2    8    5      4.06      0.00
   -2    8    4      0.77      0.00
   -2    7   13      0.19      0.00
   -2    7   12      0.17      0.00
   -2    7   11     -1.53      0.00
   -2    7   10      0.10      0.00
   -2    7    9      0.37      0.00
   -2    7    8     -0.43      0.00
   -2    7    7     -0.24      0.00
   -2    7    6      1.58      0.00
   -2    7    5      2.44      0.00
   -2    7    4     -1.88      0.00
   -2    7    3     -3.40      0.00
   -2    6   12      1.15      0.00
   -2    6   11     -2.30      0.00
   -2    6   10      0.56      0.00
   -2    6    9      0.90      0.00
   -2    6    8      0.00      0.00
   -2    6    7      0.49      0.00
   -2    6    6      0.53      0.00
   -2    6    5      1.82      0.00
   -2    6    4     -2.39      0.00
   -2    6    3     -3.67      0.00
   -2    5   11     -2.20      0.00
   -2    5   10      0.84      0.00
   -2    5    9      1.79      0.00
   -2    5    8      0.66      0.00
   -2    5    7      0.48      0.00
   -2    5    6      0.04      0.00
   -2    5    4     -2.20      0.00
   -2    5    3     -4.70      0.00
   -2    5    2      2.45      0.00
   -2    4   10      0.84      0.00
   -2    4    9      2.71      0.00
   -2    4    8      0.53      0.00
   -2    4    4     -3.24      0.00
   -2    4    3     -5.70      0.00
   -2    4    2      5.89      0.00
   -2    3    3     -2.59      0.00
   -2    3    2      7.50      0.00
   -2    3    1      3.01      0.00
   -2    2    3      3.56      0.00
   -2    2    2      7.25      0.00
   -2    2    1      9.72      0.00
   -2    1    2      3.29      0.00
   -2    1    1      8.90      0.00
   -2    1    0    -20.82      0.00
    2   -1    7     -7.58      0.00
    2   -1    8      0.56      0.00
    2   -1   16     -1.09      0.00
    2    0    1    -10.99      0.00
    2    0    3     10.40      0.00
    2    0    4      1.18      0.00
    2    0    6     -6.39      0.00
    2    0    7     -3.11      0.00
    2    0    8      4.79      0.00
    2    0   17     -0.55      0.00
    2    1    3      5.99      0.00
    2    1    4    -11.91      0.00
    2    1    5     -6.85      0.00
    2    1   17      0.64      0.00
    2    2    2     24.90      0.00
    2    2    5     -6.31      0.00
    2    2   16      0.69      0.00
    2    2   17      0.93      0.00
    2    3    3    -21.48      0.00
    2    3    4    -17.96      0.00
    2    3   15      0.09      0.00
    2    3   16      0.72      0.00
    2    3   17     -0.37      0.00
   -2   -4   13     -2.27      0.00
    2    4    2    -13.07      0.00
    2    4    4     -1.34      0.00
    2    4    5     11.14      0.00
    2    4    6     13.15      0.00
    2    4   14     -0.21      0.00
    2    4   15     -0.66      0.00
    2    4   16     -0.14      0.00
    2    4   17     -1.14      0.00
   -2   -5   13     -0.75      0.00
    2    5    2     -7.36      0.00
    2    5   15     -0.99      0.00
    2    5   16     -0.37      0.00
    2    5   17      0.06      0.00
    2    6    2      1.62      0.00
    2    6   15     -1.00      0.00
    2    6   16      0.27      0.00
    2    6   17      1.44      0.00
   -2   -7   12      0.63      0.00
   -2   -7    3     -0.87      0.00
   -2   -7    2      0.90      0.00
   -2   -7    1      0.54      0.00
    2    7    2      4.89      0.00
    2    7   16      0.74      0.00
    2    7   17      0.93      0.00
   -2   -8   11      0.13      0.00
   -2   -8   10     -1.81      0.00
   -2   -8    9      0.09      0.00
   -2   -8    8      0.12      0.00
   -2   -8    7      0.56      0.00
   -2   -8    6      0.76      0.00
   -2   -8    5      0.67      0.00
   -2   -8    4     -0.52      0.00
   -2   -8    3     -1.35      0.00
   -2   -8    2     -1.51      0.00
   -2   -8    1      1.29      0.00
    2    8    0     -2.22      0.00
    2    8    1      0.54      0.00
    2    8    2      4.23      0.00
    2    8    3      0.70      0.00
    2    8   16      0.29      0.00
    2    8   17     -0.57      0.00
   -2   -9   11      0.43      0.00
   -2   -9   10     -2.56      0.00
   -2   -9    9      1.38      0.00
   -2   -9    8      0.36      0.00
   -2   -9    7      0.18      0.00
   -2   -9    6     -0.48      0.00
   -2   -9    5      0.42      0.00
   -2   -9    4     -0.78      0.00
   -2   -9    3     -1.10      0.00
   -2   -9    2     -1.25      0.00
   -2   -9    1      2.93      0.00
    2    9    0     -0.85      0.00
    2    9    1      1.87      0.00
    2    9    2      2.28      0.00
    2    9    3     -1.16      0.00
    2    9    4     -2.66      0.00
    2    9    6      0.26      0.00
    2    9   16     -0.60      0.00
   -2  -10   10     -1.94      0.00
   -2  -10    9      2.19      0.00
   -2  -10    8      0.65      0.00
   -2  -10    7     -1.03      0.00
   -2  -10    6     -0.20      0.00
   -2  -10    5      1.29      0.00
   -2  -10    4      0.06      0.00
   -2  -10    3     -0.77      0.00
   -2  -10    2      0.41      0.00
   -2  -10    1      2.34      0.00
    2   10    0      0.26      0.00
    2   10    1      0.54      0.00
    2   10    2      0.11      0.00
    2   10    3     -1.69      0.00
    2   10    4     -2.88      0.00
    2   10    5     -1.18      0.00
    2   10    6      2.18      0.00
    2   10    7      3.16      0.00
   -2  -11    9      1.74      0.00
   -2  -11    8      0.19      0.00
   -2  -11    7     -1.81      0.00
   -2  -11    6      0.96      0.00
   -2  -11    5      1.33      0.00
   -2  -11    4      0.02      0.00
   -2  -11    3     -1.40      0.00
   -2  -11    2      1.01      0.00
   -2  -11    1     -0.15      0.00
    2   11    0      0.74      0.00
    2   11    1     -1.13      0.00
    2   11    2     -0.93      0.00
    2   11    3     -0.79      0.00
    2   11    4     -2.18      0.00
    2   11    5      1.15      0.00
    2   11    6      1.70      0.00
    2   11    7      2.56      0.00
   -2  -12    7     -0.97      0.00
   -2  -12    6      1.08      0.00
   -2  -12    5      0.39      0.00
   -2  -12    4     -0.65      0.00
   -2  -12    3     -1.27      0.00
   -2  -12    2      0.75      0.00
   -2  -12    1     -1.40      0.00
    2   12    0      1.45      0.00
    2   12    1     -1.16      0.00
    2   12    2     -0.63      0.00
    2   12    3      0.47      0.00
    2   12    4     -1.23      0.00
    2   12    5      1.97      0.00
    2   12    6      0.91      0.00
    2   12    7      1.19      0.00
   -2  -13    6     -0.13      0.00
   -2  -13    5     -0.01      0.00
   -2  -13    4     -0.67      0.00
   -2  -13    3      0.13      0.00
   -2  -13    2     -0.03      0.00
   -2  -13    1     -0.63      0.00
    2   13    0      1.68      0.00
    2   13    1     -0.50      0.00
    2   13    2     -0.12      0.00
    2   13    3      0.51      0.00
    2   13    4     -0.61      0.00
    2   13    5      1.32      0.00
    2   13    6      0.84      0.00
   -2  -14    4     -0.28      0.00
   -2  -14    3      0.91      0.00
   -2  -14    2     -0.72      0.00
   -2  -14    1      0.64      0.00
    2   14    0      0.78      0.00
    2   14    1     -0.16      0.00
    2   14    2     -0.05      0.00
    2   14    3     -0.29      0.00
    2   14    4     -0.34      0.00
    2   14    5      0.58      0.00
    2   14    6      0.77      0.00
   -2  -15    4      0.17      0.00
   -2  -15    3      0.67      0.00
   -2  -15    2     -0.06      0.00
   -2  -15    1      0.88      0.00
    2   15    0     -0.54      0.00
    2   15    1     -0.12      0.00
    2   15    2     -0.23      0.00
    2   15    3     -0.60      0.00
    2   15    4     -0.49      0.00
    2   15    5      0.67      0.00
   -2  -16    3      0.36      0.00
   -2  -16    2      1.06      0.00
   -2  -16    1     -0.44      0.00
    2   16    0     -1.45      0.00
    2   16    1     -0.09      0.00
    2   16    2     -0.13      0.00
    2   16    3     -0.24      0.00
    2   16   14     -0.71      0.00
   -2  -17    2      0.73      0.00
   -2  -17    1     -1.72      0.00
    2   17    0     -1.55      0.00
    2   17   11     -1.64      0.00
    2   17   12     -0.63      0.00
    2   17   13      1.08      0.00
    2   18   13      1.35      0.00
   -3   17    4     -3.28      0.00
   -3   17    3      0.87      0.00
   -3   17    2      0.20      0.00
   -3   17    1     -1.13      0.00
   -3   17    0      0.31      0.00
    3  -17    1     -0.10      0.00
   -3   16    7     -0.69      0.00
   -3   16    6      0.71      0.00
   -3   16    5      0.37      0.00
   -3   16    4     -3.09      0.00
   -3   16    3      2.02      0.00
   -3   16    2     -0.23      0.00
   -3   16    1     -0.68      0.00
   -3   16    0      0.47      0.00
    3  -16    1      0.27      0.00
    3  -16    2     -0.61      0.00
   -3   15    9     -1.30      0.00
   -3   15    8      0.32      0.00
   -3   15    7     -0.25      0.00
   -3   15    6      0.70      0.00
   -3   15    5      0.42      0.00
   -3   15    4     -1.62      0.00
   -3   15    3      1.55      0.00
   -3   15    2     -0.14      0.00
   -3   15    1      0.15      0.00
   -3   15    0      0.38      0.00
    3  -15    1     -0.33      0.00
    3  -15    2      0.13      0.00
    3  -15    3      0.07      0.00
   -3   14   11     -1.32      0.00
   -3   14   10      0.03      0.00
   -3   14    9     -0.89      0.00
   -3   14    8      2.29      0.00
   -3   14    7      0.11      0.00
   -3   14    6      0.42      0.00
   -3   14    5      0.28      0.00
   -3   14    4     -1.33      0.00
   -3   14    3      0.28      0.00
   -3   14    2      0.78      0.00
   -3   14    1      0.91      0.00
   -3   14    0     -1.04      0.00
    3  -14    1     -0.76      0.00
    3  -14    2      1.43      0.00
   -3   13   12     -1.12      0.00
   -3   13   11     -0.87      0.00
   -3   13   10     -0.47      0.00
   -3   13    9      1.85      0.00
   -3   13    8      2.68      0.00
   -3   13    7     -0.72      0.00
   -3   13    6     -0.79      0.00
   -3   13    5     -0.88      0.00
   -3   13    4     -1.61      0.00
   -3   13    3      0.80      0.00
   -3   13    2      1.78      0.00
   -3   13    1      0.47      0.00
   -3   12   14      0.19      0.00
   -3   12   13      1.12      0.00
   -3   12   12     -0.88      0.00
   -3   12   11     -0.29      0.00
   -3   12   10      0.31      0.00
   -3   12    9      3.89      0.00
   -3   12    8      0.18      0.00
   -3   12    7     -2.14      0.00
   -3   12    6     -2.18      0.00
   -3   12    5     -1.11      0.00
   -3   12    4     -0.12      0.00
   -3   11   15     -2.27      0.00
   -3   11   14      1.66      0.00
   -3   11   13      1.87      0.00
   -3   11   12     -0.11      0.00
   -3   11   11     -0.49      0.00
   -3   11   10      1.53      0.00
   -3   11    9      2.65      0.00
   -3   11    8     -2.78      0.00
   -3   11    7     -2.59      0.00
   -3   11    6     -1.78      0.00
   -3   11    5      1.33      0.00
   -3   11    4      2.22      0.00
   -3   10   15     -1.73      0.00
   -3   10   14      2.59      0.00
   -3   10   13      2.13      0.00
   -3   10   12     -0.63      0.00
   -3   10   11     -1.19      0.00
   -3   10   10      1.73      0.00
   -3   10    9     -0.18      0.00
   -3   10    8     -3.24      0.00
   -3   10    7     -1.39      0.00
   -3   10    6      0.83      0.00
   -3   10    5      4.07      0.00
   -3   10    4      1.93      0.00
   -3   10    3      0.28      0.00
   -3    9   14      2.53      0.00
   -3    9   13      1.10      0.00
   -3    9   12     -1.98      0.00
   -3    9   11     -1.29      0.00
   -3    9   10      1.30      0.00
   -3    9    9     -1.32      0.00
   -3    9    8     -1.49      0.00
   -3    9    7      0.44      0.00
   -3    9    6      2.95      0.00
   -3    9    5      3.45      0.00
   -3    9    4     -1.67      0.00
   -3    9    3     -3.08      0.00
   -3    8   14      1.96      0.00
   -3    8   13     -0.44      0.00
   -3    8   12     -1.91      0.00
   -3    8   11     -0.53      0.00
   -3    8   10      1.50      0.00
   -3    8    9     -0.72      0.00
   -3    8    8     -0.07      0.00
   -3    8    7      1.28      0.00
   -3    8    6      2.11      0.00
   -3    8    5      0.20      0.00
   -3    8    4     -5.03      0.00
   -3    8    3     -3.14      0.00
   -3    7   13     -0.85      0.00
   -3    7   12     -0.23      0.00
   -3    7   11     -0.03      0.00
   -3    7   10      2.09      0.00
   -3    7    9     -0.48      0.00
   -3    7    8      0.04      0.00
   -3    7    7      0.85      0.00
   -3    7    6     -0.08      0.00
   -3    7    5     -1.59      0.00
   -3    7    4     -5.01      0.00
   -3    7    3      0.30      0.00
   -3    7    2      2.93      0.00
   -3    6   12      0.73      0.00
   -3    6   11     -0.46      0.00
   -3    6   10      2.13      0.00
   -3    6    9     -0.69      0.00
   -3    6    8     -0.24      0.00
   -3    6    7      0.06      0.00
   -3    6    6     -0.72      0.00
   -3    6    5     -1.13      0.00
   -3    6    4     -2.68      0.00
   -3    6    3      3.60      0.00
   -3    6    2      5.61      0.00
   -3    5   10      1.92      0.00
   -3    5    9     -0.27      0.00
   -3    5    8     -1.01      0.00
   -3    5    7     -0.87      0.00
   -3    5    6     -0.01      0.00
   -3    5    5     -1.10      0.00
   -3    5    4     -0.62      0.00
   -3    5    3      4.09      0.00
   -3    5    2      5.89      0.00
   -3    4    9     -0.14      0.00
   -3    4    8     -2.89      0.00
   -3    4    7     -1.47      0.00
   -3    4    6      0.89      0.00
   -3    4    4      1.21      0.00
   -3    4    3      3.23      0.00
   -3    4    2      3.63      0.00
   -3    4    1     -7.96      0.00
   -3    3    8     -3.87      0.00
   -3    3    7     -0.04      0.00
   -3    3    3      2.15      0.00
   -3    3    2     -0.09      0.00
   -3    3    1     -7.77      0.00
   -3    2    3     -1.19      0.00
   -3    2    2     -3.71      0.00
   -3    2    1     -4.57      0.00
   -3    1    2     -3.07      0.00
   -3    1    1     -2.86      0.00
    3   -1    8      7.30      0.00
    3   -1   17      0.43      0.00
    3    0    5     -0.40      0.00
    3    0    8      4.93      0.00
    3    0   17      1.16      0.00
    3    0   18      0.62      0.00
    3    1    6      4.43      0.00
    3    1   17      0.87      0.00
    3    1   18      0.28      0.00
    3    2   18     -0.18      0.00
   -3   -3   14     -0.81      0.00
    3    3   17     -1.50      0.00
    3    3   18      0.16      0.00
    3    4    5      5.93      0.00
    3    4    6     -6.06      0.00
    3    4   14     -0.46      0.00
    3    4   15     -0.35      0.00
    3    4   16      0.43      0.00
    3    4   17     -0.88      0.00
   -3   -5   13      0.86      0.00
    3    5    5     -5.27      0.00
    3    5    6    -10.78      0.00
    3    5    7     -6.69      0.00
    3    5    8      4.09      0.00
    3    5   15     -0.17      0.00
    3    5   16      1.08      0.00
    3    5   17     -0.09      0.00
    3    6    3      1.29      0.00
    3    6    8      7.60      0.00
    3    6   15     -0.61      0.00
    3    6   16      1.21      0.00
    3    6   17     -0.44      0.00
   -3   -7   12     -0.84      0.00
   -3   -7    1      0.30      0.00
    3    7    7      6.77      0.00
    3    7    8      7.45      0.00
    3    7    9      2.21      0.00
    3    7   16      0.72      0.00
    3    7   17     -0.94      0.00
   -3   -8   11      0.31      0.00
   -3   -8    3      0.25      0.00
   -3   -8    2      1.59      0.00
   -3   -8    1     -0.09      0.00
    3    8    0     -3.14      0.00
    3    8    1      1.78      0.00
    3    8    2     -0.54      0.00
    3    8    3     -3.59      0.00
    3    8    8      3.33      0.00
    3    8    9     -2.07      0.00
    3    8   16      0.18      0.00
    3    8   17     -0.10      0.00
   -3   -9   10     -0.38      0.00
   -3   -9    9      1.69      0.00
   -3   -9    8      0.12      0.00
   -3   -9    7     -0.56      0.00
   -3   -9    6     -0.17      0.00
   -3   -9    5     -0.08      0.00
   -3   -9    4     -0.46      0.00
   -3   -9    3      0.60      0.00
   -3   -9    2      1.60      0.00
   -3   -9    1     -0.57      0.00
    3    9    0     -2.18      0.00
    3    9    1      1.79      0.00
    3    9    2     -0.68      0.00
    3    9    3     -2.04      0.00
    3    9    4      1.44      0.00
    3    9    5      1.28      0.00
    3    9    9     -3.91      0.00
    3    9   16      0.02      0.00
    3    9   17      1.28      0.00
   -3  -10    9      1.60      0.00
   -3  -10    8     -0.59      0.00
   -3  -10    7     -1.46      0.00
   -3  -10    6      1.45      0.00
   -3  -10    5     -0.47      0.00
   -3  -10    4     -0.60      0.00
   -3  -10    3      0.43      0.00
   -3  -10    2      0.77      0.00
   -3  -10    1     -1.27      0.00
    3   10    0     -0.47      0.00
    3   10    1      0.34      0.00
    3   10    2     -0.48      0.00
    3   10    3     -1.21      0.00
    3   10    4      1.67      0.00
    3   10    5      1.64      0.00
    3   10    6      1.73      0.00
   -3  -11    8     -1.29      0.00
   -3  -11    7     -0.86      0.00
   -3  -11    6      1.77      0.00
   -3  -11    5     -1.38      0.00
   -3  -11    4     -0.86      0.00
   -3  -11    3      0.41      0.00
   -3  -11    2      0.08      0.00
   -3  -11    1     -0.66      0.00
    3   11    0      0.88      0.00
    3   11    1     -1.28      0.00
    3   11    2     -0.06      0.00
    3   11    3     -0.11      0.00
    3   11    4      1.38      0.00
    3   11    5      1.77      0.00
    3   11    6     -0.18      0.00
    3   11    7     -0.90      0.00
    3   11    8     -2.50      0.00
   -3  -12    7      0.38      0.00
   -3  -12    6      0.56      0.00
   -3  -12    5     -0.96      0.00
   -3  -12    4     -0.24      0.00
   -3  -12    3      0.86      0.00
   -3  -12    2     -0.25      0.00
   -3  -12    1      0.81      0.00
    3   12    0      0.52      0.00
    3   12    1     -1.81      0.00
    3   12    2      0.55      0.00
    3   12    3      0.97      0.00
    3   12    4      0.92      0.00
    3   12    5      1.15      0.00
    3   12    6     -1.04      0.00
    3   12    7     -0.65      0.00
    3   12    8     -1.64      0.00
   -3  -13    6     -0.64      0.00
   -3  -13    5      0.49      0.00
   -3  -13    4      0.31      0.00
   -3  -13    3      0.41      0.00
   -3  -13    2     -0.65      0.00
   -3  -13    1      1.53      0.00
    3   13    0     -0.91      0.00
    3   13    1     -0.91      0.00
    3   13    2      0.66      0.00
    3   13    3      1.02      0.00
    3   13    4      0.29      0.00
    3   13    5     -0.12      0.00
    3   13    6     -1.12      0.00
    3   13    7     -1.09      0.00
    3   13    8     -0.20      0.00
   -3  -14    4      0.11      0.00
   -3  -14    3     -0.71      0.00
   -3  -14    2     -0.35      0.00
   -3  -14    1      1.06      0.00
    3   14    0     -1.28      0.00
    3   14    1      0.24      0.00
    3   14    2     -0.01      0.00
    3   14    3      0.54      0.00
    3   14    4     -0.09      0.00
    3   14    5     -0.81      0.00
    3   14    6     -0.79      0.00
    3   14    7     -0.81      0.00
    3   14    8      1.51      0.00
   -3  -15    3     -0.94      0.00
   -3  -15    2      0.46      0.00
   -3  -15    1     -0.26      0.00
    3   15    0     -0.21      0.00
    3   15    1      0.19      0.00
    3   15    2     -0.50      0.00
    3   15    3      0.46      0.00
    3   15    4     -0.26      0.00
    3   15    5     -0.28      0.00
    3   15    6     -0.32      0.00
    3   15    7      0.27      0.00
   -3  -16    2      0.19      0.00
   -3  -16    1     -1.32      0.00
    3   16    0      0.95      0.00
    3   16    1     -0.23      0.00
    3   16    2     -0.21      0.00
    3   16    3      0.70      0.00
    3   16    4     -0.40      0.00
    3   16    5      0.95      0.00
    3   16    6     -0.22      0.00
    3   16   14     -0.50      0.00
   -3  -17    1     -0.83      0.00
    3   17    0      1.35      0.00
    3   17    1      0.35      0.00
    3   17    2     -0.21      0.00
    3   17    3      0.83      0.00
    3   17    4     -0.43      0.00
    3   17    5      1.65      0.00
    3   17   12      1.89      0.00
    3   17   13      0.15      0.00
    3   17   14     -0.68      0.00
    3   18    1      1.07      0.00
    3   18    2     -1.15      0.00
    3   18    3      0.90      0.00
    3   18    5      0.90      0.00
   -4   17    2     -0.29      0.00
   -4   17    1      0.18      0.00
   -4   17    0      1.22      0.00
    4  -17    1     -0.17      0.00
   -4   16    6      1.19      0.00
   -4   16    5     -2.08      0.00
   -4   16    4      0.06      0.00
   -4   16    3      2.51      0.00
   -4   16    2      0.48      0.00
   -4   16    1      0.00      0.00
   -4   16    0      1.54      0.00
    4  -16    1     -0.93      0.00
    4  -16    2     -0.19      0.00
   -4   15    8      2.03      0.00
   -4   15    7     -0.25      0.00
   -4   15    6      1.51      0.00
   -4   15    5     -1.51      0.00
   -4   15    4      1.05      0.00
   -4   15    3      1.65      0.00
   -4   15    2      0.48      0.00
   -4   15    1     -0.83      0.00
   -4   15    0      0.18      0.00
    4  -15    1     -1.63      0.00
    4  -15    2     -0.06      0.00
    4  -15    3      0.35      0.00
   -4   14   10      0.05      0.00
   -4   14    9     -0.77      0.00
   -4   14    8      2.26      0.00
   -4   14    7     -0.50      0.00
   -4   14    6      0.14      0.00
   -4   14    5     -1.16      0.00
   -4   14    4      0.32      0.00
   -4   14    3      0.87      0.00
   -4   14    2     -0.02      0.00
   -4   14    1     -1.88      0.00
   -4   14    0     -1.39      0.00
    4  -14    1     -0.18      0.00
    4  -14    2      0.82      0.00
    4  -14    3      0.44      0.00
   -4   13   11      2.02      0.00
   -4   13   10     -0.15      0.00
   -4   13    9      1.23      0.00
   -4   13    8     -0.45      0.00
   -4   13    7     -1.24      0.00
   -4   13    6     -1.62      0.00
   -4   13    5     -0.26      0.00
   -4   13    4      0.26      0.00
   -4   13    3      1.38      0.00
   -4   13    2     -0.91      0.00
   -4   13    1     -2.35      0.00
   -4   13    0     -0.99      0.00
    4  -13    1      2.64      0.00
    4  -13    2      1.17      0.00
   -4   12   12      0.47      0.00
   -4   12   11      1.36      0.00
   -4   12   10      0.50      0.00
   -4   12    9      0.33      0.00
   -4   12    8     -3.22      0.00
   -4   12    7     -1.06      0.00
   -4   12    6     -0.97      0.00
   -4   12    5      1.88      0.00
   -4   12    4      1.27      0.00
   -4   12    3      1.59      0.00
   -4   12    2     -2.66      0.00
   -4   12    1     -1.29      0.00
   -4   12    0      1.07      0.00
   -4   11   13     -0.76      0.00
   -4   11   12     -0.08      0.00
   -4   11   11     -0.01      0.00
   -4   11   10      0.96      0.00
   -4   11    9     -2.03      0.00
   -4   11    8     -2.74      0.00
   -4   11    7      0.48      0.00
   -4   11    6      1.95      0.00
   -4   11    5      2.87      0.00
   -4   11    4      0.73      0.00
   -4   11    3     -0.20      0.00
   -4   11    2     -4.08      0.00
   -4   10   14      2.42      0.00
   -4   10   13     -1.74      0.00
   -4   10   12     -1.63      0.00
   -4   10   11     -0.40      0.00
   -4   10   10      1.11      0.00
   -4   10    9     -2.55      0.00
   -4   10    8     -0.08      0.00
   -4   10    7      1.83      0.00
   -4   10    6      3.50      0.00
   -4   10    5      0.47      0.00
   -4   10    4     -1.94      0.00
   -4   10    3     -2.22      0.00
   -4   10    2     -2.93      0.00
   -4    9   14      1.93      0.00
   -4    9   13     -3.08      0.00
   -4    9   12     -1.70      0.00
   -4    9   11      0.64      0.00
   -4    9   10      1.44      0.00
   -4    9    9     -1.41      0.00
   -4    9    8      1.32      0.00
   -4    9    7      1.56      0.00
   -4    9    6      1.71      0.00
   -4    9    5     -2.93      0.00
   -4    9    4     -3.64      0.00
   -4    9    3     -1.23      0.00
   -4    9    2      0.69      0.00
   -4    8   13     -2.88      0.00
   -4    8   12      0.03      0.00
   -4    8   11      1.62      0.00
   -4    8   10      1.34      0.00
   -4    8    9     -1.11      0.00
   -4    8    8      0.86      0.00
   -4    8    7      0.34      0.00
   -4    8    6     -0.77      0.00
   -4    8    5     -3.32      0.00
   -4    8    4     -2.17      0.00
   -4    8    3      2.66      0.00
   -4    8    2      3.72      0.00
   -4    7   12      0.98      0.00
   -4    7   11      1.20      0.00
   -4    7   10      0.31      0.00
   -4    7    9     -1.69      0.00
   -4    7    8      0.56      0.00
   -4    7    7     -0.44      0.00
   -4    7    6     -1.02      0.00
   -4    7    5     -1.14      0.00
   -4    7    4      0.71      0.00
   -4    7    3      5.54      0.00
   -4    7    2      3.22      0.00
   -4    7    1     -0.10      0.00
   -4    6   11      0.20      0.00
   -4    6   10     -0.43      0.00
   -4    6    9     -1.56      0.00
   -4    6    8      0.66      0.00
   -4    6    7     -0.52      0.00
   -4    6    6      0.16      0.00
   -4    6    5      0.07      0.00
   -4    6    4      2.31      0.00
   -4    6    3      4.48      0.00
   -4    6    2     -0.62      0.00
   -4    6    1     -5.39      0.00
   -4    5   10     -0.01      0.00
   -4    5    9     -1.32      0.00
   -4    5    8     -0.09      0.00
   -4    5    7      0.15      0.00
   -4    5    6      0.83      0.00
   -4    5    5     -0.27      0.00
   -4    5    4      2.45      0.00
   -4    5    3      1.10      0.00
   -4    5    2     -4.38      0.00
   -4    5    1     -8.17      0.00
   -4    4    8     -0.66      0.00
   -4    4    7      2.26      0.00
   -4    4    6      0.95      0.00
   -4    4    5     -0.20      0.00
   -4    4    4      1.66      0.00
   -4    4    3     -1.41      0.00
   -4    4    2     -5.22      0.00
   -4    4    1     -5.07      0.00
   -4    3    7      4.48      0.00
   -4    3    6      0.34      0.00
   -4    3    5     -0.42      0.00
   -4    3    3     -2.21      0.00
   -4    3    2     -3.33      0.00
   -4    3    1      0.64      0.00
   -4    2    5     -2.73      0.00
   -4    2    3     -0.85      0.00
   -4    2    2      0.40      0.00
   -4    2    1      3.64      0.00
    4   -2   16      1.25      0.00
   -4    1    2      4.58      0.00
   -4    1    1      2.45      0.00
    4   -1   17      0.72      0.00
    4    0   17     -0.29      0.00
    4    0   18     -0.05      0.00
    4    1   18      0.12      0.00
    4    2   18      0.72      0.00
    4    3   18      1.08      0.00
    4    4   16     -0.18      0.00
    4    4   17     -0.20      0.00
    4    4   18      0.92      0.00
    4    5    6      1.13      0.00
    4    5    7      7.91      0.00
    4    5    8      5.40      0.00
    4    5    9     -1.68      0.00
    4    5   15      0.68      0.00
    4    5   16     -0.79      0.00
    4    5   17     -0.63      0.00
    4    5   18      0.75      0.00
    4    6    7      8.67      0.00
    4    6    8      1.18      0.00
    4    6    9     -4.59      0.00
    4    6   10     -3.84      0.00
    4    6   15      0.03      0.00
    4    6   16     -0.78      0.00
    4    6   17     -0.49      0.00
    4    7    8     -3.66      0.00
    4    7    9     -6.99      0.00
    4    7   10     -2.55      0.00
    4    7   16      0.20      0.00
    4    7   17      0.40      0.00
    4    8    0      0.34      0.00
    4    8    1      3.54      0.00
    4    8    2      0.30      0.00
    4    8    3      0.90      0.00
    4    8    4      3.41      0.00
    4    8    5      1.16      0.00
    4    8    9     -6.01      0.00
    4    8   10      1.29      0.00
    4    8   16      1.24      0.00
    4    8   17      0.70      0.00
   -4   -9   10     -0.51      0.00
   -4   -9    9      0.55      0.00
   -4   -9    8     -0.30      0.00
   -4   -9    4      0.61      0.00
   -4   -9    3      0.80      0.00
   -4   -9    2     -1.26      0.00
   -4   -9    1     -1.48      0.00
    4    9    0      1.77      0.00
    4    9    1      3.71      0.00
    4    9    2     -0.98      0.00
    4    9    3     -0.02      0.00
    4    9    4      1.59      0.00
    4    9    5     -1.59      0.00
    4    9   10      4.36      0.00
    4    9   16      1.40      0.00
    4    9   17     -0.34      0.00
   -4  -10    9      0.44      0.00
   -4  -10    8     -1.39      0.00
   -4  -10    7     -0.39      0.00
   -4  -10    6      1.19      0.00
   -4  -10    5     -1.44      0.00
   -4  -10    4      0.93      0.00
   -4  -10    3      0.64      0.00
   -4  -10    2     -1.80      0.00
   -4  -10    1      0.53      0.00
    4   10    0      1.80      0.00
    4   10    1      1.16      0.00
    4   10    2     -1.90      0.00
    4   10    3     -0.48      0.00
    4   10    4      0.62      0.00
    4   10    5     -1.53      0.00
    4   10    6     -1.14      0.00
    4   10   17     -1.32      0.00
   -4  -11    8     -1.06      0.00
   -4  -11    7      1.02      0.00
   -4  -11    6      0.34      0.00
   -4  -11    5     -1.21      0.00
   -4  -11    4      1.59      0.00
   -4  -11    3      0.29      0.00
   -4  -11    2     -1.17      0.00
   -4  -11    1      1.66      0.00
    4   11    0      0.38      0.00
    4   11    1     -1.09      0.00
    4   11    2     -0.60      0.00
    4   11    3      0.41      0.00
    4   11    4      0.51      0.00
    4   11    5     -0.44      0.00
    4   11    6     -1.08      0.00
    4   11    7      0.80      0.00
    4   11    8      0.14      0.00
   -4  -12    7      0.83      0.00
   -4  -12    6     -0.38      0.00
   -4  -12    5     -0.12      0.00
   -4  -12    4      1.44      0.00
   -4  -12    3     -0.60      0.00
   -4  -12    2     -0.21      0.00
   -4  -12    1      1.15      0.00
    4   12    0     -1.55      0.00
    4   12    1     -0.61      0.00
    4   12    2      1.05      0.00
    4   12    3      0.80      0.00
    4   12    4     -0.35      0.00
    4   12    5     -0.33      0.00
    4   12    6     -1.15      0.00
    4   12    7      0.53      0.00
    4   12    8     -0.52      0.00
    4   12    9      1.40      0.00
   -4  -13    5      0.57      0.00
   -4  -13    4     -0.05      0.00
   -4  -13    3     -1.29      0.00
   -4  -13    2      0.68      0.00
   -4  -13    1      0.12      0.00
    4   13    0     -1.96      0.00
    4   13    1      1.44      0.00
    4   13    2      0.70      0.00
    4   13    3      0.26      0.00
    4   13    4     -1.36      0.00
    4   13    5     -0.53      0.00
    4   13    6     -0.60      0.00
    4   13    7      0.15      0.00
    4   13    8      0.22      0.00
    4   13    9      0.67      0.00
    4   13   10     -0.30      0.00
   -4  -14    4     -1.33      0.00
   -4  -14    3     -0.56      0.00
   -4  -14    2      1.38      0.00
   -4  -14    1     -0.25      0.00
    4   14    0     -0.83      0.00
    4   14    1      1.74      0.00
    4   14    2     -0.57      0.00
    4   14    3     -0.09      0.00
    4   14    4     -1.37      0.00
    4   14    5     -0.13      0.00
    4   14    6      0.62      0.00
    4   14    7      0.55      0.00
    4   14    8      0.98      0.00
    4   14    9     -0.15      0.00
    4   14   10      0.23      0.00
   -4  -15    3      0.65      0.00
   -4  -15    2      1.11      0.00
   -4  -15    1     -0.12      0.00
    4   15    0     -0.04      0.00
    4   15    1     -0.03      0.00
    4   15    2     -0.33      0.00
    4   15    3     -0.07      0.00
    4   15    4     -0.71      0.00
    4   15    5      0.72      0.00
    4   15    6      1.15      0.00
    4   15    7      0.55      0.00
    4   15    8      0.26      0.00
    4   15    9     -1.34      0.00
   -4  -16    1      0.22      0.00
    4   16    0     -0.15      0.00
    4   16    1     -1.17      0.00
    4   16    2      1.03      0.00
    4   16    3     -0.16      0.00
    4   16    4     -0.22      0.00
    4   16    5      1.34      0.00
    4   16    6     -0.13      0.00
    4   16    7     -0.06      0.00
    4   16    8     -0.74      0.00
    4   16    9     -1.79      0.00
    4   17    0     -0.28      0.00
    4   17    1     -0.77      0.00
    4   17    2      1.27      0.00
    4   17    3     -0.16      0.00
    4   17    4     -0.34      0.00
    4   17    5      0.97      0.00
    4   17    6     -2.07      0.00
    4   17    7      0.26      0.00
    4   17    8     -0.44      0.00
    4   17   12      0.05      0.00
    4   17   13     -1.80      0.00
    4   17   14      1.10      0.00
    4   18    2      0.28      0.00
    4   18    3      0.22      0.00
    4   18    4     -0.87      0.00
    4   18    5     -0.07      0.00
    4   18    6     -2.04      0.00
    4   18    7      1.71      0.00
    4   18    8      0.37      0.00
    4   18    9     -0.54      0.00
    4   18   10      1.00      0.00
   -5   17    0      1.27      0.00
    5  -17    1     -1.23      0.00
   -5   16    4      2.43      0.00
   -5   16    3      1.22      0.00
   -5   16    2     -1.01      0.00
   -5   16    1     -1.46      0.00
   -5   16    0      0.76      0.00
    5  -16    1     -2.47      0.00
    5  -16    2      0.14      0.00
   -5   15    6     -0.06      0.00
   -5   15    5     -0.40      0.00
   -5   15    4      1.11      0.00
   -5   15    3     -0.51      0.00
   -5   15    2     -2.22      0.00
   -5   15    1     -1.79      0.00
   -5   15    0      0.33      0.00
    5  -15    1     -1.31      0.00
    5  -15    2      1.13      0.00
    5  -15    3      1.05      0.00
   -5   14    8      1.07      0.00
   -5   14    7     -0.42      0.00
   -5   14    6     -1.73      0.00
   -5   14    5     -0.13      0.00
   -5   14    4     -0.18      0.00
   -5   14    3     -0.79      0.00
   -5   14    2     -1.73      0.00
   -5   14    1     -0.69      0.00
   -5   14    0      1.50      0.00
    5  -14    1      1.16      0.00
    5  -14    2      1.27      0.00
    5  -14    3      0.68      0.00
   -5   13   10     -1.07      0.00
   -5   13    9     -0.03      0.00
   -5   13    8      0.16      0.00
   -5   13    7     -0.95      0.00
   -5   13    6     -1.30      0.00
   -5   13    5      1.45      0.00
   -5   13    4      0.02      0.00
   -5   13    3      0.05      0.00
   -5   13    2     -0.87      0.00
   -5   13    1      0.97      0.00
   -5   13    0      2.83      0.00
    5  -13    1      1.72      0.00
    5  -13    2     -0.68      0.00
   -5   12   11     -1.10      0.00
   -5   12   10     -0.46      0.00
   -5   12    9     -1.51      0.00
   -5   12    8      0.99      0.00
   -5   12    7     -0.38      0.00
   -5   12    6      1.22      0.00
   -5   12    5      2.03      0.00
   -5   12    4      0.03      0.00
   -5   12    3     -0.43      0.00
   -5   12    2     -0.98      0.00
   -5   12    1      2.44      0.00
   -5   12    0      2.11      0.00
    5  -12    1     -0.09      0.00
    5  -12    2     -3.46      0.00
   -5   11   12      0.89      0.00
   -5   11   11     -0.46      0.00
   -5   11   10     -0.45      0.00
   -5   11    9     -1.24      0.00
   -5   11    8      2.06      0.00
   -5   11    7      0.35      0.00
   -5   11    6      2.39      0.00
   -5   11    5     -0.40      0.00
   -5   11    4     -0.94      0.00
   -5   11    3     -1.87      0.00
   -5   11    2     -0.52      0.00
   -5   11    1      3.26      0.00
   -5   11    0     -0.29      0.00
    5  -11    1     -2.18      0.00
   -5   10   13     -2.12      0.00
   -5   10   12      0.97      0.00
   -5   10   11      0.78      0.00
   -5   10   10     -0.46      0.00
   -5   10    9     -0.23      0.00
   -5   10    8      1.34      0.00
   -5   10    7      0.37      0.00
   -5   10    6      0.80      0.00
   -5   10    5     -3.15      0.00
   -5   10    4     -0.89      0.00
   -5   10    3     -1.49      0.00
   -5   10    2      1.55      0.00
   -5   10    1      2.69      0.00
   -5    9   14     -0.81      0.00
   -5    9   13     -2.08      0.00
   -5    9   12      2.11      0.00
   -5    9   11      1.15      0.00
   -5    9   10     -0.38      0.00
   -5    9    9     -0.54      0.00
   -5    9    8      0.07      0.00
   -5    9    7      0.15      0.00
   -5    9    6     -0.87      0.00
   -5    9    5     -2.76      0.00
   -5    9    4      0.96      0.00
   -5    9    3      0.99      0.00
   -5    9    2      2.94      0.00
   -5    9    1      0.45      0.00
   -5    8   14     -1.39      0.00
   -5    8   12      2.21      0.00
   -5    8   11      0.49      0.00
   -5    8   10     -0.73      0.00
   -5    8    9     -1.33      0.00
   -5    8    8      0.42      0.00
   -5    8    7      0.06      0.00
   -5    8    6     -0.50      0.00
   -5    8    5     -0.49      0.00
   -5    8    4      2.50      0.00
   -5    8    3      2.55      0.00
   -5    8    2      1.12      0.00
   -5    8    1     -2.58      0.00
   -5    7   11      0.01      0.00
   -5    7   10     -1.18      0.00
   -5    7    9     -0.66      0.00
   -5    7    8      1.43      0.00
   -5    7    7     -0.31      0.00
   -5    7    6      0.60      0.00
   -5    7    5      0.37      0.00
   -5    7    4      2.18      0.00
   -5    7    3      1.21      0.00
   -5    7    2     -2.84      0.00
   -5    7    1     -4.45      0.00
   -5    6   10     -0.98      0.00
   -5    6    9      0.61      0.00
   -5    6    8      1.12      0.00
   -5    6    7     -0.64      0.00
   -5    6    6      0.67      0.00
   -5    6    5     -0.19      0.00
   -5    6    4      0.93      0.00
   -5    6    3     -1.37      0.00
   -5    6    2     -5.19      0.00
   -5    6    1     -2.71      0.00
   -5    5    9      0.55      0.00
   -5    5    8      0.54      0.00
   -5    5    7      0.08      0.00
   -5    5    6     -0.17      0.00
   -5    5    5     -0.16      0.00
   -5    5    4     -0.05      0.00
   -5    5    3     -2.36      0.00
   -5    5    2     -3.89      0.00
   -5    5    1      2.42      0.00
   -5    4    8      1.58      0.00
   -5    4    7      0.85      0.00
   -5    4    6     -1.56      0.00
   -5    4    5      0.29      0.00
   -5    4    4     -0.67      0.00
   -5    4    3     -1.28      0.00
   -5    4    2     -0.79      0.00
   -5    4    1      6.43      0.00
   -5    3    6     -3.10      0.00
   -5    3    5      0.10      0.00
   -5    3    4     -0.53      0.00
   -5    3    3      0.36      0.00
   -5    3    2      1.28      0.00
   -5    3    1      5.35      0.00
   -5    2    4      1.36      0.00
   -5    2    3      1.61      0.00
   -5    2    2      1.49      0.00
   -5    2    1      0.66      0.00
   -5    1    1     -3.52      0.00
   -5    1    0     -2.21      0.00
    5   -1   17     -1.50      0.00
    5    0   17     -1.83      0.00
    5    0   18      0.60      0.00
    5    1   18      1.17      0.00
    5    2   18      0.69      0.00
    5    3   18     -0.06      0.00
    5    4   18      0.21      0.00
    5    5   16     -1.77      0.00
    5    5   17      1.22      0.00
    5    5   18      0.76      0.00
    5    6    8     -6.43      0.00
    5    6    9     -2.03      0.00
    5    6   10      2.23      0.00
    5    6   11      2.18      0.00
    5    6   15      0.25      0.00
    5    6   16     -0.19      0.00
    5    6   17      2.12      0.00
    5    6   18      0.15      0.00
   -5   -7   11      1.18      0.00
    5    7    9      0.08      0.00
    5    7   10      5.15      0.00
    5    7   11      1.13      0.00
    5    7   16      1.08      0.00
    5    7   17      0.84      0.00
    5    7   18     -1.03      0.00
    5    8    1      2.25      0.00
    5    8    2     -2.69      0.00
    5    8    3     -0.25      0.00
    5    8    4     -1.83      0.00
    5    8    5     -2.07      0.00
    5    8    9      2.63      0.00
    5    8   10      6.17      0.00
    5    8   11     -0.95      0.00
    5    8   16      0.73      0.00
    5    8   17     -1.85      0.00
    5    9    0      1.09      0.00
    5    9    1     -0.08      0.00
    5    9    2     -5.63      0.00
    5    9    3      0.34      0.00
    5    9    4     -1.28      0.00
    5    9    5     -0.71      0.00
    5    9   11     -2.90      0.00
    5    9   12     -1.09      0.00
    5    9   17     -3.22      0.00
   -5  -10    9      0.72      0.00
   -5  -10    8     -1.35      0.00
   -5  -10    7      1.56      0.00
   -5  -10    6     -0.13      0.00
   -5  -10    5      0.09      0.00
   -5  -10    4      0.45      0.00
   -5  -10    3     -0.62      0.00
   -5  -10    2     -0.65      0.00
   -5  -10    1      2.69      0.00
    5   10    0     -0.95      0.00
    5   10    1     -2.02      0.00
    5   10    2     -3.13      0.00
    5   10    3      1.83      0.00
    5   10    4      0.73      0.00
    5   10    5      0.56      0.00
    5   10    6      1.06      0.00
    5   10   12     -0.98      0.00
    5   10   17     -2.15      0.00
   -5  -11    8     -0.21      0.00
   -5  -11    7      0.97      0.00
   -5  -11    6     -0.58      0.00
   -5  -11    5      0.36      0.00
   -5  -11    4      0.61      0.00
   -5  -11    3     -1.46      0.00
   -5  -11    2      0.70      0.00
   -5  -11    1      1.25      0.00
    5   11    0     -1.84      0.00
    5   11    1     -1.75      0.00
    5   11    2      0.84      0.00
    5   11    3      1.50      0.00
    5   11    4      0.93      0.00
    5   11    5      0.06      0.00
    5   11    6      0.00      0.00
    5   11    7      1.01      0.00
    5   11    8     -1.47      0.00
    5   11   17     -0.26      0.00
   -5  -12    6      0.05      0.00
   -5  -12    5     -0.06      0.00
   -5  -12    4      0.45      0.00
   -5  -12    3     -1.80      0.00
   -5  -12    2      1.66      0.00
   -5  -12    1     -0.83      0.00
    5   12    0     -1.29      0.00
    5   12    1      0.37      0.00
    5   12    2      1.47      0.00
    5   12    3      0.04      0.00
    5   12    4     -0.34      0.00
    5   12    5     -0.26      0.00
    5   12    6     -0.92      0.00
    5   12    7      0.48      0.00
    5   12    8     -0.90      0.00
    5   12    9     -0.39      0.00
   -5  -13    5     -0.51      0.00
   -5  -13    4      0.04      0.00
   -5  -13    3     -0.61      0.00
   -5  -13    2      1.44      0.00
   -5  -13    1     -1.63      0.00
    5   13    0      0.13      0.00
    5   13    1      1.76      0.00
    5   13    2     -0.76      0.00
    5   13    3     -0.25      0.00
    5   13    4     -0.82      0.00
    5   13    5      0.53      0.00
    5   13    6     -0.47      0.00
    5   13    7      0.72      0.00
    5   13    8      0.66      0.00
    5   13    9     -0.10      0.00
    5   13   10      1.15      0.00
    5   13   11      1.16      0.00
   -5  -14    4     -0.07      0.00
   -5  -14    3      1.09      0.00
   -5  -14    2      0.25      0.00
   -5  -14    1     -1.05      0.00
    5   14    0      0.57      0.00
    5   14    1      1.15      0.00
    5   14    2     -1.99      0.00
    5   14    3      0.33      0.00
    5   14    4      0.05      0.00
    5   14    5      1.07      0.00
    5   14    6      0.31      0.00
    5   14    7      0.05      0.00
    5   14    8      0.81      0.00
    5   14    9     -0.50      0.00
    5   14   10      0.73      0.00
    5   14   11     -0.62      0.00
   -5  -15    2     -0.86      0.00
   -5  -15    1     -0.49      0.00
    5   15    0     -0.29      0.00
    5   15    1      0.34      0.00
    5   15    2     -0.74      0.00
    5   15    3      0.14      0.00
    5   15    4      1.29      0.00
    5   15    5      0.52      0.00
    5   15    6     -0.06      0.00
    5   15    7     -1.28      0.00
    5   15    8     -0.03      0.00
    5   15    9     -0.31      0.00
    5   15   10     -0.13      0.00
    5   15   11     -0.28      0.00
    5   16    0     -0.73      0.00
    5   16    1      0.76      0.00
    5   16    2      0.83      0.00
    5   16    3     -0.90      0.00
    5   16    4      1.71      0.00
    5   16    5     -0.55      0.00
    5   16    6     -1.34      0.00
    5   16    7     -1.02      0.00
    5   16    8     -0.25      0.00
    5   16    9      0.97      0.00
    5   16   10      0.01      0.00
    5   16   15      0.25      0.00
    5   17    1      1.19      0.00
    5   17    2      0.79      0.00
    5   17    3     -1.61      0.00
    5   17    4      0.97      0.00
    5   17    5     -0.97      0.00
    5   17    6     -1.54      0.00
    5   17    7      1.10      0.00
    5   17    8     -0.07      0.00
    5   17    9      1.66      0.00
    5   17   10      0.50      0.00
    5   17   12     -2.89      0.00
    5   17   13      1.93      0.00
    5   17   14      1.35      0.00
    5   18    3     -1.27      0.00
    5   18    4      0.03      0.00
    5   18    5     -0.12      0.00
    5   18    6     -0.07      0.00
    5   18    7      2.24      0.00
    5   18    8     -0.64      0.00
    5   18    9      0.83      0.00
    5   18   10      0.55      0.00
    5   18   11     -0.96      0.00
    5   19    5      1.00      0.00
    5   19    6      1.03      0.00
    5   19    7      0.74      0.00
    5   19    8     -1.40      0.00
    5   19    9     -0.12      0.00
   -6   16    2     -2.70      0.00
   -6   16    1      0.70      0.00
   -6   16    0      0.32      0.00
    6  -16    1     -1.60      0.00
    6  -16    2      1.26      0.00
   -6   15    5      0.32      0.00
   -6   15    4     -1.80      0.00
   -6   15    3     -1.14      0.00
   -6   15    2     -0.82      0.00
   -6   15    1      1.80      0.00
   -6   15    0      1.27      0.00
    6  -15    1     -0.53      0.00
    6  -15    2      1.65      0.00
   -6   14    7     -1.88      0.00
   -6   14    6     -1.05      0.00
   -6   14    5      0.84      0.00
   -6   14    4     -0.70      0.00
   -6   14    3      0.55      0.00
   -6   14    2      1.58      0.00
   -6   14    1      1.71      0.00
   -6   14    0      1.64      0.00
    6  -14    1     -1.14      0.00
    6  -14    2      0.65      0.00
    6  -14    3     -0.59      0.00
   -6   13    8      1.35      0.00
   -6   13    7     -2.77      0.00
   -6   13    6      1.41      0.00
   -6   13    5      1.09      0.00
   -6   13    4      0.44      0.00
   -6   13    3      0.95      0.00
   -6   13    2      1.52      0.00
   -6   13    1      0.34      0.00
   -6   13    0      0.17      0.00
    6  -13    1     -2.87      0.00
    6  -13    2     -0.39      0.00
    6  -13    3     -1.07      0.00
   -6   12    9      0.67      0.00
   -6   12    8      1.12      0.00
   -6   12    7     -2.37      0.00
   -6   12    6      2.52      0.00
   -6   12    5     -0.32      0.00
   -6   12    4     -0.01      0.00
   -6   12    3     -0.60      0.00
   -6   12    2      0.62      0.00
   -6   12    1     -0.71      0.00
   -6   12    0     -1.66      0.00
    6  -12    1     -3.20      0.00
    6  -12    2      0.20      0.00
   -6   11   11     -0.67      0.00
   -6   11   10     -0.63      0.00
   -6   11    9      1.45      0.00
   -6   11    8     -0.86      0.00
   -6   11    7     -0.79      0.00
   -6   11    6      1.19      0.00
   -6   11    5     -1.71      0.00
   -6   11    4     -0.60      0.00
   -6   11    3     -1.29      0.00
   -6   11    2      1.42      0.00
   -6   11    1     -1.07      0.00
   -6   11    0     -1.95      0.00
    6  -11    1     -1.74      0.00
    6  -11    2      2.33      0.00
   -6   10   11     -1.38      0.00
   -6   10   10     -1.02      0.00
   -6   10    9      0.92      0.00
   -6   10    8     -1.54      0.00
   -6   10    7      1.22      0.00
   -6   10    6     -0.34      0.00
   -6   10    5     -1.23      0.00
   -6   10    4     -0.08      0.00
   -6   10    3     -0.02      0.00
   -6   10    2      2.45      0.00
   -6   10    1     -1.58      0.00
   -6    9   12      0.91      0.00
   -6    9   11     -1.84      0.00
   -6    9   10     -0.47      0.00
   -6    9    9      0.08      0.00
   -6    9    8      0.54      0.00
   -6    9    7      1.87      0.00
   -6    9    6     -0.57      0.00
   -6    9    5     -0.37      0.00
   -6    9    4      0.58      0.00
   -6    9    3      1.06      0.00
   -6    9    2      1.21      0.00
   -6    9    1     -2.10      0.00
   -6    8   13      0.99      0.00
   -6    8   11     -0.98      0.00
   -6    8   10     -0.01      0.00
   -6    8    9      0.33      0.00
   -6    8    8      2.40      0.00
   -6    8    7      0.32      0.00
   -6    8    6     -0.35      0.00
   -6    8    5     -0.91      0.00
   -6    8    4      0.67      0.00
   -6    8    3      0.35      0.00
   -6    8    2     -1.30      0.00
   -6    8    1     -1.59      0.00
   -6    7   13      0.36      0.00
   -6    7   10     -0.23      0.00
   -6    7    9      1.11      0.00
   -6    7    8      1.32      0.00
   -6    7    7     -1.51      0.00
   -6    7    6     -0.35      0.00
   -6    7    5     -1.55      0.00
   -6    7    4      0.66      0.00
   -6    7    3     -1.00      0.00
   -6    7    2     -2.15      0.00
   -6    7    1      0.56      0.00
   -6    6    9      1.12      0.00
   -6    6    8     -0.89      0.00
   -6    6    7     -1.37      0.00
   -6    6    6     -0.21      0.00
   -6    6    5     -0.68      0.00
   -6    6    4      0.55      0.00
   -6    6    3     -1.12      0.00
   -6    6    2     -0.64      0.00
   -6    6    1      3.49      0.00
   -6    5    8     -1.25      0.00
   -6    5    7     -0.33      0.00
   -6    5    6     -0.04      0.00
   -6    5    5      0.70      0.00
   -6    5    4      0.02      0.00
   -6    5    3      0.00      0.00
   -6    5    2      1.09      0.00
   -6    5    1      4.75      0.00
   -6    4    7     -0.85      0.00
   -6    4    6      0.08      0.00
   -6    4    5      1.24      0.00
   -6    4    4     -0.40      0.00
   -6    4    3      0.61      0.00
   -6    4    2      1.14      0.00
   -6    4    1      2.75      0.00
   -6    3    5      1.29      0.00
   -6    3    4     -0.20      0.00
   -6    3    3     -0.22      0.00
   -6    3    2      0.38      0.00
   -6    3    1     -0.48      0.00
   -6    3    0     -5.21      0.00
   -6    2    3     -1.50      0.00
   -6    2    2      0.41      0.00
   -6    2    1     -1.83      0.00
   -6    2    0     -1.37      0.00
   -6    1    0      2.64      0.00
    6    0   18      0.96      0.00
    6    1   18      0.43      0.00
    6    2   18     -0.17      0.00
    6    3   18      0.49      0.00
    6    5   18     -0.30      0.00
    6    6    9      3.02      0.00
    6    6   10      1.40      0.00
    6    6   11     -1.63      0.00
    6    6   15      1.58      0.00
    6    6   16      0.88      0.00
    6    6   17      0.76      0.00
    6    6   18     -1.92      0.00
    6    7    9      3.44      0.00
    6    7   10      1.27      0.00
    6    7   11     -2.92      0.00
    6    7   12      0.00      0.00
    6    7   16      0.28      0.00
    6    7   17     -1.96      0.00
    6    7   18     -1.13      0.00
    6    8    5      2.64      0.00
    6    8   10     -0.81      0.00
    6    8   11     -3.63      0.00
    6    8   12      0.74      0.00
    6    8   13      0.79      0.00
    6    8   16     -0.76      0.00
    6    8   17     -2.58      0.00
    6    8   18      1.53      0.00
    6    9    1     -1.34      0.00
    6    9    2     -1.39      0.00
    6    9    3      4.86      0.00
    6    9    4      0.14      0.00
    6    9    5      1.91      0.00
    6    9    6      0.06      0.00
    6    9   11     -2.47      0.00
    6    9   12      1.12      0.00
    6    9   13      1.16      0.00
    6    9   17     -0.66      0.00
   -6  -10    8     -0.34      0.00
   -6  -10    1      0.26      0.00
    6   10    0     -2.29      0.00
    6   10    1      0.13      0.00
    6   10    2      2.06      0.00
    6   10    3      3.20      0.00
    6   10    4      0.19      0.00
    6   10    5     -1.19      0.00
    6   10    6     -0.31      0.00
    6   10    7     -0.70      0.00
    6   10   13      1.49      0.00
    6   10   17      1.13      0.00
   -6  -11    7     -0.19      0.00
   -6  -11    6      0.13      0.00
   -6  -11    5     -0.45      0.00
   -6  -11    4      0.03      0.00
   -6  -11    3     -0.12      0.00
   -6  -11    2      1.31      0.00
   -6  -11    1     -1.29      0.00
    6   11    0     -1.15      0.00
    6   11    1      0.98      0.00
    6   11    2      2.59      0.00
    6   11    3     -0.24      0.00
    6   11    4     -0.52      0.00
    6   11    5     -2.57      0.00
    6   11    6     -0.24      0.00
    6   11    7     -0.25      0.00
    6   11    8     -0.99      0.00
    6   11   17      1.21      0.00
   -6  -12    6      1.03      0.00
   -6  -12    5     -1.10      0.00
   -6  -12    4      0.87      0.00
   -6  -12    3     -0.93      0.00
   -6  -12    2      1.46      0.00
   -6  -12    1     -2.36      0.00
    6   12    0      0.79      0.00
    6   12    1      0.98      0.00
    6   12    2      0.97      0.00
    6   12    3     -1.16      0.00
    6   12    4     -0.76      0.00
    6   12    5     -1.07      0.00
    6   12    6      0.14      0.00
    6   12    7      1.60      0.00
    6   12    8     -0.54      0.00
    6   12    9      0.69      0.00
   -6  -13    5     -0.95      0.00
   -6  -13    4      1.08      0.00
   -6  -13    3     -0.97      0.00
   -6  -13    2      0.58      0.00
   -6  -13    1     -1.37      0.00
    6   13    0      2.05      0.00
    6   13    1      0.07      0.00
    6   13    2     -0.49      0.00
    6   13    3      0.08      0.00
    6   13    4     -0.63      0.00
    6   13    5      0.44      0.00
    6   13    6      0.15      0.00
    6   13    7      1.87      0.00
    6   13    8     -0.72      0.00
    6   13    9     -0.08      0.00
    6   13   10      1.16      0.00
    6   13   12     -1.41      0.00
    6   13   13     -2.53      0.00
   -6  -14    2     -0.51      0.00
   -6  -14    1      0.43      0.00
    6   14    0      1.36      0.00
    6   14    1     -0.78      0.00
    6   14    2     -0.85      0.00
    6   14    3      1.06      0.00
    6   14    4     -0.18      0.00
    6   14    5     -0.07      0.00
    6   14    6     -0.08      0.00
    6   14    7      0.37      0.00
    6   14    8     -0.42      0.00
    6   14    9     -1.18      0.00
    6   14   10     -0.40      0.00
    6   14   11     -0.90      0.00
    6   14   12     -1.37      0.00
    6   14   13     -0.01      0.00
   -6  -15    1      1.13      0.00
    6   15    0      0.16      0.00
    6   15    1     -0.42      0.00
    6   15    2     -0.62      0.00
    6   15    3      1.10      0.00
    6   15    4      0.38      0.00
    6   15    5     -1.81      0.00
    6   15    6     -0.03      0.00
    6   15    7     -0.36      0.00
    6   15    8      0.82      0.00
    6   15    9     -1.10      0.00
    6   15   10     -0.72      0.00
    6   15   11      1.48      0.00
    6   15   12     -1.66      0.00
    6   16    1      0.45      0.00
    6   16    2     -0.79      0.00
    6   16    3      0.62      0.00
    6   16    4      0.45      0.00
    6   16    5     -2.72      0.00
    6   16    6      0.63      0.00
    6   16    7      0.79      0.00
    6   16    8      1.47      0.00
    6   16    9     -0.44      0.00
    6   16   10     -0.69      0.00
    6   16   11      1.85      0.00
    6   16   12     -1.96      0.00
    6   16   15     -0.53      0.00
    6   17    2     -1.33      0.00
    6   17    3      0.20      0.00
    6   17    4      0.33      0.00
    6   17    5     -1.66      0.00
    6   17    6      1.37      0.00
    6   17    7      1.71      0.00
    6   17    8      0.34      0.00
    6   17    9     -0.29      0.00
    6   17   10     -1.03      0.00
    6   17   11     -0.01      0.00
    6   17   12     -0.73      0.00
    6   17   13      3.11      0.00
    6   17   14     -2.71      0.00
    6   17   15     -1.04      0.00
    6   18    4      0.60      0.00
    6   18    5      0.01      0.00
    6   18    6      0.96      0.00
    6   18    7      0.63      0.00
    6   18    8     -1.13      0.00
    6   18    9     -0.27      0.00
    6   18   10     -1.08      0.00
    6   18   11     -1.26      0.00
    6   18   12      1.45      0.00
    6   19    8     -0.86      0.00
    6   19    9      0.19      0.00
    6   19   10     -0.46      0.00
    7  -16    1     -0.31      0.00
    7  -16    2      1.87      0.00
   -7   15    3      2.00      0.00
   -7   15    2      1.80      0.00
   -7   15    1      0.82      0.00
   -7   15    0     -0.53      0.00
    7  -15    1     -1.11      0.00
    7  -15    2      2.12      0.00
   -7   14    5      0.43      0.00
   -7   14    4      0.62      0.00
   -7   14    3      2.22      0.00
   -7   14    2      0.53      0.00
   -7   14    1     -1.54      0.00
   -7   14    0     -0.83      0.00
    7  -14    1     -1.91      0.00
    7  -14    2      2.27      0.00
    7  -14    3     -2.05      0.00
   -7   13    7     -1.01      0.00
   -7   13    6      2.17      0.00
   -7   13    5     -0.08      0.00
   -7   13    4      0.52      0.00
   -7   13    3      0.10      0.00
   -7   13    2     -1.51      0.00
   -7   13    1     -2.57      0.00
   -7   13    0     -0.50      0.00
    7  -13    1     -0.94      0.00
    7  -13    2      2.83      0.00
    7  -13    3     -1.91      0.00
    7  -13    4      1.49      0.00
   -7   12    8     -2.08      0.00
   -7   12    7      0.18      0.00
   -7   12    6      1.26      0.00
   -7   12    5     -0.51      0.00
   -7   12    4     -0.60      0.00
   -7   12    3     -1.15      0.00
   -7   12    2     -1.04      0.00
   -7   12    1     -1.73      0.00
   -7   12    0      1.02      0.00
    7  -12    1      0.85      0.00
    7  -12    2      3.31      0.00
    7  -12    3     -1.52      0.00
   -7   11    9      0.04      0.00
   -7   11    8     -1.85      0.00
   -7   11    7      1.99      0.00
   -7   11    6      0.00      0.00
   -7   11    5     -0.33      0.00
   -7   11    4     -1.09      0.00
   -7   11    3      0.39      0.00
   -7   11    2      0.60      0.00
   -7   11    1     -0.80      0.00
   -7   11    0      2.26      0.00
    7  -11    1      1.41      0.00
    7  -11    2      2.85      0.00
   -7   10   10      1.45      0.00
   -7   10    9      0.34      0.00
   -7   10    8      0.50      0.00
   -7   10    7      2.07      0.00
   -7   10    6     -1.05      0.00
   -7   10    5     -0.59      0.00
   -7   10    4     -0.39      0.00
   -7   10    3      2.47      0.00
   -7   10    2      0.25      0.00
   -7   10    1     -0.52      0.00
   -7   10    0      1.79      0.00
   -7    9   11      0.06      0.00
   -7    9   10      1.92      0.00
   -7    9    9      1.03      0.00
   -7    9    8      1.45      0.00
   -7    9    7     -0.40      0.00
   -7    9    6     -1.89      0.00
   -7    9    5     -1.43      0.00
   -7    9    4      1.24      0.00
   -7    9    3      2.43      0.00
   -7    9    2     -1.48      0.00
   -7    9    1     -0.25      0.00
   -7    9    0      0.19      0.00
   -7    8   12      0.15      0.00
   -7    8   11      1.21      0.00
   -7    8   10      0.76      0.00
   -7    8    9      1.04      0.00
   -7    8    8     -0.42      0.00
   -7    8    7     -2.62      0.00
   -7    8    6     -1.76      0.00
   -7    8    5     -1.16      0.00
   -7    8    4      2.93      0.00
   -7    8    3      0.59      0.00
   -7    8    2     -1.81      0.00
   -7    8    1      0.06      0.00
   -7    8    0     -0.61      0.00
   -7    7   12      1.43      0.00
   -7    7   10     -0.73      0.00
   -7    7    9      0.33      0.00
   -7    7    8     -2.35      0.00
   -7    7    7     -1.88      0.00
   -7    7    6     -0.35      0.00
   -7    7    5      0.57      0.00
   -7    7    4      3.16      0.00
   -7    7    3     -0.90      0.00
   -7    7    2     -0.45      0.00
   -7    7    1      0.14      0.00
   -7    7    0     -0.13      0.00
   -7    6   13     -1.39      0.00
   -7    6   12      1.74      0.00
   -7    6    8     -2.03      0.00
   -7    6    7      0.61      0.00
   -7    6    6      1.00      0.00
   -7    6    5      1.69      0.00
   -7    6    4      1.49      0.00
   -7    6    3     -0.94      0.00
   -7    6    2      0.47      0.00
   -7    6    1      0.00      0.00
   -7    6    0     -0.23      0.00
   -7    5    7      1.84      0.00
   -7    5    6      1.23      0.00
   -7    5    5      0.90      0.00
   -7    5    4     -0.47      0.00
   -7    5    3     -0.47      0.00
   -7    5    2     -0.04      0.00
   -7    5    1     -0.34      0.00
   -7    5    0     -1.69      0.00
   -7    4    6      1.08      0.00
   -7    4    5     -0.76      0.00
   -7    4    4     -1.21      0.00
   -7    4    3     -0.55      0.00
   -7    4    2     -0.35      0.00
   -7    4    1     -0.54      0.00
   -7    4    0     -2.17      0.00
   -7    3    4     -0.91      0.00
   -7    3    3     -0.50      0.00
   -7    3    2      0.90      0.00
   -7    3    1     -0.32      0.00
   -7    3    0     -0.39      0.00
   -7    2    2      2.20      0.00
   -7    2    1     -0.50      0.00
   -7    2    0      1.04      0.00
    7    1   18     -1.19      0.00
    7    2   18      0.51      0.00
    7    6    9     -0.18      0.00
    7    6   16     -1.74      0.00
    7    6   17     -0.34      0.00
    7    6   18     -0.83      0.00
    7    7   10     -1.38      0.00
    7    7   11     -0.44      0.00
    7    7   12      1.92      0.00
    7    7   13     -0.04      0.00
    7    7   14     -0.82      0.00
    7    7   16     -1.55      0.00
    7    7   17     -1.00      0.00
    7    7   18      1.44      0.00
    7    8   11     -0.42      0.00
    7    8   12      1.47      0.00
    7    8   13     -0.60      0.00
    7    8   14     -1.59      0.00
    7    8   16     -0.26      0.00
    7    8   17      0.25      0.00
    7    8   18      2.31      0.00
    7    9    5     -1.26      0.00
    7    9    6     -0.86      0.00
    7    9   12      1.83      0.00
    7    9   13     -0.70      0.00
    7    9   14     -1.64      0.00
    7    9   17      1.19      0.00
    7   10    1      1.80      0.00
    7   10    2     -0.09      0.00
    7   10    3     -1.39      0.00
    7   10    4     -2.60      0.00
    7   10    5     -1.93      0.00
    7   10    6      1.69      0.00
    7   10    7      0.01      0.00
    7   10   14     -1.44      0.00
    7   10   17      0.54      0.00
   -7  -11    5     -0.61      0.00
   -7  -11    4      0.90      0.00
   -7  -11    3     -0.28      0.00
   -7  -11    2     -0.38      0.00
   -7  -11    1     -1.30      0.00
    7   11    0      0.91      0.00
    7   11    1      0.65      0.00
    7   11    2     -0.74      0.00
    7   11    3     -1.73      0.00
    7   11    4     -0.99      0.00
    7   11    5     -0.29      0.00
    7   11    6      2.98      0.00
    7   11    7      0.71      0.00
    7   11    8     -0.41      0.00
    7   11   17     -0.50      0.00
   -7  -12    5     -0.47      0.00
   -7  -12    4      0.91      0.00
   -7  -12    3     -0.94      0.00
   -7  -12    2      0.48      0.00
   -7  -12    1     -1.16      0.00
    7   12    0      2.09      0.00
    7   12    1     -0.51      0.00
    7   12    2      0.29      0.00
    7   12    3     -1.39      0.00
    7   12    4      0.08      0.00
    7   12    5      1.15      0.00
    7   12    6      1.94      0.00
    7   12    7      0.72      0.00
    7   12    8     -2.47      0.00
    7   12    9      1.49      0.00
   -7  -13    2      1.14      0.00
   -7  -13    1     -0.01      0.00
    7   13    0      1.44      0.00
    7   13    1     -1.37      0.00
    7   13    2      0.71      0.00
    7   13    3     -1.53      0.00
    7   13    4      0.22      0.00
    7   13    5      1.27      0.00
    7   13    6      0.31      0.00
    7   13    7     -0.02      0.00
    7   13    8     -3.08      0.00
    7   13    9      1.45      0.00
    7   13   10     -0.60      0.00
    7   13   13      1.00      0.00
    7   13   14      1.74      0.00
   -7  -14    1      0.76      0.00
    7   14    0     -0.84      0.00
    7   14    1     -1.22      0.00
    7   14    2      0.28      0.00
    7   14    3     -0.69      0.00
    7   14    4      0.13      0.00
    7   14    5      0.55      0.00
    7   14    6      0.03      0.00
    7   14    7     -0.43      0.00
    7   14    8     -1.55      0.00
    7   14    9      0.54      0.00
    7   14   10      1.02      0.00
    7   14   11      0.23      0.00
    7   14   12     -0.62      0.00
    7   14   13      2.93      0.00
    7   14   14      0.35      0.00
    7   15    0     -2.10      0.00
    7   15    1     -0.11      0.00
    7   15    2      0.11      0.00
    7   15    3      0.95      0.00
    7   15    4     -0.63      0.00
    7   15    5     -0.20      0.00
    7   15    6      1.21      0.00
    7   15    7     -0.25      0.00
    7   15    8     -0.07      0.00
    7   15    9     -0.73      0.00
    7   15   10      2.68      0.00
    7   15   11      0.06      0.00
    7   15   12     -1.37      0.00
    7   15   13      3.28      0.00
    7   15   14     -2.43      0.00
    7   16    2      0.12      0.00
    7   16    3      1.45      0.00
    7   16    4     -1.64      0.00
    7   16    5     -0.11      0.00
    7   16    6      2.37      0.00
    7   16    7     -0.39      0.00
    7   16    8     -0.37      0.00
    7   16    9     -1.47      0.00
    7   16   10      2.52      0.00
    7   16   11     -0.98      0.00
    7   16   12     -1.03      0.00
    7   16   13      1.82      0.00
    7   16   15      0.12      0.00
    7   17    4     -1.48      0.00
    7   17    5      0.48      0.00
    7   17    6      1.96      0.00
    7   17    7     -1.10      0.00
    7   17    8     -1.26      0.00
    7   17    9     -0.99      0.00
    7   17   10      1.20      0.00
    7   17   11     -0.74      0.00
    7   17   12      0.46      0.00
    7   17   14     -2.04      0.00
    7   17   15      0.82      0.00
    7   18    7     -1.22      0.00
    7   18    8     -0.80      0.00
    7   18    9      0.06      0.00
    7   18   10      0.25      0.00
    7   18   11      0.68      0.00
    7   18   12      1.21      0.00
   -8   15    0     -0.66      0.00
    8  -15    1      0.20      0.00
    8  -15    2      1.23      0.00
   -8   14    3      0.51      0.00
   -8   14    2     -2.83      0.00
   -8   14    1     -0.80      0.00
   -8   14    0     -0.09      0.00
    8  -14    1      0.81      0.00
    8  -14    2      1.09      0.00
    8  -14    3     -2.49      0.00
   -8   13    5      0.29      0.00
   -8   13    4     -0.77      0.00
   -8   13    3     -0.65      0.00
   -8   13    2     -2.09      0.00
   -8   13    1      0.69      0.00
   -8   13    0      1.51      0.00
    8  -13    1      1.14      0.00
    8  -13    2      0.53      0.00
    8  -13    3     -2.05      0.00
    8  -13    4      2.07      0.00
   -8   12    6     -0.09      0.00
   -8   12    5      0.34      0.00
   -8   12    4     -1.45      0.00
   -8   12    3      0.33      0.00
   -8   12    2     -0.06      0.00
   -8   12    1      1.67      0.00
   -8   12    0      2.29      0.00
    8  -12    1     -0.01      0.00
    8  -12    2     -0.35      0.00
    8  -12    3     -2.06      0.00
    8  -12    4      1.34      0.00
   -8   11    7      0.65      0.00
   -8   11    6      0.09      0.00
   -8   11    5     -0.34      0.00
   -8   11    4     -0.67      0.00
   -8   11    3      1.95      0.00
   -8   11    2     -0.19      0.00
   -8   11    1      1.43      0.00
   -8   11    0      0.94      0.00
    8  -11    1     -1.36      0.00
    8  -11    2     -1.25      0.00
    8  -11    3     -2.18      0.00
   -8   10    8      0.58      0.00
   -8   10    7     -0.53      0.00
   -8   10    6     -0.81      0.00
   -8   10    5     -0.57      0.00
   -8   10    4      1.28      0.00
   -8   10    3      1.40      0.00
   -8   10    2     -2.22      0.00
   -8   10    1      0.92      0.00
   -8   10    0     -1.17      0.00
    8  -10    1     -1.06      0.00
    8  -10    2     -1.75      0.00
   -8    9    9     -0.04      0.00
   -8    9    8     -2.05      0.00
   -8    9    7     -0.83      0.00
   -8    9    6     -1.32      0.00
   -8    9    5      0.90      0.00
   -8    9    4      2.75      0.00
   -8    9    3     -1.35      0.00
   -8    9    2     -2.94      0.00
   -8    9    1      0.52      0.00
   -8    9    0     -1.37      0.00
   -8    8   10     -1.19      0.00
   -8    8    9     -0.61      0.00
   -8    8    8     -3.00      0.00
   -8    8    7      0.68      0.00
   -8    8    6     -0.36      0.00
   -8    8    5      2.89      0.00
   -8    8    4      2.20      0.00
   -8    8    3     -3.62      0.00
   -8    8    2     -1.44      0.00
   -8    8    1      0.12      0.00
   -8    8    0      0.94      0.00
   -8    7   11     -2.19      0.00
   -8    7    9     -0.69      0.00
   -8    7    8     -1.10      0.00
   -8    7    7      2.29      0.00
   -8    7    6      0.92      0.00
   -8    7    5      2.96      0.00
   -8    7    4      0.02      0.00
   -8    7    3     -3.55      0.00
   -8    7    2      0.02      0.00
   -8    7    1      0.19      0.00
   -8    7    0      3.05      0.00
   -8    6   11     -2.43      0.00
   -8    6    7      2.30      0.00
   -8    6    6      0.81      0.00
   -8    6    5      0.76      0.00
   -8    6    4     -1.77      0.00
   -8    6    3     -1.97      0.00
   -8    6    2      0.08      0.00
   -8    6    1      0.92      0.00
   -8    6    0      2.38      0.00
   -8    5   11     -1.42      0.00
   -8    5    6     -0.56      0.00
   -8    5    5     -1.62      0.00
   -8    5    4     -1.63      0.00
   -8    5    3     -0.55      0.00
   -8    5    2      0.17      0.00
   -8    5    1      1.50      0.00
   -8    5    0      0.13      0.00
   -8    4    5     -2.27      0.00
   -8    4    4      0.14      0.00
   -8    4    3      0.44      0.00
   -8    4    2      1.35      0.00
   -8    4    1      0.86      0.00
   -8    4    0     -0.99      0.00
   -8    3    3      1.17      0.00
   -8    3    2      1.85      0.00
   -8    3    1     -1.05      0.00
   -8    3    0     -0.83      0.00
   -8    2    0     -0.38      0.00
    8    2   18      0.99      0.00
    8    6   18     -0.75      0.00
    8    7   11     -0.29      0.00
    8    7   12     -0.23      0.00
    8    7   13     -2.27      0.00
    8    7   14      0.01      0.00
    8    7   15     -0.38      0.00
    8    7   16      0.99      0.00
    8    7   17      1.41      0.00
    8    7   18      0.26      0.00
    8    8   12      0.51      0.00
    8    8   13     -0.79      0.00
    8    8   14      0.24      0.00
    8    8   15      0.75      0.00
    8    8   16      1.42      0.00
    8    8   17      0.56      0.00
    8    8   18      0.08      0.00
    8    9    6      1.87      0.00
    8    9   14      0.15      0.00
    8    9   15      1.66      0.00
    8    9   17     -1.07      0.00
    8   10    2     -1.88      0.00
    8   10    3      0.31      0.00
    8   10    4     -0.21      0.00
    8   10    5      2.64      0.00
    8   10    6      2.15      0.00
    8   10    7     -0.95      0.00
    8   10   15      2.09      0.00
    8   10   17     -2.16      0.00
    8   11    0      0.70      0.00
    8   11    1     -0.57      0.00
    8   11    2      0.39      0.00
    8   11    3      0.68      0.00
    8   11    4      0.77      0.00
    8   11    5      2.29      0.00
    8   11    6      0.63      0.00
    8   11    7     -1.83      0.00
    8   11    8     -1.73      0.00
    8   11   17     -1.65      0.00
   -8  -12    2      0.19      0.00
   -8  -12    1      0.15      0.00
    8   12    0      0.80      0.00
    8   12    1     -0.38      0.00
    8   12    2      1.00      0.00
    8   12    3     -1.43      0.00
    8   12    4      1.37      0.00
    8   12    5      0.82      0.00
    8   12    6     -0.87      0.00
    8   12    7     -1.81      0.00
    8   12    8     -1.82      0.00
    8   12    9      2.79      0.00
   -8  -13    1     -0.67      0.00
    8   13    0     -0.26      0.00
    8   13    1     -0.05      0.00
    8   13    2     -0.38      0.00
    8   13    3     -1.81      0.00
    8   13    4      2.39      0.00
    8   13    5     -0.05      0.00
    8   13    6     -1.30      0.00
    8   13    7     -0.96      0.00
    8   13    8     -0.83      0.00
    8   13    9      3.24      0.00
    8   13   10     -1.25      0.00
    8   13   14      0.43      0.00
    8   13   15      0.06      0.00
    8   14    0     -1.17      0.00
    8   14    1      1.07      0.00
    8   14    2     -0.87      0.00
    8   14    3      0.38      0.00
    8   14    4      2.09      0.00
    8   14    5     -0.48      0.00
    8   14    6     -0.93      0.00
    8   14    7     -0.36      0.00
    8   14    8      0.19      0.00
    8   14    9      2.21      0.00
    8   14   10      0.03      0.00
    8   14   11     -1.97      0.00
    8   14   12      0.56      0.00
    8   14   13      1.03      0.00
    8   14   14     -0.77      0.00
    8   14   15     -0.35      0.00
    8   15    2     -0.12      0.00
    8   15    3      1.15      0.00
    8   15    4     -0.03      0.00
    8   15    5     -0.39      0.00
    8   15    6     -0.19      0.00
    8   15    7     -0.81      0.00
    8   15    8      0.45      0.00
    8   15    9      0.88      0.00
    8   15   10      1.01      0.00
    8   15   11     -4.06      0.00
    8   15   12      1.80      0.00
    8   15   13      0.65      0.00
    8   15   14     -1.56      0.00
    8   15   15      0.10      0.00
    8   16    3     -0.39      0.00
    8   16    4     -1.23      0.00
    8   16    5      0.54      0.00
    8   16    6      0.20      0.00
    8   16    7     -1.72      0.00
    8   16    8      0.46      0.00
    8   16    9      0.64      0.00
    8   16   10      0.95      0.00
    8   16   11     -3.74      0.00
    8   16   12      2.37      0.00
    8   16   13      0.08      0.00
    8   16   14     -1.06      0.00
    8   16   15      0.74      0.00
    8   17    6     -0.15      0.00
    8   17    7     -1.68      0.00
    8   17    8      0.79      0.00
    8   17    9      1.08      0.00
    8   17   10      0.25      0.00
    8   17   11     -1.42      0.00
    8   17   12      1.18      0.00
    8   17   15      0.70      0.00
    9  -15    2     -0.56      0.00
   -9   14    0      0.15      0.00
    9  -14    1      1.23      0.00
    9  -14    2     -0.74      0.00
    9  -14    3      0.15      0.00
   -9   13    3      0.09      0.00
   -9   13    2     -0.60      0.00
   -9   13    1      1.59      0.00
   -9   13    0      0.78      0.00
    9  -13    1      0.17      0.00
    9  -13    2     -0.63      0.00
    9  -13    3     -0.10      0.00
    9  -13    4      0.38      0.00
   -9   12    4     -0.42      0.00
   -9   12    3      1.08      0.00
   -9   12    2     -0.53      0.00
   -9   12    1      1.57      0.00
   -9   12    0     -0.18      0.00
    9  -12    1     -1.20      0.00
    9  -12    2     -0.37      0.00
    9  -12    3     -0.62      0.00
    9  -12    4      0.30      0.00
   -9   11    6      0.52      0.00
   -9   11    5     -1.04      0.00
   -9   11    4      0.15      0.00
   -9   11    3      0.74      0.00
   -9   11    2     -1.37      0.00
   -9   11    1      1.20      0.00
   -9   11    0     -1.79      0.00
    9  -11    1     -0.85      0.00
    9  -11    2     -0.24      0.00
    9  -11    3     -0.16      0.00
    9  -11    4      1.09      0.00
   -9   10    7      0.77      0.00
   -9   10    6     -1.15      0.00
   -9   10    5      0.23      0.00
   -9   10    4     -0.09      0.00
   -9   10    3     -1.00      0.00
   -9   10    2     -0.93      0.00
   -9   10    1      0.94      0.00
   -9   10    0     -1.52      0.00
    9  -10    1      0.71      0.00
    9  -10    2     -0.09      0.00
    9  -10    3      1.02      0.00
   -9    9    8     -1.21      0.00
   -9    9    7      1.86      0.00
   -9    9    6     -1.78      0.00
   -9    9    5      2.16      0.00
   -9    9    4     -1.50      0.00
   -9    9    3     -1.99      0.00
   -9    9    2      1.35      0.00
   -9    9    1      0.91      0.00
   -9    9    0      0.87      0.00
    9   -9    1      0.79      0.00
   -9    8    8      0.38      0.00
   -9    8    7      1.78      0.00
   -9    8    6     -1.05      0.00
   -9    8    5      2.49      0.00
   -9    8    4     -2.83      0.00
   -9    8    3     -1.08      0.00
   -9    8    2      2.99      0.00
   -9    8    1      1.23      0.00
   -9    8    0      2.23      0.00
   -9    7    9      0.16      0.00
   -9    7    7      0.38      0.00
   -9    7    6     -0.15      0.00
   -9    7    5      0.86      0.00
   -9    7    4     -2.86      0.00
   -9    7    3      0.24      0.00
   -9    7    2      2.37      0.00
   -9    7    1      1.71      0.00
   -9    7    0      0.29      0.00
   -9    6   10      1.65      0.00
   -9    6    6     -0.25      0.00
   -9    6    5     -1.03      0.00
   -9    6    4     -1.56      0.00
   -9    6    3      0.63      0.00
   -9    6    2      1.17      0.00
   -9    6    1      1.64      0.00
   -9    6    0     -2.77      0.00
   -9    5   10      1.73      0.00
   -9    5    5     -1.13      0.00
   -9    5    4      0.48      0.00
   -9    5    3      0.62      0.00
   -9    5    2      1.05      0.00
   -9    5    1      0.26      0.00
   -9    5    0     -3.33      0.00
   -9    4    3      0.47      0.00
   -9    4    2      0.66      0.00
   -9    4    1     -1.90      0.00
   -9    4    0     -1.13      0.00
    9   -4    1      1.64      0.00
   -9    3    1     -2.69      0.00
   -9    3    0      1.43      0.00
    9   -3    1      1.54      0.00
    9    7   13     -0.09      0.00
    9    7   14      2.29      0.00
    9    7   15      0.28      0.00
    9    7   16      1.26      0.00
    9    7   17     -1.86      0.00
    9    7   18     -1.18      0.00
    9    8    6      1.24      0.00
    9    8   14      0.39      0.00
    9    8   15      0.71      0.00
    9    8   16      0.02      0.00
    9    8   17     -1.65      0.00
    9    8   18     -0.17      0.00
    9    9    5      2.43      0.00
    9    9    6     -0.25      0.00
    9    9   15      1.02      0.00
    9    9   16     -1.44      0.00
    9    9   17     -1.29      0.00
    9   10    4      0.30      0.00
    9   10    5      1.60      0.00
    9   10    6     -2.14      0.00
    9   10    7     -1.10      0.00
    9   10   16     -2.29      0.00
    9   10   17     -0.18      0.00
    9   11    2      0.76      0.00
    9   11    3     -0.64      0.00
    9   11    4      0.00      0.00
    9   11    5     -0.18      0.00
    9   11    6     -2.21      0.00
    9   11    7     -0.45      0.00
    9   11    8      0.10      0.00
   -9  -12    1      0.12      0.00
    9   12    0      0.49      0.00
    9   12    1      0.15      0.00
    9   12    2     -1.40      0.00
    9   12    3     -1.24      0.00
    9   12    4      1.21      0.00
    9   12    5     -1.02      0.00
    9   12    6     -0.92      0.00
    9   12    7     -0.02      0.00
    9   12    8      0.42      0.00
    9   12    9      1.69      0.00
    9   12   17      0.81      0.00
    9   13    0      1.01      0.00
    9   13    1     -0.15      0.00
    9   13    2     -2.18      0.00
    9   13    3      1.33      0.00
    9   13    4      1.85      0.00
    9   13    5     -1.68      0.00
    9   13    6     -0.07      0.00
    9   13    7      0.03      0.00
    9   13    8      0.71      0.00
    9   13    9      1.30      0.00
    9   13   10     -1.61      0.00
    9   13   15     -1.19      0.00
    9   13   16      0.04      0.00
    9   14    1      0.27      0.00
    9   14    2     -1.19      0.00
    9   14    3      2.58      0.00
    9   14    4      0.11      0.00
    9   14    5     -2.36      0.00
    9   14    6      0.35      0.00
    9   14    7      0.01      0.00
    9   14    8      0.96      0.00
    9   14    9      0.68      0.00
    9   14   10     -1.43      0.00
    9   14   11     -0.86      0.00
    9   14   12      2.24      0.00
    9   14   13      0.47      0.00
    9   14   14      0.01      0.00
    9   14   15     -1.33      0.00
    9   14   16     -0.07      0.00
    9   15    3      0.62      0.00
    9   15    4     -1.21      0.00
    9   15    5     -1.68      0.00
    9   15    6      0.93      0.00
    9   15    7      0.05      0.00
    9   15    8      1.19      0.00
    9   15    9      0.18      0.00
    9   15   10     -1.46      0.00
    9   15   11     -0.98      0.00
    9   15   12      3.71      0.00
    9   15   13     -1.30      0.00
    9   15   14     -0.82      0.00
    9   15   15     -0.60      0.00
    9   15   16     -0.01      0.00
    9   16    5     -0.13      0.00
    9   16    6      0.88      0.00
    9   16    7      0.07      0.00
    9   16    8      1.22      0.00
    9   16    9     -0.10      0.00
    9   16   10     -1.62      0.00
    9   16   11     -0.07      0.00
    9   16   12      2.90      0.00
    9   16   13     -1.75      0.00
    9   16   14     -0.98      0.00
    9   16   15      0.38      0.00
   10  -14    2     -0.60      0.00
   10  -14    3     -0.03      0.00
  -10   13    0      0.66      0.00
   10  -13    1     -0.56      0.00
   10  -13    2     -1.13      0.00
   10  -13    3     -0.77      0.00
  -10   12    2     -0.55      0.00
  -10   12    1      2.31      0.00
  -10   12    0     -1.40      0.00
   10  -12    1     -0.94      0.00
   10  -12    2     -1.01      0.00
   10  -12    3     -0.59      0.00
   10  -12    4      1.46      0.00
  -10   11    4     -0.46      0.00
  -10   11    3      0.18      0.00
  -10   11    2     -0.22      0.00
  -10   11    1      1.35      0.00
  -10   11    0     -1.98      0.00
   10  -11    1     -0.04      0.00
   10  -11    2     -0.25      0.00
   10  -11    3      0.47      0.00
   10  -11    4      2.31      0.00
   10  -11    5     -0.09      0.00
  -10   10    5      0.90      0.00
  -10   10    4     -1.04      0.00
  -10   10    3      1.44      0.00
  -10   10    2      0.75      0.00
  -10   10    1     -0.23      0.00
  -10   10    0     -0.19      0.00
   10  -10    1      0.14      0.00
   10  -10    2      0.46      0.00
   10  -10    3      0.77      0.00
   10  -10    4      1.48      0.00
  -10    9    6     -0.84      0.00
  -10    9    5      1.56      0.00
  -10    9    4     -1.08      0.00
  -10    9    3      3.16      0.00
  -10    9    2      0.74      0.00
  -10    9    1     -1.32      0.00
  -10    9    0      0.90      0.00
   10   -9    1     -1.39      0.00
   10   -9    2      0.64      0.00
  -10    8    7     -0.97      0.00
  -10    8    6      1.03      0.00
  -10    8    5      1.04      0.00
  -10    8    4     -0.80      0.00
  -10    8    3      3.22      0.00
  -10    8    2     -0.89      0.00
  -10    8    1     -1.55      0.00
  -10    8    0     -0.94      0.00
   10   -8    1     -2.16      0.00
  -10    7    6      1.86      0.00
  -10    7    5     -0.50      0.00
  -10    7    4     -0.81      0.00
  -10    7    3      1.40      0.00
  -10    7    2     -1.88      0.00
  -10    7    1     -1.19      0.00
  -10    7    0     -3.12      0.00
   10   -7    1      0.13      0.00
  -10    6    8     -0.24      0.00
  -10    6    5     -1.50      0.00
  -10    6    4     -0.50      0.00
  -10    6    3      0.08      0.00
  -10    6    2     -0.70      0.00
  -10    6    1     -0.87      0.00
  -10    6    0     -2.26      0.00
   10   -6    1      3.26      0.00
  -10    5    4      0.33      0.00
  -10    5    3      0.08      0.00
  -10    5    2      0.50      0.00
  -10    5    1     -0.87      0.00
  -10    5    0      0.75      0.00
   10   -5    1      3.38      0.00
  -10    4    2     -0.14      0.00
  -10    4    1     -0.28      0.00
  -10    4    0      2.71      0.00
   10   -4    1      0.60      0.00
   10   -3    1     -1.86      0.00
   10    7   17     -1.35      0.00
   10    8   15     -0.43      0.00
   10    8   16     -1.47      0.00
   10    8   17     -0.08      0.00
   10    9    6     -2.06      0.00
   10    9    7      0.49      0.00
   10    9   16     -1.01      0.00
   10    9   17      0.69      0.00
   10   10    5     -0.57      0.00
   10   10    6     -1.47      0.00
   10   10    7      1.33      0.00
   10   10    8      0.00      0.00
   10   11    3     -0.69      0.00
   10   11    4     -0.09      0.00
   10   11    5     -0.58      0.00
   10   11    6      0.17      0.00
   10   11    7      0.84      0.00
   10   11    8     -0.55      0.00
   10   11    9      0.29      0.00
   10   12    0      0.36      0.00
   10   12    1     -2.06      0.00
   10   12    2     -0.63      0.00
   10   12    3      1.36      0.00
   10   12    4      0.62      0.00
   10   12    5     -0.38      0.00
   10   12    6      0.70      0.00
   10   12    7     -0.49      0.00
   10   12    8     -0.03      0.00
   10   12    9      0.59      0.00
   10   12   10      0.45      0.00
   10   13    1     -2.18      0.00
   10   13    2      0.82      0.00
   10   13    3      2.65      0.00
   10   13    4     -0.75      0.00
   10   13    5     -0.87      0.00
   10   13    6      0.37      0.00
   10   13    7     -0.82      0.00
   10   13    8      1.15      0.00
   10   13    9      0.91      0.00
   10   13   10      0.26      0.00
   10   13   11     -0.78      0.00
   10   13   16     -0.30      0.00
   10   14    3      1.34      0.00
   10   14    4     -2.25      0.00
   10   14    5     -0.63      0.00
   10   14    6      0.86      0.00
   10   14    7      0.00      0.00
   10   14    8      1.44      0.00
   10   14    9      0.42      0.00
   10   14   10     -1.16      0.00
   10   14   11     -0.50      0.00
   10   14   12      1.20      0.00
   10   14   13     -0.99      0.00
   10   14   14     -2.18      0.00
   10   14   15     -0.55      0.00
   10   14   16      0.25      0.00
   10   15    5      0.55      0.00
   10   15    6      1.54      0.00
   10   15    7      0.24      0.00
   10   15    8      0.39      0.00
   10   15    9     -0.46      0.00
   10   15   10     -1.99      0.00
   10   15   11      0.87      0.00
   10   15   12      0.62      0.00
   10   15   13     -2.32      0.00
   10   15   14     -0.54      0.00
   10   15   15      0.56      0.00
   10   15   16      0.90      0.00
   10   16    8     -0.69      0.00
   10   16    9     -0.80      0.00
   10   16   10     -1.28      0.00
   10   16   11      1.77      0.00
   10   16   15      1.20      0.00
   11  -13    2     -1.05      0.00
   11  -13    3      1.13      0.00
  -11   12    0     -3.18      0.00
   11  -12    1     -0.57      0.00
   11  -12    2      0.55      0.00
   11  -12    3      2.12      0.00
   11  -12    4      1.52      0.00
  -11   11    2      0.40      0.00
  -11   11    1     -0.58      0.00
  -11   11    0     -1.97      0.00
   11  -11    1      0.90      0.00
   11  -11    2      1.89      0.00
   11  -11    3      1.53      0.00
   11  -11    4      0.64      0.00
   11  -11    5     -2.61      0.00
  -11   10    3      1.62      0.00
  -11   10    2     -1.59      0.00
  -11   10    1     -0.61      0.00
  -11   10    0      0.32      0.00
   11  -10    1      0.58      0.00
   11  -10    2      1.66      0.00
   11  -10    3     -0.12      0.00
   11  -10    4     -0.62      0.00
   11  -10    5     -3.03      0.00
  -11    9    4      0.86      0.00
  -11    9    3      0.71      0.00
  -11    9    2     -4.07      0.00
  -11    9    1      0.64      0.00
  -11    9    0      0.80      0.00
   11   -9    1     -0.31      0.00
   11   -9    2      0.71      0.00
   11   -9    3     -0.60      0.00
   11   -9    4     -1.00      0.00
   11   -9    5     -1.85      0.00
  -11    8    5     -1.11      0.00
  -11    8    4      0.06      0.00
  -11    8    3     -1.21      0.00
  -11    8    2     -4.28      0.00
  -11    8    1      2.07      0.00
  -11    8    0      0.37      0.00
   11   -8    1      0.65      0.00
   11   -8    2      0.25      0.00
  -11    7    6      0.16      0.00
  -11    7    5     -2.80      0.00
  -11    7    4     -0.22      0.00
  -11    7    3     -1.46      0.00
  -11    7    2     -1.32      0.00
  -11    7    1      2.52      0.00
  -11    7    0      1.22      0.00
   11   -7    1      2.12      0.00
   11   -7    2     -0.25      0.00
  -11    6    4      1.13      0.00
  -11    6    3      0.23      0.00
  -11    6    2      1.52      0.00
  -11    6    1      1.62      0.00
  -11    6    0      2.25      0.00
   11   -6    1      0.90      0.00
   11   -6    2     -1.41      0.00
  -11    5    7     -0.62      0.00
  -11    5    2      1.32      0.00
  -11    5    1      0.36      0.00
  -11    5    0      1.20      0.00
   11   -5    1     -2.23      0.00
   11   -5    2     -1.87      0.00
  -11    4    0     -1.18      0.00
   11   -4    1     -3.49      0.00
   11   -4    2     -0.37      0.00
  -11   -7    4      0.26      0.00
   11    8   17      1.18      0.00
   11    9    7      1.31      0.00
   11   10    6      0.30      0.00
   11   10    7      0.48      0.00
   11   10    8     -0.81      0.00
   11   11    4      0.15      0.00
   11   11    5      0.64      0.00
   11   11    6      0.65      0.00
   11   11    7     -0.97      0.00
   11   11    8     -0.31      0.00
   11   11    9      0.79      0.00
   11   12    1     -0.90      0.00
   11   12    2      2.94      0.00
   11   12    3     -0.23      0.00
   11   12    4     -0.26      0.00
   11   12    5      0.44      0.00
   11   12    6     -0.47      0.00
   11   12    7     -0.96      0.00
   11   12    8      1.15      0.00
   11   12    9      1.73      0.00
   11   12   10      0.33      0.00
   11   13    3     -1.09      0.00
   11   13    4     -1.55      0.00
   11   13    5      0.47      0.00
   11   13    6     -0.93      0.00
   11   13    7      0.87      0.00
   11   13    8      1.53      0.00
   11   13    9      1.02      0.00
   11   13   10     -2.36      0.00
   11   13   11     -2.55      0.00
   11   14    5      1.30      0.00
   11   14    6     -0.28      0.00
   11   14    7      1.75      0.00
   11   14    8     -0.06      0.00
   11   14    9     -0.60      0.00
   11   14   10     -3.83      0.00
   11   14   11      0.27      0.00
   11   14   12      1.48      0.00
   11   14   14      0.57      0.00
   11   14   16      0.58      0.00
   11   15    8     -1.38      0.00
   11   15    9     -1.01      0.00
   11   15   10     -2.12      0.00
   11   15   11      2.70      0.00
   12  -12    3      0.31      0.00
   12  -12    4     -1.43      0.00
   12  -11    1      2.69      0.00
   12  -11    2      0.54      0.00
   12  -11    3     -1.52      0.00
   12  -11    4     -1.82      0.00
  -12   10    1      1.60      0.00
  -12   10    0      0.17      0.00
   12  -10    1      1.27      0.00
   12  -10    2     -1.21      0.00
   12  -10    3     -1.85      0.00
   12  -10    4     -1.25      0.00
   12  -10    5     -0.37      0.00
  -12    9    2     -0.96      0.00
  -12    9    1      3.76      0.00
  -12    9    0     -1.28      0.00
   12   -9    1     -0.36      0.00
   12   -9    2     -1.18      0.00
   12   -9    3     -0.39      0.00
   12   -9    4     -0.55      0.00
   12   -9    5      0.98      0.00
   12   -9    6      3.12      0.00
  -12    8    3     -1.75      0.00
  -12    8    2      1.59      0.00
  -12    8    1      3.67      0.00
  -12    8    0     -1.78      0.00
   12   -8    1     -1.23      0.00
   12   -8    2      0.16      0.00
   12   -8    3      0.51      0.00
  -12    7    3     -0.99      0.00
  -12    7    2      3.53      0.00
  -12    7    1      1.31      0.00
  -12    7    0     -1.27      0.00
   12   -7    1     -2.45      0.00
   12   -7    2      0.96      0.00
  -12    6    2      2.42      0.00
  -12    6    1     -1.44      0.00
  -12    6    0     -1.47      0.00
   12   -6    1     -3.45      0.00
   12   -6    2      1.34      0.00
  -12    5    0     -2.05      0.00
   12   -5    1     -1.84      0.00
   12   -5    2      2.47      0.00
  -12   -3    5      0.46      0.00
  -12   -4    5      1.02      0.00
  -12   -5    5      1.04      0.00
  -12   -5    4      1.85      0.00
  -12   -6    4      0.78      0.00
  -12   -7    3     -1.64      0.00
  -12   -8    2      0.22      0.00
   12    9    7      0.74      0.00
   12    9    8     -0.97      0.00
   12   10    6     -0.03      0.00
   12   10    7     -0.08      0.00
   12   10    8     -0.77      0.00
   12   10    9     -0.09      0.00
   12   11    5      0.55      0.00
   12   11    6     -1.00      0.00
   12   11    7     -0.42      0.00
   12   11    8      0.29      0.00
   12   11    9      1.34      0.00
   12   11   10      0.05      0.00
   12   12    3     -2.42      0.00
   12   12    4      1.19      0.00
   12   12    5      0.18      0.00
   12   12    6     -1.74      0.00
   12   12    7      1.09      0.00
   12   12    8      0.77      0.00
   12   12    9      1.39      0.00
   12   12   10     -3.03      0.00
   12   12   11     -0.93      0.00
   12   13    5      0.70      0.00
   12   13    6     -1.14      0.00
   12   13    7      2.26      0.00
   12   13    8     -0.69      0.00
   12   13    9     -0.19      0.00
   12   13   10     -4.65      0.00
   12   13   11      2.13      0.00
   12   13   12      2.31      0.00
   12   14    7      1.12      0.00
   12   14    8     -2.16      0.00
   12   14    9     -0.87      0.00
   12   14   10     -2.18      0.00
   12   14   11      4.88      0.00
   12   14   12      0.65      0.00
   13  -11    4     -0.07      0.00
   13  -10    2     -2.09      0.00
   13  -10    3      0.44      0.00
   13  -10    4      0.84      0.00
   13  -10    5      1.52      0.00
   13   -9    1      0.05      0.00
   13   -9    2      0.40      0.00
   13   -9    3      0.76      0.00
   13   -9    4      1.00      0.00
   13   -9    5      1.33      0.00
   13   -9    6      0.19      0.00
  -13    8    0     -1.80      0.00
   13   -8    1      0.37      0.00
   13   -8    2      2.85      0.00
   13   -8    3     -0.83      0.00
   13   -8    4      0.51      0.00
   13   -8    5      0.56      0.00
   13   -8    6     -1.19      0.00
  -13    7    1     -3.56      0.00
  -13    7    0     -0.44      0.00
   13   -7    1      0.26      0.00
   13   -7    2      3.51      0.00
   13   -7    3     -2.63      0.00
  -13    6    0      0.48      0.00
   13   -6    1      0.91      0.00
   13   -6    2      2.92      0.00
   13   -6    3     -2.66      0.00
   13   -5    3     -1.89      0.00
  -13   -2    5      0.07      0.00
  -13   -2    4     -0.76      0.00
  -13   -3    5      0.57      0.00
  -13   -3    4     -0.99      0.00
  -13   -4    4     -0.25      0.00
  -13   -4    3     -0.16      0.00
  -13   -5    3     -1.41      0.00
  -13   -6    3     -2.13      0.00
  -13   -6    2     -0.20      0.00
  -13   -7    2      1.29      0.00
  -13   -8    1      2.19      0.00
   13    9    0     -2.13      0.00
   13    9    8     -1.26      0.00
   13   10    7      0.04      0.00
   13   10    8     -1.16      0.00
   13   10    9      2.36      0.00
   13   11    6     -1.34      0.00
   13   11    7      1.26      0.00
   13   11    8     -0.30      0.00
   13   11    9      2.69      0.00
   13   11   10     -1.66      0.00
   13   12    5     -1.10      0.00
   13   12    6     -0.92      0.00
   13   12    7      2.32      0.00
   13   12    8     -0.46      0.00
   13   12    9      0.69      0.00
   13   12   10     -3.57      0.00
   13   12   11      2.10      0.00
   13   13    8     -1.14      0.00
   13   13    9     -0.90      0.00
   13   13   10     -1.72      0.00
   13   13   11      4.22      0.00
   13   13   12     -1.23      0.00
   14  -10    5     -0.19      0.00
   14   -9    3     -0.15      0.00
   14   -9    4      0.85      0.00
   14   -9    5     -1.03      0.00
   14   -8    2      0.53      0.00
   14   -8    3     -2.13      0.00
   14   -8    4      0.78      0.00
   14   -8    5     -1.29      0.00
   14   -7    1      0.11      0.00
   14   -7    2     -0.27      0.00
   14   -7    3     -2.96      0.00
   14   -7    4      1.58      0.00
  -14   -3    3      1.55      0.00
  -14   -3    2      1.56      0.00
  -14   -4    3      0.43      0.00
  -14   -4    2      0.04      0.00
  -14   -5    2      0.14      0.00
  -14   -5    1     -1.20      0.00
  -14   -6    1      0.49      0.00
   14    7    0     -1.85      0.00
   14    8    1     -0.24      0.00
   14    9    9      2.13      0.00
   14   10    8      0.06      0.00
   14   10    9      3.13      0.00
   14   10   10     -2.72      0.00
   14   11    6     -0.39      0.00
   14   11    7      1.75      0.00
   14   11    8     -0.64      0.00
   14   11    9      1.45      0.00
   14   11   10     -4.16      0.00
   14   11   11      0.01      0.00
   14   12    8     -1.40      0.00
   14   12    9     -0.71      0.00
   14   12   10     -2.10      0.00
   14   12   11      1.55      0.00
  -15   -4    1     -0.60      0.00
   15    4    0      2.28      0.00
  -15   -5    1      0.26      0.00
   15    5    0      2.29      0.00
   15    6    0      0.75      0.00
   15    6    1     -0.88      0.00
   15    7    1     -0.07      0.00
   15    8    2     -0.06      0.00
   15    9    9      0.46      0.00
   15    9   10     -1.59      0.00
   15   10    8     -0.58      0.00
   15   10    9     -0.04      0.00
   15   10   10     -3.45      0.00
   15   11    9     -0.34      0.00
   15   11   10     -2.31      0.00
   16    5    1     -2.37      0.00
   16    5    2      1.09      0.00
   16    6    1     -1.50      0.00
   16    6    2      1.13      0.00
   16    7    3      1.38      0.00
   16    7    9      0.57      0.00
   16    8    4     -2.01      0.00
   16    8   10      0.34      0.00
   16    8   12      0.32      0.00
   16    9    9     -0.26      0.00
   16    9   10     -0.73      0.00
   16    9   11     -0.11      0.00
   16    9   12      0.38      0.00
   17    4    8     -1.27      0.00
   17    4    9      0.49      0.00
   17    5    4     -1.01      0.00
   17    5    8     -0.21      0.00
   17    5    9      0.65      0.00
   17    5   10      0.13      0.00
   17    6    3     -0.48      0.00
   17    6    4     -2.46      0.00
   17    6    8      0.92      0.00
   17    6    9      0.91      0.00
   17    6   10      0.44      0.00
   17    6   11      0.10      0.00
   17    7    5      3.01      0.00
   17    7    8      1.08      0.00
   17    7    9      0.56      0.00
   17    7   10     -0.50      0.00
   17    7   11     -1.25      0.00
   17    7   12      0.86      0.00
   17    8    9     -0.31      0.00
   17    8   10     -1.26      0.00
   17    8   11     -0.90      0.00
   18    5   10     -0.43      0.00
   18    6    7     -0.47      0.00
   18    6    8      0.73      0.00
   18    6    9     -0.18      0.00
   18    6   10     -0.70      0.00
   18    6   11     -0.45      0.00
    1    0    0     10.60      0.00
   -1    1    0     41.14      0.00
    0    1    0     53.38      0.00
    1    1    0    -26.67      0.00
    0    2    0     -0.35      0.00
  -13    9    0     -2.40      0.00
   12   11    0     -0.62      0.00
   11   12    0     -0.76      0.00
   10   13    0      0.79      0.00
    9   14    0      1.28      0.00
   -8  -14    1     -1.22      0.00
   -9  -13    1     -0.73      0.00
  -10  -12    1      0.49      0.00
  -11  -11    1      0.19      0.00
  -12  -10    1     -0.19      0.00
  -15   -2    1     -1.20      0.00
  -15   -1    1     -0.77      0.00
    0   -1    1     25.01      0.00
    1   -1    1    -30.14      0.00
  -15    0    1     -0.38      0.00
    0    0    1      0.20      0.00
    1    0    1    -63.26      0.00
  -15    1    1      0.09      0.00
    0    1    1    -34.81      0.00
    1    1    1    -55.98      0.00
  -15    2    1      0.64      0.00
  -13    8    1     -1.87      0.00
  -13    9    1      0.10      0.00
   13   10    1     -0.78      0.00
  -10   13    1      1.79      0.00
   11   13    1     -0.36      0.00
    8   15    1      2.06      0.00
   -7  -14    2      1.21      0.00
   -8  -13    2      0.77      0.00
   -9  -12    2     -0.53      0.00
  -10  -11    2     -0.52      0.00
  -11  -10    2      0.78      0.00
  -12   -9    2      0.87      0.00
  -14    5    2      0.55      0.00
  -13    8    2      2.26      0.00
  -12   10    2     -1.39      0.00
   13   11    2      0.76      0.00
   12   12    2      0.99      0.00
   11   13    2      2.74      0.00
   10   14    2      0.84      0.00
    9   15    2     -0.66      0.00
    6  -15    3      0.78      0.00
   -6  -14    3     -0.65      0.00
   -7  -13    3     -1.06      0.00
   -8  -12    3      0.09      0.00
   -9  -11    3      1.06      0.00
  -10  -10    3     -0.07      0.00
  -11   -9    3     -0.69      0.00
  -14   -1    3     -1.49      0.00
  -14    0    3     -1.75      0.00
  -14    1    3      0.17      0.00
  -14    2    3      1.96      0.00
  -14    3    3      2.16      0.00
  -13    7    3     -1.96      0.00
  -12    9    3     -1.49      0.00
  -11   11    3      0.86      0.00
  -10   12    3     -0.16      0.00
   13   12    3     -0.56      0.00
   12   13    3     -2.35      0.00
   11   14    3     -0.78      0.00
   10   15    3      0.16      0.00
   -6   16    3     -1.12      0.00
    2  -15    4     -1.00      0.00
    3  -15    4      1.38      0.00
    4  -15    4      0.56      0.00
    5  -15    4     -0.31      0.00
    6  -14    4     -1.57      0.00
    7  -14    4     -0.26      0.00
   -9  -10    4     -0.15      0.00
  -10   -9    4      0.72      0.00
  -11   -8    4     -0.69      0.00
   14   -6    4      2.26      0.00
  -13   -1    4      0.86      0.00
  -13    0    4      1.85      0.00
  -13    4    4     -1.57      0.00
  -13    5    4     -0.85      0.00
  -12    8    4      0.21      0.00
  -11   10    4      0.47      0.00
  -10   12    4     -0.18      0.00
   13   12    4      1.22      0.00
   -9   13    4     -0.56      0.00
   12   13    4      0.99      0.00
   -8   14    4      0.40      0.00
   11   14    4     -1.50      0.00
   -7   15    4     -0.78      0.00
   10   15    4     -1.33      0.00
    9   16    4     -0.06      0.00
    0   18    4     -1.31      0.00
   -2  -14    5      0.19      0.00
    6  -14    5      0.37      0.00
   10  -12    5      0.67      0.00
   -9   -9    5     -2.04      0.00
  -10   -8    5     -0.16      0.00
   14   -7    5     -0.54      0.00
  -11   -6    5      0.51      0.00
   16   -4    5      0.88      0.00
  -12    6    5     -0.04      0.00
  -12    7    5     -0.70      0.00
  -11    9    5      0.33      0.00
  -10   11    5     -0.31      0.00
   -9   12    5     -0.30      0.00
   13   13    5     -0.97      0.00
   -8   14    5     -0.03      0.00
   12   14    5      1.08      0.00
   11   15    5      1.39      0.00
   -5   16    5     -0.29      0.00
   -3   17    5      1.16      0.00
    8   17    5      1.17      0.00
    0   18    5      1.21      0.00
    1   18    5      0.89      0.00
    3  -14    6     -0.28      0.00
    4  -14    6      0.84      0.00
   11  -11    6     -0.82      0.00
   12  -10    6      2.60      0.00
   -9   -8    6      1.71      0.00
   14   -8    6     -1.01      0.00
  -10   -6    6      0.14      0.00
  -11   -4    6     -1.68      0.00
  -12   -1    6     -0.08      0.00
   17   -1    6     -0.79      0.00
  -12    0    6     -0.02      0.00
   17    0    6     -0.23      0.00
  -12    1    6      0.27      0.00
  -12    2    6      0.97      0.00
  -12    3    6      1.19      0.00
  -12    4    6      0.90      0.00
  -12    5    6      0.41      0.00
  -11    8    6      1.35      0.00
  -10   10    6     -1.94      0.00
   -9   12    6      1.47      0.00
   14   12    6      0.54      0.00
   -8   13    6     -0.66      0.00
   13   13    6     -0.29      0.00
   -7   14    6      1.52      0.00
   12   14    6     -0.46      0.00
   -6   15    6     -1.70      0.00
   11   15    6     -0.11      0.00
   -5   16    6      0.88      0.00
   10   16    6      0.89      0.00
   -3   17    6      0.83      0.00
    0   18    6     -1.75      0.00
    1   18    6     -0.67      0.00
    2   18    6      0.14      0.00
    3   18    6     -2.02      0.00
    5  -13    7      0.51      0.00
    6  -13    7      0.32      0.00
   13   -9    7     -2.87      0.00
   -8   -8    7     -1.34      0.00
   13   -8    7     -2.56      0.00
  -10   -4    7      1.05      0.00
  -11   -2    7      1.88      0.00
  -11   -1    7      1.10      0.00
   17   -1    7     -0.58      0.00
  -11    0    7     -0.14      0.00
   17    0    7     -0.34      0.00
  -11    1    7     -0.92      0.00
   17    1    7      0.07      0.00
  -11    2    7     -1.31      0.00
   17    2    7      0.29      0.00
  -11    3    7     -1.33      0.00
   17    3    7      0.10      0.00
  -11    4    7     -1.05      0.00
  -11    6    7      0.30      0.00
  -10    9    7     -0.54      0.00
   -9   11    7     -0.15      0.00
   15   11    7      0.60      0.00
   -8   12    7      0.89      0.00
   14   12    7      1.10      0.00
   13   13    7      1.36      0.00
   -7   14    7     -1.01      0.00
   13   14    7     -0.23      0.00
   -6   15    7     -0.19      0.00
   -5   15    7      0.31      0.00
   11   15    7      0.37      0.00
   -4   16    7     -0.55      0.00
   10   16    7     -0.44      0.00
   -3   17    7     -0.33      0.00
   -2   17    7     -0.53      0.00
    9   17    7      0.21      0.00
    0   18    7      0.43      0.00
    1   18    7      2.05      0.00
    2   18    7     -0.39      0.00
    3   18    7     -0.89      0.00
    6  -12    8     -0.68      0.00
    7  -12    8     -0.41      0.00
   13   -8    8      0.56      0.00
  -10   -2    8     -2.12      0.00
  -10   -1    8     -2.29      0.00
   17   -1    8      2.75      0.00
   17    0    8      3.12      0.00
   17    1    8      1.79      0.00
   17    2    8     -0.24      0.00
   17    3    8     -1.41      0.00
  -10    7    8     -0.16      0.00
   -9   10    8     -1.04      0.00
   -8   11    8      1.34      0.00
   15   11    8     -1.44      0.00
   -8   12    8     -0.08      0.00
   -7   13    8     -0.37      0.00
   14   13    8     -0.91      0.00
   -6   14    8      0.11      0.00
   13   14    8     -0.51      0.00
   -5   15    8      1.97      0.00
   12   15    8     -1.25      0.00
   -4   16    8      0.33      0.00
   -3   16    8     -0.46      0.00
   -2   17    8      0.61      0.00
   -1   17    8      0.25      0.00
    9   17    8      0.80      0.00
    1   18    8     -0.33      0.00
    2   18    8     -1.26      0.00
    3   18    8      0.81      0.00
    4  -12    9      1.04      0.00
   -9   -2    9      1.71      0.00
   17    0    9     -0.87      0.00
   17    1    9     -2.35      0.00
   17    2    9     -1.82      0.00
   17    3    9     -0.25      0.00
   -9    8    9     -0.16      0.00
   -8   10    9     -0.01      0.00
   16   10    9     -0.02      0.00
   -7   12    9      0.19      0.00
   -6   13    9     -0.05      0.00
   14   13    9     -1.02      0.00
   -5   14    9      1.09      0.00
   13   14    9     -0.31      0.00
   -4   15    9     -2.71      0.00
   12   15    9      0.10      0.00
   -3   16    9      0.01      0.00
   11   16    9     -0.09      0.00
   -1   17    9     -0.37      0.00
    0   17    9     -0.20      0.00
    9   17    9     -0.36      0.00
    2   18    9      0.08      0.00
    3   18    9     -0.25      0.00
    4  -11   10     -0.81      0.00
    5  -11   10     -2.43      0.00
    6  -11   10     -1.05      0.00
   17    0   10     -1.26      0.00
   17    1   10     -0.25      0.00
   -9    2   10     -0.25      0.00
   17    2   10      1.27      0.00
   -9    3   10      0.54      0.00
   17    3   10      1.11      0.00
   -9    4   10      1.32      0.00
   17    4   10      0.08      0.00
   -8    9   10      0.01      0.00
   16   10   10     -0.28      0.00
   -7   11   10      0.18      0.00
   -6   12   10      0.59      0.00
   14   13   10      1.20      0.00
   13   14   10      1.33      0.00
   -3   15   10      0.79      0.00
   12   15   10      1.21      0.00
   -2   16   10     -0.30      0.00
   11   16   10      0.39      0.00
    0   17   10      0.18      0.00
    9   17   10     -1.50      0.00
    3   18   10     -0.40      0.00
    4  -10   11     -0.63      0.00
    5  -10   11      1.46      0.00
    6  -10   11      1.01      0.00
   17    1   11      0.24      0.00
   -8    2   11      0.35      0.00
   17    2   11     -0.53      0.00
   -8    3   11      0.08      0.00
   17    3   11     -0.86      0.00
   -8    4   11     -0.42      0.00
   17    4   11      0.04      0.00
   17    5   11      0.91      0.00
   16   10   11      2.00      0.00
   15   11   11      2.51      0.00
   14   13   11      1.50      0.00
   -4   14   11      1.20      0.00
   13   14   11      3.10      0.00
   -3   15   11     -0.97      0.00
   12   15   11      3.70      0.00
   -1   16   11      0.71      0.00
    9   17   11      0.58      0.00
    4   -9   12      1.03      0.00
    5   -9   12      0.37      0.00
    6   -9   12     -0.10      0.00
   16   -1   12      0.25      0.00
   16    0   12      0.59      0.00
   17    3   12     -0.10      0.00
   17    4   12     -0.41      0.00
   17    5   12     -0.87      0.00
   14   12   12     -0.37      0.00
   -4   13   12     -0.41      0.00
   14   13   12     -0.57      0.00
   -3   14   12     -0.11      0.00
   13   14   12     -2.17      0.00
   -2   15   12      0.44      0.00
   11   15   12      0.26      0.00
   12   15   12     -0.97      0.00
    0   16   12     -1.46      0.00
   10   16   12     -0.24      0.00
    5   -8   13     -0.49      0.00
   16    1   13      0.23      0.00
   16    2   13      0.64      0.00
   16    3   13      0.53      0.00
   16    4   13     -1.01      0.00
   16    5   13     -1.91      0.00
   16    6   13     -0.89      0.00
   16    7   13      0.20      0.00
   16    8   13      0.03      0.00
   16    9   13     -0.33      0.00
   12   14   13     -0.24      0.00
   11   15   13     -0.08      0.00
   10   16   13     -1.63      0.00
    3   -6   14      2.18      0.00
    4   -6   14      0.89      0.00
    5   -6   14     -0.99      0.00
    6   -6   14     -0.09      0.00
    7   -6   14     -0.76      0.00
    8   -6   14      0.72      0.00
    9   -6   14      0.86      0.00
   -2   -2   14      1.55      0.00
   16    2   14     -0.38      0.00
   16    3   14     -0.34      0.00
   16    4   14      0.41      0.00
   16    5   14      2.21      0.00
   16    6   14      3.09      0.00
   16    7   14      1.74      0.00
   11   15   14      1.62      0.00
    4   -5   15     -1.86      0.00
    5   -5   15      0.18      0.00
    6   -5   15      0.55      0.00
    7   -5   15     -0.47      0.00
    8   -5   15      0.26      0.00
    2   -4   15      0.93      0.00
    3   -4   15     -0.70      0.00
    1   -3   15     -0.17      0.00
   -1   -1   15     -0.98      0.00
   15    2   15      0.15      0.00
   15    3   15     -1.21      0.00
   15    4   15     -1.25      0.00
   15    5   15      0.66      0.00
   15    6   15      2.18      0.00
   15    7   15      0.95      0.00
   15    8   15     -0.99      0.00
   15    9   15     -0.43      0.00
   11   14   15      1.40      0.00
    4   -3   16      0.26      0.00
    5   -3   16      1.13      0.00
    6   -3   16      0.42      0.00
    7   -3   16      0.34      0.00
    8   -3   16     -0.58      0.00
    9   -3   16     -0.60      0.00
    2   -2   16     -0.24      0.00
    3   -2   16     -1.34      0.00
   11   -2   16      0.60      0.00
   14    4   16     -1.31      0.00
   15    5   16      1.54      0.00
   15    6   16      0.44      0.00
   -1    9   16      0.39      0.00
    0    9   16     -1.38      0.00
    0   10   16     -0.66      0.00
    6   -1   17      0.32      0.00
    7   -1   17      2.14      0.00
    8   -1   17     -0.71      0.00
    9   -1   17     -2.29      0.00
   14    6   17     -0.07      0.00
    1    7   17      1.29      0.00
    1    8   17      1.36      0.00
    1    9   17      0.34      0.00
    2    9   17     -0.89      0.00
    2   10   17     -0.06      0.00
    3   10   17      1.32      0.00
    2   11   17      0.13      0.00
    3   11   17      0.17      0.00
    4   11   17     -0.71      0.00
    3   12   17     -0.44      0.00
    4   12   17      0.72      0.00
    5   12   17      0.85      0.00
    8    1   18      0.16      0.00
    9    2   18      0.22      0.00
    3    5   18      0.49      0.00
    3    6   18     -0.32      0.00
    4    6   18      0.75      0.00
    3    7   18     -0.33      0.00
    4    7   18      0.33      0.00
   10    7   18      2.28      0.00
   11    7   18      1.25      0.00
    3    8   18      0.37      0.00
    4    8   18     -0.77      0.00
    5    8   18     -0.84      0.00
   10    8   18      1.60      0.00
   11    8   18      0.42      0.00
   12    8   18     -0.40      0.00
    4    9   18     -1.56      0.00
    5    9   18      0.90      0.00
    6    9   18      3.04      0.00
    7    9   18      0.91      0.00
    8    9   18     -0.39      0.00
    9    9   18      0.68      0.00
   10    9   18      0.97      0.00
   11    9   18      0.45      0.00
    4   10   18     -0.99      0.00
    5   10   18      2.10      0.00
    6   10   18      2.17      0.00
    7   10   18     -0.65      0.00
    8   10   18     -0.32      0.00
    9   10   18      1.31      0.00
   10   10   18      0.85      0.00
    6   11   18      0.69      0.00
    7   11   18     -0.79      0.00
    8   11   18      0.01      0.00
    9   11   18      1.42      0.00
    0    0    0      0.00      0.00
# SQUEEZE RESULTS (Version = 120716)
# Note: Data are Listed for all Voids in the P1 Unit Cell
# i.e. Centre of Gravity, Solvent Accessible Volume,
# Recovered number of Electrons in the Void and
# Details about the Squeezed Material
loop_
  _platon_squeeze_void_nr
  _platon_squeeze_void_average_x
  _platon_squeeze_void_average_y
  _platon_squeeze_void_average_z
  _platon_squeeze_void_volume
  _platon_squeeze_void_count_electrons
  _platon_squeeze_void_content
   1  0.000  0.000  0.500       283        66 ' '
# Missing Reflections Below sin(th)/lambda = 0.25
loop_
  _platon_missing_refln_index_h
  _platon_missing_refln_index_k
  _platon_missing_refln_index_l
  _platon_missing_refln_theta
    1    0    0     1.706
   -1    1    0     2.309
    0    1    0     1.546
    1    1    0     2.296
    0    2    0     3.092
    0   -1    1     2.608
    1   -1    1     2.707
    0    0    1     1.661
    1    0    1     1.804
    0    1    1     1.870
    1    1    1     1.990
_platon_squeeze_void_probe_radius                  1.20
_platon_squeeze_details
)
TITL hgscn1221 in P-1
CELL   13.3823   14.1121   14.5139     69.01     63.12     80.40
SPGR P-1
# Solvent Accessible Volume =       281
# Electrons Found in S.A.V. =        65
# Note: Atoms in Void as Cxxx and Qxxx all others
C101 0.344 0.132 0.135 !       5.53 eA-3
Q102 0.896 0.942 0.267 !       3.77 eA-3
Q103 0.819 0.018 0.239 !       3.73 eA-3
C104 0.266 0.114 0.186 !       3.67 eA-3
Q105 0.235 0.658 0.422 !       3.59 eA-3
Q106 0.812 0.095 0.360 !       3.50 eA-3
C107 0.155 0.161 0.189 !       2.93 eA-3
Q108 0.933 0.937 0.349 !       2.92 eA-3
Q109 0.779 0.061 0.299 !       2.77 eA-3
C110 0.251 1.002 0.282 !       2.53 eA-3
Q111 0.879 0.029 0.402 !       2.35 eA-3
Q112 0.234 0.233 0.085 !       1.91 eA-3
Q113 0.575 0.778 0.010 !       1.47 eA-3
C114 0.288 0.169 0.186 !       1.41 eA-3
C115 0.252 0.114 0.334 !       1.32 eA-3
Q116 0.285 0.193 0.065 !       1.30 eA-3
C117 0.131 0.162 0.243 !       1.29 eA-3
Q118 0.672 0.107 0.221 !       1.26 eA-3
Q119 0.140 0.907 0.372 !       1.26 eA-3
Q120 0.120 0.090 0.467 !       1.25 eA-3
Q121 0.184 0.217 0.426 !       1.25 eA-3
Q122 0.344 0.639 0.486 !       1.24 eA-3
Q123 0.798 0.912 0.374 !       1.23 eA-3
Q124 0.250 0.207 0.304 !       1.23 eA-3
C125 0.139 0.982 0.338 !       1.22 eA-3
Q126 0.709 0.314 0.486 !       1.20 eA-3
C127 0.226 0.046 0.310 !       1.16 eA-3
Q128 0.312 0.112 0.406 !       1.14 eA-3
Q129 0.940 0.689 0.219 !       1.13 eA-3
Q130 0.172 0.671 0.424 !       1.12 eA-3
Q131 0.185 0.710 0.262 !       1.12 eA-3
Q132 0.185 0.185 0.278 !       1.11 eA-3
Q133 0.019 1.001 0.309 !       1.10 eA-3
Q134 0.499 0.591 0.418 !       1.09 eA-3
Q135 0.763 0.371 0.449 !       1.08 eA-3
Q136 0.373 0.716 0.385 !       1.08 eA-3
Q137 0.128 0.146 0.162 !       1.07 eA-3
Q138 0.176 0.450 0.248 !       1.07 eA-3
Q139 0.413 0.579 0.237 !       1.06 eA-3
Q140 0.199 0.203 0.063 !       1.06 eA-3
Q141 0.224 0.124 0.504 !       1.06 eA-3
Q142 0.188 0.191 0.461 !       1.06 eA-3
Q143 0.200 0.859 0.291 !       1.05 eA-3
Q144 0.409 0.456 0.197 !       1.05 eA-3
Q145 0.427 0.106 0.109 !       1.05 eA-3
C146 0.259 0.170 0.411 !       1.05 eA-3
C147 0.168 0.126 0.293 !       1.04 eA-3
Q148 0.880 0.440 0.028 !       1.03 eA-3
Q149 0.109 0.341 0.206 !       1.03 eA-3
Q150 0.716 0.599 0.172 !       1.03 eA-3
Q151 0.861 0.892 0.485 !       1.03 eA-3
Q152 0.531 0.014 0.217 !       1.02 eA-3
Q153 0.669 0.236 0.332 !       1.01 eA-3
Q154 0.624 0.359 0.310 !       1.01 eA-3
Q155 0.158 0.471 0.104 !       1.01 eA-3
Q156 0.061 0.104 0.235 !       1.01 eA-3
Q157 0.347 0.200-0.001 !       1.00 eA-3
Q158 0.175 0.266 0.464 !       1.00 eA-3
Q159 0.362 0.734 0.469 !       1.00 eA-3
Q160 0.015 0.989 0.422 !       0.99 eA-3
Q161 0.428 0.095 0.145 !       0.99 eA-3
Q162 0.036 0.736 0.313 !       0.99 eA-3
Q163 0.826 0.378 0.472 !       0.98 eA-3
Q164 0.685 0.402 0.263 !       0.98 eA-3
Q165 0.377 0.516 0.232 !       0.98 eA-3
Q166 0.729 0.248 0.474 !       0.98 eA-3
Q167 0.060 0.793 0.466 !       0.98 eA-3
Q168 0.640 0.092 0.073 !       0.97 eA-3
Q169 0.453 0.701 0.461 !       0.97 eA-3
Q170 0.395 0.907 0.143 !       0.97 eA-3
Q171 0.325 0.622 0.016 !       0.97 eA-3
Q172 0.076 0.959 0.328 !       0.97 eA-3
Q173 0.994 0.734 0.099 !       0.97 eA-3
Q174 0.361 0.173 0.384 !       0.96 eA-3
Q175 0.805 0.248 0.476 !       0.96 eA-3
Q176 0.375 0.518 0.113 !       0.96 eA-3
C177 0.139 0.941 0.295 !       0.95 eA-3
Q178 0.439 0.514 0.046 !       0.95 eA-3
C179 0.078 0.169 0.252 !       0.95 eA-3
Q180 0.183 0.651 0.236 !       0.95 eA-3
Q181 0.065 0.210 0.323 !       0.95 eA-3
Q182 0.612 0.251 0.182 !       0.94 eA-3
Q183 0.761 0.624 0.362 !       0.94 eA-3
Q184 0.513 0.425 0.319 !       0.94 eA-3
Q185 0.363 0.126 0.434 !       0.94 eA-3
Q186 0.108 0.687 0.310 !       0.94 eA-3
Q187 0.325 0.767 0.338 !       0.94 eA-3
Q188 0.870 0.565 0.409 !       0.93 eA-3
Q189 0.639 0.705 0.315 !       0.93 eA-3
Q190 0.953 0.788 0.490 !       0.92 eA-3
C191 0.998 0.013 0.504 !       0.92 eA-3
Q192 0.064 0.936 0.155 !       0.92 eA-3
Q193 0.324 0.688 0.144 !       0.92 eA-3
Q194 0.045 0.202 0.028 !       0.92 eA-3
Q195 0.033 0.489 0.479 !       0.91 eA-3
Q196 0.313 0.941 0.176 !       0.91 eA-3
Q197 0.559 0.719 0.388 !       0.91 eA-3
Q198 0.831 0.440 0.412 !       0.91 eA-3
Q199 0.346 0.702 0.471 !       0.91 eA-3
)
;
_shelx_fab_checksum              67372
loop_
_space_group_symop_operation_xyz
'x, y, z'
'-x, -y, -z'
loop_
_atom_site_label
_atom_site_type_symbol
_atom_site_fract_x
_atom_site_fract_y
_atom_site_fract_z
_atom_site_U_iso_or_equiv
_atom_site_adp_type
_atom_site_occupancy
_atom_site_site_symmetry_order
_atom_site_calc_flag
_atom_site_refinement_flags_posn
_atom_site_refinement_flags_adp
Hg Hg 0.30529(4) 0.67220(3) 0.42477(3) 0.0606(2) Uani 1 1 d . .
O1 O 0.6567(8) 0.5210(8) -0.0689(7) 0.090(3) Uani 1 1 d . .
O2 O 0.7532(9) 0.5847(8) -0.0105(8) 0.092(3) Uani 1 1 d . .
Cl Cl 0.2367(4) 0.7356(3) 0.2877(4) 0.1167(16) Uani 1 1 d . .
N1 N 0.3387(8) 0.4999(6) 0.4883(6) 0.052(2) Uani 1 1 d . .
N2 N 0.2439(8) 0.6532(6) 0.6017(6) 0.058(2) Uani 1 1 d . .
N3 N 0.4054(7) 0.8042(6) 0.4134(6) 0.049(2) Uani 1 1 d . .
N4 N 0.5503(8) 0.6202(7) 0.1527(6) 0.058(2) Uani 1 1 d . .
C1 C 0.4013(9) 0.4338(7) 0.4295(8) 0.047(2) Uani 1 1 d . .
C2 C 0.3712(10) 0.3301(7) 0.4999(9) 0.059(3) Uani 1 1 d . .
H2A H 0.4015 0.2718 0.4812 0.071 Uiso 1 1 calc R U
C3 C 0.2910(9) 0.3337(7) 0.5977(8) 0.053(3) Uani 1 1 d . .
H3B H 0.2567 0.2780 0.6586 0.063 Uiso 1 1 calc R U
C4 C 0.2680(8) 0.4381(7) 0.5914(8) 0.046(2) Uani 1 1 d . .
C5 C 0.1894(9) 0.4744(7) 0.6777(7) 0.047(2) Uani 1 1 d . .
C6 C 0.1787(9) 0.5720(7) 0.6823(7) 0.052(3) Uani 1 1 d . .
C7 C 0.1038(10) 0.6079(8) 0.7715(9) 0.064(3) Uani 1 1 d . .
H7A H 0.0510 0.5681 0.8373 0.077 Uiso 1 1 calc R U
C8 C 0.1205(9) 0.7055(8) 0.7467(8) 0.062(3) Uani 1 1 d . .
H8A H 0.0819 0.7465 0.7900 0.074 Uiso 1 1 calc R U
C9 C 0.2127(10) 0.7357(7) 0.6366(8) 0.058(3) Uani 1 1 d . .
C10 C 0.2624(10) 0.8322(7) 0.5824(8) 0.057(3) Uani 1 1 d . .
C11 C 0.3550(9) 0.8615(7) 0.4792(8) 0.055(3) Uani 1 1 d . .
C12 C 0.4174(10) 0.9557(8) 0.4328(9) 0.064(3) Uani 1 1 d . .
H12A H 0.4029 1.0056 0.4652 0.076 Uiso 1 1 calc R U
C13 C 0.4979(10) 0.9569(7) 0.3370(9) 0.064(3) Uani 1 1 d . .
H13A H 0.5494 1.0085 0.2879 0.077 Uiso 1 1 calc R U
C14 C 0.4909(10) 0.8616(7) 0.3223(8) 0.059(3) Uani 1 1 d . .
C15 C 0.5605(9) 0.8333(7) 0.2291(8) 0.052(3) Uani 1 1 d . .
C16 C 0.5560(8) 0.7352(7) 0.2242(7) 0.044(2) Uani 1 1 d . .
C17 C 0.5225(8) 0.6390(6) 0.3097(7) 0.043(2) Uani 1 1 d . .
H17A H 0.5665 0.6173 0.3525 0.052 Uiso 1 1 calc R U
C18 C 0.5177(8) 0.5674(7) 0.2662(8) 0.045(2) Uani 1 1 d . .
C19 C 0.5717(9) 0.7173(8) 0.1294(8) 0.055(3) Uani 1 1 d . .
H19A H 0.5938 0.7658 0.0605 0.066 Uiso 1 1 calc R U
C20 C 0.4807(9) 0.4655(7) 0.3216(8) 0.048(2) Uani 1 1 d . .
C21 C 0.1118(10) 0.3959(7) 0.7748(8) 0.054(3) Uani 1 1 d . .
C22 C 0.0310(10) 0.3483(8) 0.7681(10) 0.062(3) Uani 1 1 d . .
H22A H 0.0260 0.3649 0.7023 0.074 Uiso 1 1 calc R U
C23 C -0.0396(10) 0.2777(8) 0.8597(12) 0.074(4) Uani 1 1 d . .
H23A H -0.0938 0.2479 0.8557 0.089 Uiso 1 1 calc R U
C24 C -0.0316(12) 0.2497(8) 0.9587(12) 0.082(4) Uani 1 1 d . .
H24A H -0.0770 0.1990 1.0192 0.099 Uiso 1 1 calc R U
C25 C 0.0430(12) 0.2974(9) 0.9647(10) 0.080(4) Uani 1 1 d . .
H25A H 0.0463 0.2808 1.0313 0.096 Uiso 1 1 calc R U
C26 C 0.1152(10) 0.3704(9) 0.8752(8) 0.065(3) Uani 1 1 d . .
H26A H 0.1656 0.4022 0.8823 0.078 Uiso 1 1 calc R U
C27 C 0.2102(7) 0.9135(5) 0.6373(6) 0.065(3) Uani 1 1 d G .
C28 C 0.2436(8) 0.9196(7) 0.7128(7) 0.103(5) Uani 1 1 d G .
H28A H 0.2976 0.8751 0.7285 0.123 Uiso 1 1 calc R U
C29 C 0.1962(9) 0.9924(8) 0.7648(7) 0.104(6) Uani 1 1 d G .
H29A H 0.2186 0.9965 0.8153 0.125 Uiso 1 1 calc R U
C30 C 0.1155(9) 1.0590(6) 0.7413(9) 0.114(7) Uani 1 1 d G .
H30A H 0.0838 1.1077 0.7762 0.137 Uiso 1 1 calc R U
C31 C 0.0821(9) 1.0529(7) 0.6658(10) 0.160(10) Uani 1 1 d G .
H31A H 0.0281 1.0975 0.6501 0.192 Uiso 1 1 calc R U
C32 C 0.1294(9) 0.9801(7) 0.6138(8) 0.122(6) Uani 1 1 d G .
H32A H 0.1071 0.9760 0.5633 0.146 Uiso 1 1 calc R U
C33 C 0.6381(10) 0.9083(7) 0.1293(8) 0.053(3) Uani 1 1 d . .
C34 C 0.5946(12) 1.0003(9) 0.0806(9) 0.071(3) Uani 1 1 d . .
H34A H 0.5184 1.0151 0.1104 0.085 Uiso 1 1 calc R U
C35 C 0.6719(13) 1.0704(8) -0.0165(10) 0.080(4) Uani 1 1 d . .
H35A H 0.6456 1.1323 -0.0492 0.096 Uiso 1 1 calc R U
C36 C 0.7831(12) 1.0480(9) -0.0616(9) 0.077(4) Uani 1 1 d . .
H36A H 0.8319 1.0937 -0.1252 0.092 Uiso 1 1 calc R U
C37 C 0.8241(12) 0.9540(9) -0.0106(10) 0.075(4) Uani 1 1 d . .
H37A H 0.9001 0.9383 -0.0395 0.089 Uiso 1 1 calc R U
C38 C 0.7497(10) 0.8869(8) 0.0817(9) 0.061(3) Uani 1 1 d . .
H38A H 0.7763 0.8245 0.1132 0.073 Uiso 1 1 calc R U
C39 C 0.5282(10) 0.3907(7) 0.2610(8) 0.052(3) Uani 1 1 d . .
C40 C 0.6407(12) 0.3870(8) 0.2000(9) 0.066(3) Uani 1 1 d . .
H40A H 0.6878 0.4297 0.1987 0.079 Uiso 1 1 calc R U
C41 C 0.6867(14) 0.3198(11) 0.1393(12) 0.100(5) Uani 1 1 d . .
H41A H 0.7639 0.3155 0.1006 0.121 Uiso 1 1 calc R U
C42 C 0.6159(15) 0.2603(10) 0.1376(11) 0.095(4) Uani 1 1 d . .
H42A H 0.6456 0.2199 0.0926 0.114 Uiso 1 1 calc R U
C43 C 0.5056(16) 0.2595(9) 0.1994(11) 0.095(4) Uani 1 1 d . .
H43A H 0.4598 0.2160 0.2004 0.114 Uiso 1 1 calc R U
C44 C 0.4588(12) 0.3244(8) 0.2629(9) 0.067(3) Uani 1 1 d . .
H44A H 0.3821 0.3236 0.3063 0.080 Uiso 1 1 calc R U
C45 C 0.5503(12) 0.5870(10) 0.0689(10) 0.078(4) Uani 1 1 d . .
H45A H 0.5168 0.6397 0.0265 0.093 Uiso 1 1 calc R U
H45B H 0.5044 0.5268 0.1034 0.093 Uiso 1 1 calc R U
C46 C 0.6649(13) 0.5639(9) -0.0059(10) 0.069(3) Uani 1 1 d . .
C47 C 0.7615(13) 0.4794(13) -0.1353(11) 0.101(5) Uani 1 1 d . .
H47A H 0.8133 0.4683 -0.1024 0.121 Uiso 1 1 calc R U
H47B H 0.7461 0.4139 -0.1336 0.121 Uiso 1 1 calc R U
C48 C 0.8159(12) 0.5430(11) -0.2488(7) 0.156(3) Uani 1 1 d G .
C49 C 0.8717(13) 0.6302(12) -0.2746(9) 0.156(3) Uani 1 1 d G .
H49A H 0.8704 0.6498 -0.2194 0.187 Uiso 1 1 calc R U
C50 C 0.9293(12) 0.6881(10) -0.3831(10) 0.156(3) Uani 1 1 d G .
H50A H 0.9666 0.7464 -0.4004 0.187 Uiso 1 1 calc R U
C51 C 0.9312(12) 0.6589(11) -0.4657(7) 0.156(3) Uani 1 1 d G .
H51A H 0.9698 0.6976 -0.5383 0.187 Uiso 1 1 calc R U
C52 C 0.8755(12) 0.5717(12) -0.4399(9) 0.156(3) Uani 1 1 d G .
H52A H 0.8767 0.5522 -0.4951 0.187 Uiso 1 1 calc R U
C53 C 0.8178(12) 0.5138(10) -0.3314(10) 0.156(3) Uani 1 1 d G .
H53A H 0.7805 0.4555 -0.3141 0.187 Uiso 1 1 calc R U
loop_
_atom_site_aniso_label
_atom_site_aniso_U_11
_atom_site_aniso_U_22
_atom_site_aniso_U_33
_atom_site_aniso_U_23
_atom_site_aniso_U_13
_atom_site_aniso_U_12
Hg 0.0822(4) 0.0431(2) 0.0431(2) -0.01885(17) -0.0120(2) 0.0002(2)
O1 0.100(7) 0.113(8) 0.065(5) -0.056(5) -0.019(5) -0.006(6)
O2 0.089(7) 0.099(8) 0.084(6) -0.047(6) -0.022(6) -0.001(6)
Cl 0.144(4) 0.099(3) 0.098(3) 0.018(2) -0.072(3) -0.027(3)
N1 0.093(7) 0.028(4) 0.028(4) -0.012(3) -0.016(4) -0.002(4)
N2 0.083(7) 0.036(4) 0.032(4) -0.016(3) 0.002(4) -0.011(4)
N3 0.056(5) 0.035(4) 0.038(4) -0.018(3) 0.002(4) -0.005(4)
N4 0.083(7) 0.055(5) 0.036(4) -0.026(4) -0.018(5) 0.004(5)
C1 0.066(7) 0.030(5) 0.041(5) -0.024(4) -0.009(5) -0.003(5)
C2 0.086(8) 0.035(5) 0.055(6) -0.025(5) -0.022(6) 0.005(5)
C3 0.066(7) 0.036(5) 0.041(5) -0.020(4) -0.005(5) 0.001(5)
C4 0.058(6) 0.031(5) 0.042(5) -0.018(4) -0.013(5) 0.000(4)
C5 0.059(7) 0.032(5) 0.038(5) -0.014(4) -0.007(5) -0.002(5)
C6 0.072(7) 0.031(5) 0.035(5) -0.013(4) -0.003(5) -0.005(5)
C7 0.068(7) 0.042(6) 0.049(6) -0.022(5) 0.015(5) -0.022(5)
C8 0.068(7) 0.045(6) 0.047(6) -0.032(5) 0.009(5) 0.003(5)
C9 0.082(8) 0.031(5) 0.037(5) -0.019(4) 0.002(5) -0.008(5)
C10 0.075(8) 0.037(5) 0.043(5) -0.025(4) -0.004(5) 0.002(5)
C11 0.069(7) 0.024(4) 0.043(5) -0.018(4) 0.002(5) 0.007(5)
C12 0.082(8) 0.038(6) 0.061(7) -0.030(5) -0.013(6) 0.003(6)
C13 0.071(8) 0.029(5) 0.060(6) -0.021(5) 0.008(6) -0.016(5)
C14 0.072(8) 0.032(5) 0.050(6) -0.024(4) 0.002(5) -0.002(5)
C15 0.061(7) 0.034(5) 0.043(5) -0.019(4) -0.002(5) 0.000(5)
C16 0.055(6) 0.030(5) 0.039(5) -0.022(4) -0.008(5) 0.008(4)
C17 0.060(6) 0.021(4) 0.043(5) -0.021(4) -0.012(5) 0.010(4)
C18 0.040(6) 0.040(5) 0.045(5) -0.023(4) -0.004(4) 0.004(4)
C19 0.075(8) 0.045(6) 0.043(5) -0.025(5) -0.018(5) 0.013(5)
C20 0.057(7) 0.044(6) 0.044(5) -0.026(4) -0.015(5) 0.001(5)
C21 0.073(8) 0.032(5) 0.044(5) -0.016(4) -0.011(5) -0.004(5)
C22 0.081(8) 0.034(5) 0.067(7) -0.030(5) -0.022(6) 0.009(6)
C23 0.052(7) 0.034(6) 0.103(10) -0.034(6) 0.008(7) -0.010(5)
C24 0.073(9) 0.026(5) 0.082(9) -0.006(6) 0.016(7) -0.013(6)
C25 0.084(9) 0.050(7) 0.049(6) -0.007(5) 0.009(6) 0.009(7)
C26 0.072(8) 0.059(7) 0.044(6) -0.018(5) -0.008(6) 0.000(6)
C27 0.083(8) 0.031(5) 0.046(6) -0.022(4) 0.011(6) -0.010(5)
C28 0.133(13) 0.083(10) 0.098(11) -0.077(9) -0.024(10) 0.016(9)
C29 0.101(11) 0.076(10) 0.119(12) -0.077(9) 0.006(10) -0.017(9)
C30 0.100(12) 0.059(9) 0.122(13) -0.066(9) 0.041(10) -0.028(9)
C31 0.139(18) 0.090(13) 0.27(3) -0.130(18) -0.061(19) 0.050(12)
C32 0.113(13) 0.110(13) 0.149(16) -0.097(13) -0.041(12) 0.063(11)
C33 0.069(8) 0.028(5) 0.039(5) -0.014(4) -0.001(5) -0.003(5)
C34 0.091(9) 0.047(7) 0.055(6) -0.017(5) -0.010(7) -0.012(6)
C35 0.121(12) 0.034(6) 0.053(7) -0.015(5) -0.008(8) -0.001(7)
C36 0.094(10) 0.059(8) 0.047(6) -0.028(6) 0.012(7) -0.030(7)
C37 0.081(9) 0.055(7) 0.060(7) -0.022(6) -0.001(7) -0.012(7)
C38 0.078(8) 0.036(5) 0.050(6) -0.013(5) -0.012(6) -0.005(5)
C39 0.069(8) 0.034(5) 0.049(6) -0.027(4) -0.012(6) 0.003(5)
C40 0.100(10) 0.036(6) 0.066(7) -0.031(5) -0.030(7) 0.009(6)
C41 0.110(12) 0.072(9) 0.076(9) -0.043(8) -0.004(8) 0.045(9)
C42 0.169(12) 0.046(5) 0.070(7) -0.041(5) -0.037(7) 0.011(7)
C43 0.169(12) 0.046(5) 0.070(7) -0.041(5) -0.037(7) 0.011(7)
C44 0.105(10) 0.039(6) 0.056(6) -0.023(5) -0.026(7) -0.009(6)
C45 0.094(10) 0.066(8) 0.064(7) -0.039(6) -0.011(7) -0.004(7)
C46 0.085(10) 0.057(7) 0.058(7) -0.030(6) -0.018(7) 0.006(7)
C47 0.103(12) 0.109(13) 0.075(9) -0.052(9) -0.011(9) 0.009(10)
C48 0.168(8) 0.211(11) 0.090(5) -0.057(6) -0.028(6) -0.067(6)
C49 0.168(8) 0.211(11) 0.090(5) -0.057(6) -0.028(6) -0.067(6)
C50 0.168(8) 0.211(11) 0.090(5) -0.057(6) -0.028(6) -0.067(6)
C51 0.168(8) 0.211(11) 0.090(5) -0.057(6) -0.028(6) -0.067(6)
C52 0.168(8) 0.211(11) 0.090(5) -0.057(6) -0.028(6) -0.067(6)
C53 0.168(8) 0.211(11) 0.090(5) -0.057(6) -0.028(6) -0.067(6)
loop_
_atom_type_symbol
_atom_type_description
_atom_type_scat_dispersion_real
_atom_type_scat_dispersion_imag
_atom_type_scat_source
C C 0.0033 0.0016 'International Tables Vol C Tables 4.2.6.8 and 6.1.1.4'
H H 0.0000 0.0000 'International Tables Vol C Tables 4.2.6.8 and 6.1.1.4'
N N 0.0061 0.0033 'International Tables Vol C Tables 4.2.6.8 and 6.1.1.4'
O O 0.0106 0.0060 'International Tables Vol C Tables 4.2.6.8 and 6.1.1.4'
Hg Hg -2.3894 9.2266 'International Tables Vol C Tables 4.2.6.8 and 6.1.1.4'
Cl Cl 0.1484 0.1585 'International Tables Vol C Tables 4.2.6.8 and 6.1.1.4'
loop_
_geom_angle_atom_site_label_1
_geom_angle_atom_site_label_2
_geom_angle_atom_site_label_3
_geom_angle
N2 Hg N1 80.9(3)
N2 Hg N3 79.1(3)
N1 Hg N3 125.4(3)
N2 Hg Cl 138.2(3)
N1 Hg Cl 119.7(2)
N3 Hg Cl 108.8(2)
N2 Hg C17 118.8(3)
N1 Hg C17 72.6(3)
N3 Hg C17 73.9(3)
Cl Hg C17 102.5(2)
C46 O1 C47 115.2(12)
C4 N1 C1 105.7(7)
C4 N1 Hg 121.9(6)
C1 N1 Hg 129.4(6)
C9 N2 C6 108.9(8)
C9 N2 Hg 120.3(6)
C6 N2 Hg 121.5(6)
C11 N3 C14 106.5(8)
C11 N3 Hg 120.6(7)
C14 N3 Hg 127.1(6)
C19 N4 C18 110.2(8)
C19 N4 C45 119.4(9)
C18 N4 C45 130.0(9)
C20 C1 N1 124.0(8)
C20 C1 C2 127.0(9)
N1 C1 C2 109.0(8)
C3 C2 C1 107.5(9)
C3 C2 H2A 126.3
C1 C2 H2A 126.3
C2 C3 C4 108.1(9)
C2 C3 H3B 125.9
C4 C3 H3B 125.9
N1 C4 C5 124.6(8)
N1 C4 C3 109.6(8)
C5 C4 C3 125.8(8)
C6 C5 C4 127.7(9)
C6 C5 C21 117.3(8)
C4 C5 C21 115.0(8)
N2 C6 C5 125.3(9)
N2 C6 C7 106.7(8)
C5 C6 C7 127.9(9)
C8 C7 C6 110.4(9)
C8 C7 H7A 124.8
C6 C7 H7A 124.8
C7 C8 C9 105.9(9)
C7 C8 H8A 127.1
C9 C8 H8A 127.1
N2 C9 C10 127.4(9)
N2 C9 C8 108.1(8)
C10 C9 C8 124.3(9)
C9 C10 C11 125.5(9)
C9 C10 C27 117.6(9)
C11 C10 C27 116.9(8)
N3 C11 C10 125.8(9)
N3 C11 C12 109.5(9)
C10 C11 C12 124.5(9)
C13 C12 C11 107.6(9)
C13 C12 H12A 126.2
C11 C12 H12A 126.2
C12 C13 C14 106.8(9)
C12 C13 H13A 126.6
C14 C13 H13A 126.6
N3 C14 C15 125.4(9)
N3 C14 C13 109.3(8)
C15 C14 C13 125.2(9)
C14 C15 C16 122.3(9)
C14 C15 C33 120.2(8)
C16 C15 C33 117.5(8)
C19 C16 C15 123.7(9)
C19 C16 C17 105.3(8)
C15 C16 C17 130.6(8)
C18 C17 C16 109.1(8)
C18 C17 Hg 102.2(7)
C16 C17 Hg 101.8(6)
C18 C17 H17A 114.1
C16 C17 H17A 114.1
Hg C17 H17A 114.1
C17 C18 C20 128.5(9)
C17 C18 N4 105.4(8)
C20 C18 N4 125.9(9)
N4 C19 C16 109.9(9)
N4 C19 H19A 125.0
C16 C19 H19A 125.0
C1 C20 C18 122.1(9)
C1 C20 C39 119.4(9)
C18 C20 C39 118.5(9)
C26 C21 C22 118.5(10)
C26 C21 C5 120.2(10)
C22 C21 C5 121.3(10)
C23 C22 C21 119.4(12)
C23 C22 H22A 120.3
C21 C22 H22A 120.3
C22 C23 C24 121.3(12)
C22 C23 H23A 119.3
C24 C23 H23A 119.3
C25 C24 C23 118.7(11)
C25 C24 H24A 120.7
C23 C24 H24A 120.7
C24 C25 C26 122.3(13)
C24 C25 H25A 118.8
C26 C25 H25A 118.8
C25 C26 C21 119.7(12)
C25 C26 H26A 120.2
C21 C26 H26A 120.2
C28 C27 C32 120.0
C28 C27 C10 118.9(7)
C32 C27 C10 121.1(7)
C27 C28 C29 120.0
C27 C28 H28A 120.0
C29 C28 H28A 120.0
C30 C29 C28 120.0
C30 C29 H29A 120.0
C28 C29 H29A 120.0
C29 C30 C31 120.0
C29 C30 H30A 120.0
C31 C30 H30A 120.0
C32 C31 C30 120.0
C32 C31 H31A 120.0
C30 C31 H31A 120.0
C31 C32 C27 120.0
C31 C32 H32A 120.0
C27 C32 H32A 120.0
C38 C33 C34 119.9(9)
C38 C33 C15 120.7(9)
C34 C33 C15 119.3(10)
C33 C34 C35 117.7(12)
C33 C34 H34A 121.1
C35 C34 H34A 121.1
C36 C35 C34 121.3(12)
C36 C35 H35A 119.4
C34 C35 H35A 119.4
C35 C36 C37 119.6(11)
C35 C36 H36A 120.2
C37 C36 H36A 120.2
C38 C37 C36 118.9(12)
C38 C37 H37A 120.6
C36 C37 H37A 120.6
C33 C38 C37 122.6(11)
C33 C38 H38A 118.7
C37 C38 H38A 118.7
C40 C39 C44 118.5(10)
C40 C39 C20 120.0(9)
C44 C39 C20 121.5(10)
C39 C40 C41 120.9(12)
C39 C40 H40A 119.6
C41 C40 H40A 119.6
C42 C41 C40 119.2(14)
C42 C41 H41A 120.4
C40 C41 H41A 120.4
C43 C42 C41 121.2(13)
C43 C42 H42A 119.4
C41 C42 H42A 119.4
C42 C43 C44 120.0(14)
C42 C43 H43A 120.0
C44 C43 H43A 120.0
C39 C44 C43 120.0(13)
C39 C44 H44A 120.0
C43 C44 H44A 120.0
N4 C45 C46 112.7(11)
N4 C45 H45A 109.1
C46 C45 H45A 109.1
N4 C45 H45B 109.1
C46 C45 H45B 109.1
H45A C45 H45B 107.8
O2 C46 O1 125.5(13)
O2 C46 C45 125.6(12)
O1 C46 C45 108.9(12)
C48 C47 O1 114.8(14)
C48 C47 H47A 108.6
O1 C47 H47A 108.6
C48 C47 H47B 108.6
O1 C47 H47B 108.6
H47A C47 H47B 107.5
C49 C48 C53 120.0
C49 C48 C47 119.7(11)
C53 C48 C47 120.2(11)
C48 C49 C50 120.0
C48 C49 H49A 120.0
C50 C49 H49A 120.0
C51 C50 C49 120.0
C51 C50 H50A 120.0
C49 C50 H50A 120.0
C50 C51 C52 120.0
C50 C51 H51A 120.0
C52 C51 H51A 120.0
C53 C52 C51 120.0
C53 C52 H52A 120.0
C51 C52 H52A 120.0
C52 C53 C48 120.0
C52 C53 H53A 120.0
C48 C53 H53A 120.0
loop_
_geom_bond_atom_site_label_1
_geom_bond_atom_site_label_2
_geom_bond_distance
Hg N2 2.239(8)
Hg N1 2.316(7)
Hg N3 2.389(8)
Hg Cl 2.388(4)
Hg C17 2.678(10)
O1 C46 1.313(14)
O1 C47 1.467(16)
O2 C46 1.232(15)
N1 C4 1.398(12)
N1 C1 1.401(11)
N2 C9 1.362(12)
N2 C6 1.375(11)
N3 C11 1.345(11)
N3 C14 1.374(12)
N4 C19 1.335(13)
N4 C18 1.429(12)
N4 C45 1.451(14)
C1 C20 1.390(13)
C1 C2 1.450(13)
C2 C3 1.351(14)
C2 H2A 0.9300
C3 C4 1.432(13)
C3 H3B 0.9300
C4 C5 1.424(13)
C5 C6 1.384(12)
C5 C21 1.494(13)
C6 C7 1.436(13)
C7 C8 1.324(14)
C7 H7A 0.9300
C8 C9 1.470(13)
C8 H8A 0.9300
C9 C10 1.407(14)
C10 C11 1.414(14)
C10 C27 1.524(11)
C11 C12 1.462(14)
C12 C13 1.316(15)
C12 H12A 0.9300
C13 C14 1.458(13)
C13 H13A 0.9300
C14 C15 1.407(13)
C15 C16 1.425(12)
C15 C33 1.484(13)
C16 C19 1.404(13)
C16 C17 1.441(12)
C17 C18 1.392(12)
C17 H17A 0.9800
C18 C20 1.417(13)
C19 H19A 0.9300
C20 C39 1.493(13)
C21 C26 1.390(14)
C21 C22 1.418(16)
C22 C23 1.372(16)
C22 H22A 0.9300
C23 C24 1.397(19)
C23 H23A 0.9300
C24 C25 1.342(19)
C24 H24A 0.9300
C25 C26 1.386(16)
C25 H25A 0.9300
C26 H26A 0.9300
C27 C28 1.3900
C27 C32 1.3900
C28 C29 1.3900
C28 H28A 0.9300
C29 C30 1.3900
C29 H29A 0.9300
C30 C31 1.3900
C30 H30A 0.9300
C31 C32 1.3900
C31 H31A 0.9300
C32 H32A 0.9300
C33 C38 1.365(15)
C33 C34 1.409(16)
C34 C35 1.435(16)
C34 H34A 0.9300
C35 C36 1.361(18)
C35 H35A 0.9300
C36 C37 1.425(18)
C36 H36A 0.9300
C37 C38 1.372(15)
C37 H37A 0.9300
C38 H38A 0.9300
C39 C40 1.362(16)
C39 C44 1.408(15)
C40 C41 1.404(16)
C40 H40A 0.9300
C41 C42 1.38(2)
C41 H41A 0.9300
C42 C43 1.34(2)
C42 H42A 0.9300
C43 C44 1.404(15)
C43 H43A 0.9300
C44 H44A 0.9300
C45 C46 1.490(18)
C45 H45A 0.9700
C45 H45B 0.9700
C47 C48 1.456(17)
C47 H47A 0.9700
C47 H47B 0.9700
C48 C49 1.3900
C48 C53 1.3900
C49 C50 1.3900
C49 H49A 0.9300
C50 C51 1.3900
C50 H50A 0.9300
C51 C52 1.3900
C51 H51A 0.9300
C52 C53 1.3900
C52 H52A 0.9300
C53 H53A 0.9300
